@<TRIPOS>MOLECULE
ZINC00007460
   40    43     0     0     0
SMALL
USER_CHARGES

@<TRIPOS>ATOM
      1 C1          0.0099    1.3100   -0.6665 C.ar      1 <0>        -0.0873
      2 C2          1.1932    2.0449   -0.6736 C.ar      1 <0>        -0.1031
      3 C3          2.3989    1.4389   -0.4755 C.ar      1 <0>        -0.0878
      4 C4          2.4464    0.0575   -0.2619 C.ar      1 <0>        -0.1050
      5 C5          1.2413   -0.6922   -0.2545 C.ar      1 <0>        -0.0366
      6 C6          0.0201   -0.0377   -0.4614 C.ar      1 <0>        -0.1000
      7 C7          1.3338   -2.0791   -0.0357 C.ar      1 <0>         0.0670
      8 N1          2.5164   -2.6188    0.1508 N.ar      1 <0>        -0.2122
      9 N2          3.6082   -1.9490    0.1455 N.ar      1 <0>        -0.3148
     10 C8          3.6557   -0.6424   -0.0488 C.ar      1 <0>         0.3624
     11 N3          4.8682    0.0284   -0.0441 N.pl3     1 <0>        -0.6425
     12 C9          6.0641   -0.6900    0.0467 C.ar      1 <0>         0.1605
     13 C10         6.1747   -1.9364   -0.5565 C.ar      1 <0>        -0.1016
     14 C11         7.3572   -2.6438   -0.4652 C.ar      1 <0>        -0.0857
     15 C12         8.4313   -2.1122    0.2268 C.ar      1 <0>        -0.0509
     16 C13         8.3240   -0.8708    0.8288 C.ar      1 <0>        -0.0880
     17 C14         7.1459   -0.1562    0.7354 C.ar      1 <0>        -0.1365
     18 Cl1         9.9160   -3.0048    0.3406 Cl        1 <0>        -0.0690
     19 C15         0.0926   -2.9335   -0.0150 C.3       1 <0>        -0.0232
     20 C16        -0.1981   -3.4309   -1.4076 C.ar      1 <0>        -0.0363
     21 C17        -0.9979   -2.6976   -2.2706 C.ar      1 <0>        -0.1703
     22 C18        -1.2425   -3.1855   -3.5404 C.ar      1 <0>         0.0995
     23 N4         -0.7257   -4.3333   -3.9331 N.ar      1 <0>        -0.4856
     24 C19         0.0392   -5.0571   -3.1393 C.ar      1 <0>         0.1005
     25 C20         0.3326   -4.6300   -1.8581 C.ar      1 <0>        -0.1573
     26 H1         -0.9311    1.8168   -0.8216 H         1 <0>         0.1364
     27 H2          1.1553    3.1115   -0.8389 H         1 <0>         0.1355
     28 H3          3.3089    2.0205   -0.4838 H         1 <0>         0.1315
     29 H4         -0.9047   -0.5955   -0.4580 H         1 <0>         0.1411
     30 H5          4.8872    0.9963   -0.1038 H         1 <0>         0.4199
     31 H6          5.3365   -2.3519   -1.0962 H         1 <0>         0.1422
     32 H7          7.4438   -3.6128   -0.9340 H         1 <0>         0.1376
     33 H8          9.1638   -0.4583    1.3683 H         1 <0>         0.1380
     34 H9          7.0641    0.8146    1.2016 H         1 <0>         0.1341
     35 H10         0.2476   -3.7836    0.6494 H         1 <0>         0.1044
     36 H11        -0.7500   -2.3417    0.3426 H         1 <0>         0.0975
     37 H12        -1.4246   -1.7571   -1.9546 H         1 <0>         0.1331
     38 H13        -1.8645   -2.6203   -4.2187 H         1 <0>         0.1558
     39 H14         0.4444   -5.9925   -3.4961 H         1 <0>         0.1573
     40 H15         0.9637   -5.2248   -1.2145 H         1 <0>         0.1397
@<TRIPOS>BOND
     1    1    6 ar
     2    1    2 ar
     3    1   26 1
     4    2    3 ar
     5    2   27 1
     6    3    4 ar
     7    3   28 1
     8    4   10 ar
     9    4    5 ar
    10    5    6 ar
    11    5    7 ar
    12    6   29 1
    13    7    8 ar
    14    7   19 1
    15    8    9 ar
    16    9   10 ar
    17   10   11 1
    18   11   12 1
    19   11   30 1
    20   12   17 ar
    21   12   13 ar
    22   13   14 ar
    23   13   31 1
    24   14   15 ar
    25   14   32 1
    26   15   16 ar
    27   15   18 1
    28   16   17 ar
    29   16   33 1
    30   17   34 1
    31   19   20 1
    32   19   35 1
    33   19   36 1
    34   20   25 ar
    35   20   21 ar
    36   21   22 ar
    37   21   37 1
    38   22   23 ar
    39   22   38 1
    40   23   24 ar
    41   24   25 ar
    42   24   39 1
    43   25   40 1
@<TRIPOS>MOLECULE
ZINC00008732
   40    42     0     0     0
SMALL
USER_CHARGES
N-(4-chlorophenyl)-2-(4-pyridylmethylamino)benzamide
@<TRIPOS>ATOM
      1 C1          3.5646    3.1023    0.0107 C.ar      1 <0>        -0.1892
      2 C2          2.3520    3.7686   -0.0720 C.ar      1 <0>        -0.0339
      3 C3          1.1659    3.0639   -0.0690 C.ar      1 <0>        -0.2116
      4 C4          1.1804    1.6771    0.0169 C.ar      1 <0>         0.2828
      5 C5          2.4065    0.9998    0.1057 C.ar      1 <0>        -0.2339
      6 C6          3.5992    1.7280    0.0970 C.ar      1 <0>        -0.0330
      7 C7          2.4361   -0.4707    0.2035 C.2       1 <0>         0.5767
      8 O1          1.4043   -1.1074    0.1076 O.2       1 <0>        -0.5323
      9 N1          3.6065   -1.1097    0.3992 N.am      1 <0>        -0.6684
     10 C8          3.6486   -2.5081    0.3987 C.ar      1 <0>         0.1494
     11 C9          2.5872   -3.2362    0.9202 C.ar      1 <0>        -0.1076
     12 C10         2.6286   -4.6166    0.9129 C.ar      1 <0>        -0.0910
     13 C11         3.7319   -5.2742    0.3978 C.ar      1 <0>        -0.0490
     14 C12         4.7935   -4.5511   -0.1173 C.ar      1 <0>        -0.0904
     15 C13         4.7545   -3.1706   -0.1180 C.ar      1 <0>        -0.1323
     16 Cl1         3.7842   -7.0095    0.3972 Cl        1 <0>        -0.0683
     17 N2         -0.0121    0.9654    0.0206 N.pl3     1 <0>        -0.7212
     18 C14        -1.2911    1.6793    0.0525 C.3       1 <0>         0.1556
     19 C15        -2.4224    0.6838    0.0431 C.ar      1 <0>        -0.0625
     20 C16        -2.9734    0.2467   -1.1518 C.ar      1 <0>        -0.1534
     21 C17        -4.0071   -0.6701   -1.1212 C.ar      1 <0>         0.0997
     22 N3         -4.4752   -1.1208    0.0263 N.ar      1 <0>        -0.4787
     23 C18        -3.9788   -0.7239    1.1816 C.ar      1 <0>         0.0996
     24 C19        -2.9409    0.1875    1.2294 C.ar      1 <0>        -0.1533
     25 H1          4.4872    3.6637    0.0079 H         1 <0>         0.1272
     26 H2          2.3355    4.8464   -0.1390 H         1 <0>         0.1283
     27 H3          0.2253    3.5906   -0.1331 H         1 <0>         0.1295
     28 H4          4.5469    1.2141    0.1616 H         1 <0>         0.1235
     29 H5          4.4196   -0.6000    0.5403 H         1 <0>         0.4134
     30 H6          1.7281   -2.7234    1.3271 H         1 <0>         0.1473
     31 H7          1.8012   -5.1834    1.3136 H         1 <0>         0.1372
     32 H8          5.6530   -5.0668   -0.5193 H         1 <0>         0.1387
     33 H9          5.5830   -2.6067   -0.5204 H         1 <0>         0.1362
     34 H10         0.0016   -0.0042   -0.0019 H         1 <0>         0.4212
     35 H11        -1.3470    2.2844    0.9574 H         1 <0>         0.0767
     36 H12        -1.3684    2.3254   -0.8220 H         1 <0>         0.0764
     37 H13        -2.5973    0.6156   -2.0946 H         1 <0>         0.1366
     38 H14        -4.4395   -1.0181   -2.0477 H         1 <0>         0.1588
     39 H15        -4.3882   -1.1152    2.1012 H         1 <0>         0.1587
     40 H16        -2.5390    0.5092    2.1788 H         1 <0>         0.1364
@<TRIPOS>BOND
     1    1    6 ar
     2    1    2 ar
     3    1   25 1
     4    2    3 ar
     5    2   26 1
     6    3    4 ar
     7    3   27 1
     8    4    5 ar
     9    4   17 1
    10    5    6 ar
    11    5    7 1
    12    6   28 1
    13    7    8 2
    14    7    9 am
    15    9   10 1
    16    9   29 1
    17   10   15 ar
    18   10   11 ar
    19   11   12 ar
    20   11   30 1
    21   12   13 ar
    22   12   31 1
    23   13   14 ar
    24   13   16 1
    25   14   15 ar
    26   14   32 1
    27   15   33 1
    28   17   18 1
    29   17   34 1
    30   18   19 1
    31   18   35 1
    32   18   36 1
    33   19   24 ar
    34   19   20 ar
    35   20   21 ar
    36   20   37 1
    37   21   22 ar
    38   21   38 1
    39   22   23 ar
    40   23   24 ar
    41   23   39 1
    42   24   40 1
@<TRIPOS>MOLECULE
ZINC13474785
   63    67     0     0     0
SMALL
USER_CHARGES

@<TRIPOS>ATOM
      1 C1         -2.1246    1.3061   -5.4588 C.3       1 <0>         0.0239
      2 O1         -2.0667   -0.1208   -5.5091 O.3       1 <0>        -0.3002
      3 C2         -0.8829   -0.7027   -5.1790 C.ar      1 <0>         0.1156
      4 C3          0.1763    0.0798   -4.8158 C.ar      1 <0>        -0.1419
      5 C4          1.3954   -0.5183   -4.4752 C.ar      1 <0>        -0.1517
      6 C5          1.5241   -1.9290   -4.5090 C.ar      1 <0>         0.1777
      7 C6          0.4256   -2.7116   -4.8848 C.ar      1 <0>        -0.1830
      8 C7         -0.7646   -2.0992   -5.2096 C.ar      1 <0>         0.1606
      9 O2         -1.8337   -2.8563   -5.5691 O.3       1 <0>        -0.2971
     10 C8         -1.6504   -4.2735   -5.5810 C.3       1 <0>         0.0201
     11 N1          2.7036   -2.4771   -4.1769 N.ar      1 <0>        -0.5096
     12 C9          3.7149   -1.7180   -3.8285 C.ar      1 <0>         0.3107
     13 N2          3.6413   -0.3971   -3.7826 N.ar      1 <0>        -0.5396
     14 C10         2.5229    0.2460   -4.0910 C.ar      1 <0>         0.4677
     15 N3          2.4606    1.6231   -4.0392 N.pl3     1 <0>        -0.6596
     16 C11         1.9700    2.3048   -2.8332 C.3       1 <0>         0.1330
     17 C12         3.0387    3.2996   -2.3635 C.3       1 <0>         0.1145
     18 N4          3.4622    4.1113   -3.5131 N.am      1 <0>        -0.6209
     19 C13         3.9528    3.4297   -4.7192 C.3       1 <0>         0.0940
     20 C14         2.8894    2.4350   -5.1867 C.3       1 <0>         0.1337
     21 C15         3.4014    5.4568   -3.4625 C.2       1 <0>         0.7098
     22 O3          3.1198    6.0137   -2.4190 O.2       1 <0>        -0.5683
     23 N5          3.6527    6.1848   -4.5685 N.am      1 <0>        -0.6809
     24 C16         3.7821    7.5772   -4.4764 C.ar      1 <0>         0.1309
     25 C17         3.1691    8.2644   -3.4373 C.ar      1 <0>        -0.0986
     26 C18         3.2969    9.6363   -3.3471 C.ar      1 <0>        -0.1707
     27 C19         4.0378   10.3281   -4.2944 C.ar      1 <0>         0.1023
     28 C20         4.6503    9.6419   -5.3332 C.ar      1 <0>        -0.1232
     29 C21         4.5282    8.2692   -5.4209 C.ar      1 <0>        -0.1151
     30 O4          4.1634   11.6789   -4.2051 O.3       1 <0>        -0.2607
     31 C22         3.6606   12.2948   -3.1032 C.ar      1 <0>         0.0843
     32 C23         4.3611   12.2581   -1.9060 C.ar      1 <0>        -0.1315
     33 C24         3.8477   12.8850   -0.7872 C.ar      1 <0>        -0.1050
     34 C25         2.6369   13.5487   -0.8597 C.ar      1 <0>        -0.1186
     35 C26         1.9365   13.5864   -2.0513 C.ar      1 <0>        -0.1056
     36 C27         2.4484   12.9664   -3.1746 C.ar      1 <0>        -0.1237
     37 H1         -1.9050    1.6432   -4.4457 H         1 <0>         0.0580
     38 H2         -1.3906    1.7240   -6.1478 H         1 <0>         0.0575
     39 H3         -3.1222    1.6396   -5.7445 H         1 <0>         0.1064
     40 H4          0.0737    1.1546   -4.7918 H         1 <0>         0.1486
     41 H5          0.5096   -3.7879   -4.9153 H         1 <0>         0.1554
     42 H6         -1.3739   -4.6125   -4.5827 H         1 <0>         0.0621
     43 H7         -2.5786   -4.7573   -5.8850 H         1 <0>         0.1077
     44 H8         -0.8589   -4.5315   -6.2846 H         1 <0>         0.0620
     45 H9          4.6495   -2.1919   -3.5670 H         1 <0>         0.1963
     46 H10         1.0488    2.8396   -3.0644 H         1 <0>         0.0667
     47 H11         1.7831    1.5713   -2.0488 H         1 <0>         0.0849
     48 H12         2.6219    3.9472   -1.5922 H         1 <0>         0.1045
     49 H13         3.8948    2.7556   -1.9646 H         1 <0>         0.0762
     50 H14         4.1397    4.1631   -5.5035 H         1 <0>         0.0839
     51 H15         4.8741    2.8949   -4.4879 H         1 <0>         0.0830
     52 H16         3.3096    1.7875   -5.9563 H         1 <0>         0.0850
     53 H17         2.0352    2.9792   -5.5894 H         1 <0>         0.0665
     54 H18         3.7439    5.7451   -5.4282 H         1 <0>         0.4059
     55 H19         2.5921    7.7260   -2.7000 H         1 <0>         0.1646
     56 H20         2.8198   10.1710   -2.5391 H         1 <0>         0.1299
     57 H21         5.2266   10.1809   -6.0706 H         1 <0>         0.1365
     58 H22         5.0089    7.7346   -6.2268 H         1 <0>         0.1327
     59 H23         5.3068   11.7395   -1.8487 H         1 <0>         0.1300
     60 H24         4.3924   12.8564    0.1449 H         1 <0>         0.1305
     61 H25         2.2372   14.0382    0.0161 H         1 <0>         0.1287
     62 H26         0.9908   14.1052   -2.1052 H         1 <0>         0.1314
     63 H27         1.9036   13.0006   -4.1065 H         1 <0>         0.1317
@<TRIPOS>BOND
     1    1    2 1
     2    1   37 1
     3    1   38 1
     4    1   39 1
     5    2    3 1
     6    3    8 ar
     7    3    4 ar
     8    4    5 ar
     9    4   40 1
    10    5   14 ar
    11    5    6 ar
    12    6    7 ar
    13    6   11 ar
    14    7    8 ar
    15    7   41 1
    16    8    9 1
    17    9   10 1
    18   10   42 1
    19   10   43 1
    20   10   44 1
    21   11   12 ar
    22   12   13 ar
    23   12   45 1
    24   13   14 ar
    25   14   15 1
    26   15   20 1
    27   15   16 1
    28   16   17 1
    29   16   46 1
    30   16   47 1
    31   17   18 1
    32   17   48 1
    33   17   49 1
    34   18   19 1
    35   18   21 am
    36   19   20 1
    37   19   50 1
    38   19   51 1
    39   20   52 1
    40   20   53 1
    41   21   22 2
    42   21   23 am
    43   23   24 1
    44   23   54 1
    45   24   29 ar
    46   24   25 ar
    47   25   26 ar
    48   25   55 1
    49   26   27 ar
    50   26   56 1
    51   27   28 ar
    52   27   30 1
    53   28   29 ar
    54   28   57 1
    55   29   58 1
    56   30   31 1
    57   31   36 ar
    58   31   32 ar
    59   32   33 ar
    60   32   59 1
    61   33   34 ar
    62   33   60 1
    63   34   35 ar
    64   34   61 1
    65   35   36 ar
    66   35   62 1
    67   36   63 1
@<TRIPOS>MOLECULE
ZINC13474785
   64    68     0     0     0
SMALL
USER_CHARGES

@<TRIPOS>ATOM
      1 C1         -2.1246    1.3061   -5.4588 C.3       1 <0>         0.0152
      2 O1         -2.0667   -0.1208   -5.5091 O.3       1 <0>        -0.2837
      3 C2         -0.8829   -0.7027   -5.1790 C.ar      1 <0>         0.1374
      4 C3          0.1763    0.0798   -4.8158 C.ar      1 <0>        -0.1240
      5 C4          1.3954   -0.5183   -4.4752 C.ar      1 <0>        -0.1342
      6 C5          1.5241   -1.9290   -4.5090 C.ar      1 <0>         0.1852
      7 C6          0.4256   -2.7116   -4.8848 C.ar      1 <0>        -0.2356
      8 C7         -0.7646   -2.0992   -5.2096 C.ar      1 <0>         0.2285
      9 O2         -1.8337   -2.8563   -5.5691 O.3       1 <0>        -0.2724
     10 C8         -1.6504   -4.2735   -5.5810 C.3       1 <0>         0.0100
     11 N1          2.7036   -2.4771   -4.1769 N.ar      1 <0>        -0.5056
     12 C9          3.7148   -1.7180   -3.8281 C.ar      1 <0>         0.4113
     13 N2          3.6411   -0.3972   -3.7821 N.ar      1 <0>        -0.5127
     14 C10         2.5229    0.2460   -4.0910 C.ar      1 <0>         0.5628
     15 N3          2.4606    1.6231   -4.0392 N.pl3     1 <0>        -0.6689
     16 C11         1.9700    2.3048   -2.8332 C.3       1 <0>         0.1266
     17 C12         3.0387    3.2996   -2.3635 C.3       1 <0>         0.1144
     18 N4          3.4622    4.1113   -3.5131 N.am      1 <0>        -0.6269
     19 C13         3.9528    3.4297   -4.7192 C.3       1 <0>         0.0932
     20 C14         2.8894    2.4350   -5.1867 C.3       1 <0>         0.1273
     21 C15         3.4014    5.4568   -3.4625 C.2       1 <0>         0.7099
     22 O3          3.1198    6.0137   -2.4190 O.2       1 <0>        -0.5601
     23 N5          3.6527    6.1848   -4.5685 N.am      1 <0>        -0.6776
     24 C16         3.7821    7.5772   -4.4764 C.ar      1 <0>         0.1208
     25 C17         3.1691    8.2644   -3.4373 C.ar      1 <0>        -0.0966
     26 C18         3.2969    9.6363   -3.3471 C.ar      1 <0>        -0.1715
     27 C19         4.0378   10.3281   -4.2944 C.ar      1 <0>         0.1096
     28 C20         4.6503    9.6419   -5.3332 C.ar      1 <0>        -0.1237
     29 C21         4.5282    8.2692   -5.4209 C.ar      1 <0>        -0.1115
     30 O4          4.1634   11.6789   -4.2051 O.3       1 <0>        -0.2586
     31 C22         3.6606   12.2948   -3.1032 C.ar      1 <0>         0.0808
     32 C23         4.3611   12.2581   -1.9060 C.ar      1 <0>        -0.1313
     33 C24         3.8477   12.8850   -0.7872 C.ar      1 <0>        -0.1047
     34 C25         2.6369   13.5487   -0.8597 C.ar      1 <0>        -0.1164
     35 C26         1.9365   13.5864   -2.0513 C.ar      1 <0>        -0.1050
     36 C27         2.4484   12.9664   -3.1746 C.ar      1 <0>        -0.1228
     37 H1         -1.9050    1.6432   -4.4457 H         1 <0>         0.0675
     38 H2         -1.3906    1.7240   -6.1478 H         1 <0>         0.0671
     39 H3         -3.1222    1.6396   -5.7444 H         1 <0>         0.1209
     40 H4          0.0737    1.1546   -4.7918 H         1 <0>         0.1728
     41 H5          0.5096   -3.7879   -4.9153 H         1 <0>         0.1743
     42 H6         -1.3739   -4.6125   -4.5827 H         1 <0>         0.0718
     43 H7         -2.5786   -4.7573   -5.8849 H         1 <0>         0.1244
     44 H8         -0.8589   -4.5315   -6.2845 H         1 <0>         0.0717
     45 H9          4.6493   -2.1919   -3.5663 H         1 <0>         0.2445
     46 H10         1.0488    2.8396   -3.0644 H         1 <0>         0.0826
     47 H11         1.7831    1.5713   -2.0488 H         1 <0>         0.0906
     48 H12         2.6219    3.9472   -1.5922 H         1 <0>         0.1138
     49 H13         3.8948    2.7556   -1.9646 H         1 <0>         0.0788
     50 H14         4.1397    4.1631   -5.5035 H         1 <0>         0.0934
     51 H15         4.8741    2.8949   -4.4879 H         1 <0>         0.0853
     52 H16         3.3096    1.7875   -5.9563 H         1 <0>         0.0906
     53 H17         2.0352    2.9792   -5.5894 H         1 <0>         0.0833
     54 H18         3.7439    5.7451   -5.4282 H         1 <0>         0.4047
     55 H19         2.5921    7.7260   -2.7000 H         1 <0>         0.1631
     56 H20         2.8198   10.1710   -2.5391 H         1 <0>         0.1317
     57 H21         5.2266   10.1809   -6.0706 H         1 <0>         0.1385
     58 H22         5.0089    7.7346   -6.2268 H         1 <0>         0.1326
     59 H23         5.3068   11.7395   -1.8487 H         1 <0>         0.1299
     60 H24         4.3924   12.8564    0.1449 H         1 <0>         0.1313
     61 H25         2.2372   14.0382    0.0161 H         1 <0>         0.1300
     62 H26         0.9908   14.1052   -2.1052 H         1 <0>         0.1325
     63 H27         1.9036   13.0006   -4.1065 H         1 <0>         0.1321
     64 H28         2.8087   -3.4412   -4.1948 H         1 <0>         0.4514
@<TRIPOS>BOND
     1    1    2 1
     2    1   37 1
     3    1   38 1
     4    1   39 1
     5    2    3 1
     6    3    8 ar
     7    3    4 ar
     8    4    5 ar
     9    4   40 1
    10    5   14 ar
    11    5    6 ar
    12    6    7 ar
    13    6   11 ar
    14    7    8 ar
    15    7   41 1
    16    8    9 1
    17    9   10 1
    18   10   42 1
    19   10   43 1
    20   10   44 1
    21   11   12 ar
    22   11   64 1
    23   12   13 ar
    24   12   45 1
    25   13   14 ar
    26   14   15 1
    27   15   20 1
    28   15   16 1
    29   16   17 1
    30   16   46 1
    31   16   47 1
    32   17   18 1
    33   17   48 1
    34   17   49 1
    35   18   19 1
    36   18   21 am
    37   19   20 1
    38   19   50 1
    39   19   51 1
    40   20   52 1
    41   20   53 1
    42   21   22 2
    43   21   23 am
    44   23   24 1
    45   23   54 1
    46   24   29 ar
    47   24   25 ar
    48   25   26 ar
    49   25   55 1
    50   26   27 ar
    51   26   56 1
    52   27   28 ar
    53   27   30 1
    54   28   29 ar
    55   28   57 1
    56   29   58 1
    57   30   31 1
    58   31   36 ar
    59   31   32 ar
    60   32   33 ar
    61   32   59 1
    62   33   34 ar
    63   33   60 1
    64   34   35 ar
    65   34   61 1
    66   35   36 ar
    67   35   62 1
    68   36   63 1
@<TRIPOS>MOLECULE
ZINC24044436
   76    80     0     0     0
SMALL
USER_CHARGES
1-[5-tert-butyl-2-(p-tolyl)pyrazol-3-yl]-3-[4-(2-morpholinoethoxy)-1-naphthyl]urea
@<TRIPOS>ATOM
      1 C1          3.3307    9.5387   -0.3298 C.3       1 <0>        -0.1193
      2 C2          2.0898    8.6848   -0.2813 C.ar      1 <0>        -0.0892
      3 C3          0.9612    9.0673   -0.9828 C.ar      1 <0>        -0.0934
      4 C4         -0.1775    8.2868   -0.9403 C.ar      1 <0>        -0.1062
      5 C5         -0.1884    7.1174   -0.1919 C.ar      1 <0>         0.1564
      6 C6          0.9444    6.7392    0.5163 C.ar      1 <0>        -0.1500
      7 C7          2.0821    7.5207    0.4649 C.ar      1 <0>        -0.0924
      8 N1         -1.3424    6.3233   -0.1469 N.pl3     1 <0>        -0.3448
      9 C8         -1.3788    4.9645   -0.0790 C.2       1 <0>         0.3309
     10 C9         -2.6878    4.5925   -0.0483 C.2       1 <0>        -0.2629
     11 C10        -3.4651    5.7529   -0.1047 C.2       1 <0>         0.1115
     12 N2         -2.6643    6.7861   -0.1672 N.2       1 <0>        -0.2779
     13 C11        -4.9712    5.8052   -0.0954 C.3       1 <0>         0.0134
     14 C12        -5.4824    5.5257    1.3193 C.3       1 <0>        -0.1388
     15 C13        -5.4360    7.1933   -0.5406 C.3       1 <0>        -0.1390
     16 C14        -5.5242    4.7499   -1.0553 C.3       1 <0>        -0.1399
     17 N3         -0.2771    4.1104   -0.0417 N.am      1 <0>        -0.6731
     18 C15        -0.4603    2.7771    0.0314 C.2       1 <0>         0.7165
     19 O1         -1.5862    2.3190    0.0649 O.2       1 <0>        -0.5445
     20 N4          0.6045    1.9516    0.0675 N.am      1 <0>        -0.6819
     21 C16         0.4162    0.5655    0.0407 C.ar      1 <0>         0.1254
     22 C17        -0.6813    0.0024    0.6542 C.ar      1 <0>        -0.0743
     23 C18        -0.8835   -1.3742    0.6299 C.ar      1 <0>        -0.2061
     24 C19         0.0048   -2.2051    0.0082 C.ar      1 <0>         0.1395
     25 C20         1.1426   -1.6672   -0.6254 C.ar      1 <0>        -0.0565
     26 C21         1.3517   -0.2661   -0.6096 C.ar      1 <0>        -0.0251
     27 C22         2.4862    0.2686   -1.2409 C.ar      1 <0>        -0.1232
     28 C23         3.3687   -0.5639   -1.8588 C.ar      1 <0>        -0.0971
     29 C24         3.1636   -1.9422   -1.8742 C.ar      1 <0>        -0.1313
     30 C25         2.0750   -2.4951   -1.2724 C.ar      1 <0>        -0.0739
     31 O2         -0.2080   -3.5475    0.0012 O.3       1 <0>        -0.2916
     32 C26        -1.3823   -4.0216    0.6634 C.3       1 <0>         0.0605
     33 C27        -1.4510   -5.5459    0.5508 C.3       1 <0>         0.0539
     34 N5         -0.3065   -6.1409    1.2538 N.3       1 <0>        -0.5287
     35 C28        -0.1978   -7.5776    0.9617 C.3       1 <0>         0.0167
     36 C29         1.0390   -8.1436    1.6645 C.3       1 <0>         0.0615
     37 O3          0.9456   -7.8818    3.0674 O.3       1 <0>        -0.3849
     38 C30         0.8389   -6.4921    3.3879 C.3       1 <0>         0.0625
     39 C31        -0.3999   -5.9094    2.7026 C.3       1 <0>         0.0120
     40 H1          3.1476   10.4156   -0.9682 H         1 <0>         0.0687
     41 H2          4.1639    8.9515   -0.7434 H         1 <0>         0.0732
     42 H3          3.5863    9.8722    0.6868 H         1 <0>         0.0734
     43 H4          0.9703    9.9770   -1.5648 H         1 <0>         0.1335
     44 H5         -1.0587    8.5861   -1.4884 H         1 <0>         0.1355
     45 H6          0.9374    5.8324    1.1029 H         1 <0>         0.1262
     46 H7          2.9651    7.2245    1.0118 H         1 <0>         0.1343
     47 H8         -3.0598    3.5802    0.0092 H         1 <0>         0.1784
     48 H9         -6.5817    5.5639    1.3261 H         1 <0>         0.0656
     49 H10        -5.0849    6.2845    2.0094 H         1 <0>         0.0565
     50 H11        -5.1481    4.5278    1.6395 H         1 <0>         0.0614
     51 H12        -6.5353    7.2315   -0.5338 H         1 <0>         0.0604
     52 H13        -5.0684    7.3943   -1.5577 H         1 <0>         0.0568
     53 H14        -5.0385    7.9519    0.1496 H         1 <0>         0.0614
     54 H15        -6.6235    4.7882   -1.0484 H         1 <0>         0.0647
     55 H16        -5.1900    3.7520   -0.7351 H         1 <0>         0.0637
     56 H17        -5.1566    4.9509   -2.0724 H         1 <0>         0.0570
     57 H18         0.7414    4.5248   -0.0719 H         1 <0>         0.4294
     58 H19         1.6215    2.3677    0.1180 H         1 <0>         0.4280
     59 H20        -1.3959    0.6376    1.1566 H         1 <0>         0.1450
     60 H21        -1.7537   -1.7925    1.1139 H         1 <0>         0.1296
     61 H22         2.6580    1.3348   -1.2361 H         1 <0>         0.1222
     62 H23         4.2405   -0.1501   -2.3437 H         1 <0>         0.1243
     63 H24         3.8790   -2.5810   -2.3706 H         1 <0>         0.1250
     64 H25         1.9286   -3.5650   -1.2926 H         1 <0>         0.1353
     65 H26        -1.3465   -3.7335    1.7244 H         1 <0>         0.0659
     66 H27        -2.2726   -3.5787    0.1931 H         1 <0>         0.0716
     67 H28        -2.3868   -5.9052    1.0039 H         1 <0>         0.0605
     68 H29        -1.4216   -5.8370   -0.5096 H         1 <0>         0.0912
     69 H30        -1.0977   -8.0949    1.3258 H         1 <0>         0.0437
     70 H31        -0.1044   -7.7249   -0.1244 H         1 <0>         0.0891
     71 H32         1.0925   -9.2291    1.4949 H         1 <0>         0.1001
     72 H33         1.9424   -7.6643    1.2595 H         1 <0>         0.0618
     73 H34         0.7475   -6.3731    4.4776 H         1 <0>         0.0994
     74 H35         1.7375   -5.9645    3.0355 H         1 <0>         0.0616
     75 H36        -0.4553   -4.8284    2.8983 H         1 <0>         0.0869
     76 H37        -1.3031   -6.3997    3.0948 H         1 <0>         0.0443
@<TRIPOS>BOND
     1    1    2 1
     2    1   40 1
     3    1   41 1
     4    1   42 1
     5    2    7 ar
     6    2    3 ar
     7    3    4 ar
     8    3   43 1
     9    4    5 ar
    10    4   44 1
    11    5    6 ar
    12    5    8 1
    13    6    7 ar
    14    6   45 1
    15    7   46 1
    16    8   12 1
    17    8    9 1
    18    9   10 2
    19    9   17 1
    20   10   11 1
    21   10   47 1
    22   11   12 2
    23   11   13 1
    24   13   14 1
    25   13   15 1
    26   13   16 1
    27   14   48 1
    28   14   49 1
    29   14   50 1
    30   15   51 1
    31   15   52 1
    32   15   53 1
    33   16   54 1
    34   16   55 1
    35   16   56 1
    36   17   18 am
    37   17   57 1
    38   18   19 2
    39   18   20 am
    40   20   21 1
    41   20   58 1
    42   21   26 ar
    43   21   22 ar
    44   22   23 ar
    45   22   59 1
    46   23   24 ar
    47   23   60 1
    48   24   25 ar
    49   24   31 1
    50   25   30 ar
    51   25   26 ar
    52   26   27 ar
    53   27   28 ar
    54   27   61 1
    55   28   29 ar
    56   28   62 1
    57   29   30 ar
    58   29   63 1
    59   30   64 1
    60   31   32 1
    61   32   33 1
    62   32   65 1
    63   32   66 1
    64   33   34 1
    65   33   67 1
    66   33   68 1
    67   34   39 1
    68   34   35 1
    69   35   36 1
    70   35   69 1
    71   35   70 1
    72   36   37 1
    73   36   71 1
    74   36   72 1
    75   37   38 1
    76   38   39 1
    77   38   73 1
    78   38   74 1
    79   39   75 1
    80   39   76 1
@<TRIPOS>MOLECULE
ZINC49018631
   72    76     0     0     0
SMALL
USER_CHARGES

@<TRIPOS>ATOM
      1 C1         -0.1643    1.5374    0.2772 C.3       1 <0>        -0.1165
      2 C2          0.0708    0.1281   -0.2021 C.ar      1 <0>        -0.1229
      3 C3         -0.6192   -0.3521   -1.2987 C.ar      1 <0>        -0.0806
      4 C4         -0.4070   -1.6434   -1.7410 C.ar      1 <0>        -0.1295
      5 C5          0.5017   -2.4641   -1.0837 C.ar      1 <0>         0.1503
      6 C6          1.1965   -1.9850    0.0175 C.ar      1 <0>        -0.1394
      7 C7          0.9852   -0.6852    0.4558 C.ar      1 <0>         0.1829
      8 N1          1.6874   -0.1967    1.5617 N.pl3     1 <0>        -0.6315
      9 C8          2.1285   -1.0695    2.5429 C.ar      1 <0>         0.5659
     10 N2          1.7764   -2.3456    2.4776 N.ar      1 <0>        -0.5584
     11 C9          2.1776   -3.2107    3.3953 C.ar      1 <0>         0.1909
     12 C10         2.9764   -2.7714    4.4364 C.ar      1 <0>        -0.2716
     13 C11         3.3313   -1.4207    4.4789 C.ar      1 <0>         0.2720
     14 N3          2.8950   -0.6087    3.5185 N.ar      1 <0>        -0.5583
     15 C12         4.1856   -0.9008    5.5740 C.ar      1 <0>        -0.1283
     16 C13         4.4510    0.4679    5.6793 C.ar      1 <0>        -0.0220
     17 C14         5.2541    0.9026    6.7193 C.ar      1 <0>        -0.1784
     18 C15         5.7636   -0.0222    7.6129 C.ar      1 <0>         0.1493
     19 N4          5.4957   -1.3077    7.4879 N.ar      1 <0>        -0.4856
     20 C16         4.7320   -1.7677    6.5181 C.ar      1 <0>         0.1407
     21 C17         6.6390    0.4462    8.7466 C.3       1 <0>        -0.1113
     22 N5          0.7153   -3.7716   -1.5315 N.am      1 <0>        -0.6649
     23 C18         0.7404   -4.0356   -2.8529 C.2       1 <0>         0.5544
     24 O1          0.4912   -3.1555   -3.6535 O.2       1 <0>        -0.5087
     25 C19         1.0709   -5.3955   -3.3287 C.ar      1 <0>        -0.1216
     26 C20         1.3519   -6.4100   -2.4119 C.ar      1 <0>        -0.0842
     27 C21         1.6592   -7.6771   -2.8626 C.ar      1 <0>        -0.1244
     28 C22         1.6892   -7.9435   -4.2200 C.ar      1 <0>        -0.0693
     29 C23         1.4117   -6.9425   -5.1341 C.ar      1 <0>        -0.0993
     30 C24         1.0978   -5.6724   -4.6966 C.ar      1 <0>        -0.0536
     31 C25         2.0262   -9.3299   -4.7050 C.3       1 <0>         0.0939
     32 N6          0.7933  -10.1196   -4.8258 N.3       1 <0>        -0.5345
     33 C26         0.1866  -10.3538   -3.5078 C.3       1 <0>         0.0185
     34 C27        -1.1228  -11.1262   -3.6823 C.3       1 <0>        -0.0025
     35 N7         -0.8513  -12.4061   -4.3498 N.4       1 <0>        -0.3884
     36 C28        -0.2685  -12.1554   -5.6746 C.3       1 <0>        -0.0024
     37 C29         1.0481  -11.3916   -5.5166 C.3       1 <0>         0.0250
     38 C30        -2.1059  -13.1551   -4.5009 C.3       1 <0>        -0.0460
     39 H1          0.5251    2.2130   -0.2290 H         1 <0>         0.0728
     40 H2         -1.1901    1.8307    0.0540 H         1 <0>         0.0742
     41 H3          0.0021    1.5877    1.3533 H         1 <0>         0.0627
     42 H4         -1.3262    0.2836   -1.8111 H         1 <0>         0.1320
     43 H5         -0.9481   -2.0158   -2.5982 H         1 <0>         0.1349
     44 H6          1.9030   -2.6209    0.5302 H         1 <0>         0.1480
     45 H7          1.8658    0.7534    1.6418 H         1 <0>         0.4259
     46 H8          1.8844   -4.2483    3.3325 H         1 <0>         0.1730
     47 H9          3.3172   -3.4566    5.1985 H         1 <0>         0.1502
     48 H10         4.0401    1.1680    4.9670 H         1 <0>         0.1469
     49 H11         5.4807    1.9525    6.8318 H         1 <0>         0.1428
     50 H12         4.5316   -2.8268    6.4514 H         1 <0>         0.1621
     51 H13         6.0192    0.6749    9.6136 H         1 <0>         0.0845
     52 H14         7.3498   -0.3387    9.0050 H         1 <0>         0.0815
     53 H15         7.1811    1.3412    8.4412 H         1 <0>         0.0795
     54 H16         0.8453   -4.4884   -0.8911 H         1 <0>         0.4084
     55 H17         1.3291   -6.2032   -1.3521 H         1 <0>         0.1294
     56 H18         1.8771   -8.4627   -2.1544 H         1 <0>         0.1264
     57 H19         1.4372   -7.1570   -6.1922 H         1 <0>         0.1339
     58 H20         0.8770   -4.8931   -5.4110 H         1 <0>         0.1424
     59 H21         2.5135   -9.2661   -5.6779 H         1 <0>         0.1007
     60 H22         2.6973   -9.8107   -3.9933 H         1 <0>         0.0595
     61 H23         0.8718  -10.9344   -2.8900 H         1 <0>         0.0618
     62 H24        -0.0167   -9.3975   -3.0259 H         1 <0>         0.1264
     63 H25        -1.5673  -11.3133   -2.7048 H         1 <0>         0.1359
     64 H26        -1.8127  -10.5393   -4.2887 H         1 <0>         0.1378
     65 H27        -0.0795  -13.1056   -6.1741 H         1 <0>         0.1367
     66 H28        -0.9627  -11.5633   -6.2708 H         1 <0>         0.1381
     67 H29         1.4733  -11.1924   -6.5003 H         1 <0>         0.1252
     68 H30         1.7474  -11.9892   -4.9320 H         1 <0>         0.0621
     69 H31        -2.8061  -12.5737   -5.1008 H         1 <0>         0.1233
     70 H32        -1.9046  -14.1049   -4.9963 H         1 <0>         0.1245
     71 H33        -2.5379  -13.3423   -3.5179 H         1 <0>         0.1243
     72 H34        -0.2036  -12.9443   -3.7940 H         1 <0>         0.4223
@<TRIPOS>BOND
     1    1    2 1
     2    1   39 1
     3    1   40 1
     4    1   41 1
     5    2    7 ar
     6    2    3 ar
     7    3    4 ar
     8    3   42 1
     9    4    5 ar
    10    4   43 1
    11    5    6 ar
    12    5   22 1
    13    6    7 ar
    14    6   44 1
    15    7    8 1
    16    8    9 1
    17    8   45 1
    18    9   14 ar
    19    9   10 ar
    20   10   11 ar
    21   11   12 ar
    22   11   46 1
    23   12   13 ar
    24   12   47 1
    25   13   14 ar
    26   13   15 1
    27   15   20 ar
    28   15   16 ar
    29   16   17 ar
    30   16   48 1
    31   17   18 ar
    32   17   49 1
    33   18   19 ar
    34   18   21 1
    35   19   20 ar
    36   20   50 1
    37   21   51 1
    38   21   52 1
    39   21   53 1
    40   22   23 am
    41   22   54 1
    42   23   24 2
    43   23   25 1
    44   25   30 ar
    45   25   26 ar
    46   26   27 ar
    47   26   55 1
    48   27   28 ar
    49   27   56 1
    50   28   29 ar
    51   28   31 1
    52   29   30 ar
    53   29   57 1
    54   30   58 1
    55   31   32 1
    56   31   59 1
    57   31   60 1
    58   32   37 1
    59   32   33 1
    60   33   34 1
    61   33   61 1
    62   33   62 1
    63   34   35 1
    64   34   63 1
    65   34   64 1
    66   35   36 1
    67   35   38 1
    68   35   72 1
    69   36   37 1
    70   36   65 1
    71   36   66 1
    72   37   67 1
    73   37   68 1
    74   38   69 1
    75   38   70 1
    76   38   71 1
@<TRIPOS>MOLECULE
ZINC49018631
   72    76     0     0     0
SMALL
USER_CHARGES

@<TRIPOS>ATOM
      1 C1         -0.1643    1.5374    0.2772 C.3       1 <0>        -0.1179
      2 C2          0.0708    0.1281   -0.2021 C.ar      1 <0>        -0.1197
      3 C3         -0.6192   -0.3521   -1.2987 C.ar      1 <0>        -0.0804
      4 C4         -0.4070   -1.6434   -1.7410 C.ar      1 <0>        -0.1288
      5 C5          0.5017   -2.4641   -1.0837 C.ar      1 <0>         0.1451
      6 C6          1.1965   -1.9850    0.0175 C.ar      1 <0>        -0.1374
      7 C7          0.9852   -0.6852    0.4558 C.ar      1 <0>         0.1842
      8 N1          1.6874   -0.1967    1.5617 N.pl3     1 <0>        -0.6319
      9 C8          2.1285   -1.0695    2.5429 C.ar      1 <0>         0.5654
     10 N2          1.7764   -2.3456    2.4776 N.ar      1 <0>        -0.5598
     11 C9          2.1776   -3.2107    3.3953 C.ar      1 <0>         0.1905
     12 C10         2.9764   -2.7714    4.4364 C.ar      1 <0>        -0.2706
     13 C11         3.3313   -1.4207    4.4789 C.ar      1 <0>         0.2731
     14 N3          2.8950   -0.6087    3.5185 N.ar      1 <0>        -0.5577
     15 C12         4.1856   -0.9008    5.5740 C.ar      1 <0>        -0.1297
     16 C13         4.4510    0.4679    5.6793 C.ar      1 <0>        -0.0218
     17 C14         5.2541    0.9026    6.7193 C.ar      1 <0>        -0.1785
     18 C15         5.7636   -0.0222    7.6129 C.ar      1 <0>         0.1503
     19 N4          5.4957   -1.3077    7.4879 N.ar      1 <0>        -0.4855
     20 C16         4.7320   -1.7677    6.5181 C.ar      1 <0>         0.1413
     21 C17         6.6390    0.4462    8.7466 C.3       1 <0>        -0.1117
     22 N5          0.7153   -3.7716   -1.5315 N.am      1 <0>        -0.6603
     23 C18         0.7404   -4.0356   -2.8529 C.2       1 <0>         0.5491
     24 O1          0.4912   -3.1555   -3.6535 O.2       1 <0>        -0.5015
     25 C19         1.0709   -5.3955   -3.3287 C.ar      1 <0>        -0.0937
     26 C20         1.3519   -6.4100   -2.4119 C.ar      1 <0>        -0.0834
     27 C21         1.6592   -7.6771   -2.8626 C.ar      1 <0>        -0.1009
     28 C22         1.6892   -7.9435   -4.2200 C.ar      1 <0>        -0.1382
     29 C23         1.4117   -6.9425   -5.1341 C.ar      1 <0>        -0.0966
     30 C24         1.0978   -5.6724   -4.6966 C.ar      1 <0>        -0.0538
     31 C25         2.0262   -9.3299   -4.7050 C.3       1 <0>         0.0425
     32 N6          0.7933  -10.1196   -4.8258 N.4       1 <0>        -0.3856
     33 C26         0.1989  -10.3052   -3.4955 C.3       1 <0>        -0.0078
     34 C27        -1.0954  -11.1117   -3.6230 C.3       1 <0>         0.0256
     35 N7         -0.7986  -12.4159   -4.2323 N.3       1 <0>        -0.5431
     36 C28        -0.1799  -12.2456   -5.5546 C.3       1 <0>         0.0239
     37 C29         1.1068  -11.4297   -5.4112 C.3       1 <0>        -0.0024
     38 C30        -2.0090  -13.2436   -4.3201 C.3       1 <0>         0.0192
     39 H1          0.5251    2.2130   -0.2290 H         1 <0>         0.0737
     40 H2         -1.1901    1.8307    0.0540 H         1 <0>         0.0751
     41 H3          0.0021    1.5877    1.3533 H         1 <0>         0.0636
     42 H4         -1.3262    0.2836   -1.8111 H         1 <0>         0.1330
     43 H5         -0.9481   -2.0158   -2.5982 H         1 <0>         0.1344
     44 H6          1.9030   -2.6209    0.5302 H         1 <0>         0.1488
     45 H7          1.8658    0.7534    1.6418 H         1 <0>         0.4264
     46 H8          1.8844   -4.2483    3.3325 H         1 <0>         0.1733
     47 H9          3.3172   -3.4566    5.1985 H         1 <0>         0.1508
     48 H10         4.0401    1.1680    4.9670 H         1 <0>         0.1468
     49 H11         5.4807    1.9525    6.8318 H         1 <0>         0.1430
     50 H12         4.5316   -2.8268    6.4514 H         1 <0>         0.1622
     51 H13         6.0192    0.6749    9.6136 H         1 <0>         0.0848
     52 H14         7.3498   -0.3387    9.0050 H         1 <0>         0.0818
     53 H15         7.1811    1.3412    8.4412 H         1 <0>         0.0797
     54 H16         0.8453   -4.4884   -0.8911 H         1 <0>         0.4091
     55 H17         1.3291   -6.2032   -1.3521 H         1 <0>         0.1399
     56 H18         1.8771   -8.4627   -2.1544 H         1 <0>         0.1405
     57 H19         1.4372   -7.1570   -6.1922 H         1 <0>         0.1409
     58 H20         0.8770   -4.8931   -5.4110 H         1 <0>         0.1513
     59 H21         2.5135   -9.2661   -5.6779 H         1 <0>         0.1411
     60 H22         2.6973   -9.8107   -3.9933 H         1 <0>         0.1402
     61 H23         0.8998  -10.8418   -2.8560 H         1 <0>         0.1385
     62 H24        -0.0212   -9.3320   -3.0568 H         1 <0>         0.1351
     63 H25        -1.5289  -11.2624   -2.6343 H         1 <0>         0.1235
     64 H26        -1.8016  -10.5690   -4.2513 H         1 <0>         0.0601
     65 H27         0.0544  -13.2235   -5.9751 H         1 <0>         0.1247
     66 H28        -0.8711  -11.7216   -6.2147 H         1 <0>         0.0606
     67 H29         1.5598  -11.2902   -6.3927 H         1 <0>         0.1372
     68 H30         1.8030  -11.9606   -4.7619 H         1 <0>         0.1392
     69 H31        -2.7542  -12.7340   -4.9308 H         1 <0>         0.0396
     70 H32        -1.7610  -14.2028   -4.7745 H         1 <0>         0.0842
     71 H33        -2.4099  -13.4082   -3.3199 H         1 <0>         0.0844
     72 H34         0.1396   -9.6332   -5.4209 H         1 <0>         0.4207
@<TRIPOS>BOND
     1    1    2 1
     2    1   39 1
     3    1   40 1
     4    1   41 1
     5    2    7 ar
     6    2    3 ar
     7    3    4 ar
     8    3   42 1
     9    4    5 ar
    10    4   43 1
    11    5    6 ar
    12    5   22 1
    13    6    7 ar
    14    6   44 1
    15    7    8 1
    16    8    9 1
    17    8   45 1
    18    9   14 ar
    19    9   10 ar
    20   10   11 ar
    21   11   12 ar
    22   11   46 1
    23   12   13 ar
    24   12   47 1
    25   13   14 ar
    26   13   15 1
    27   15   20 ar
    28   15   16 ar
    29   16   17 ar
    30   16   48 1
    31   17   18 ar
    32   17   49 1
    33   18   19 ar
    34   18   21 1
    35   19   20 ar
    36   20   50 1
    37   21   51 1
    38   21   52 1
    39   21   53 1
    40   22   23 am
    41   22   54 1
    42   23   24 2
    43   23   25 1
    44   25   30 ar
    45   25   26 ar
    46   26   27 ar
    47   26   55 1
    48   27   28 ar
    49   27   56 1
    50   28   29 ar
    51   28   31 1
    52   29   30 ar
    53   29   57 1
    54   30   58 1
    55   31   32 1
    56   31   59 1
    57   31   60 1
    58   32   37 1
    59   32   33 1
    60   32   72 1
    61   33   34 1
    62   33   61 1
    63   33   62 1
    64   34   35 1
    65   34   63 1
    66   34   64 1
    67   35   36 1
    68   35   38 1
    69   36   37 1
    70   36   65 1
    71   36   66 1
    72   37   67 1
    73   37   68 1
    74   38   69 1
    75   38   70 1
    76   38   71 1
@<TRIPOS>MOLECULE
ZINC49018631
   71    75     0     0     0
SMALL
USER_CHARGES

@<TRIPOS>ATOM
      1 C1         -0.2700    1.5370    0.1691 C.3       1 <0>        -0.1139
      2 C2          0.1690    0.1287   -0.1390 C.ar      1 <0>        -0.1278
      3 C3          0.1183   -0.3415   -1.4374 C.ar      1 <0>        -0.0809
      4 C4          0.5194   -1.6319   -1.7240 C.ar      1 <0>        -0.1297
      5 C5          0.9753   -2.4616   -0.7067 C.ar      1 <0>         0.1575
      6 C6          1.0279   -1.9925    0.5979 C.ar      1 <0>        -0.1409
      7 C7          0.6296   -0.6936    0.8817 C.ar      1 <0>         0.1809
      8 N1          0.6863   -0.2151    2.1941 N.pl3     1 <0>        -0.6312
      9 C8          0.5751   -1.0957    3.2579 C.ar      1 <0>         0.5658
     10 N2          0.2991   -2.3692    3.0157 N.ar      1 <0>        -0.5555
     11 C9          0.1851   -3.2414    4.0045 C.ar      1 <0>         0.1928
     12 C10         0.3577   -2.8124    5.3088 C.ar      1 <0>        -0.2717
     13 C11         0.6479   -1.4642    5.5332 C.ar      1 <0>         0.2683
     14 N3          0.7526   -0.6447    4.4895 N.ar      1 <0>        -0.5597
     15 C12         0.8418   -0.9552    6.9126 C.ar      1 <0>        -0.1241
     16 C13         1.0230    0.4112    7.1468 C.ar      1 <0>        -0.0232
     17 C14         1.1999    0.8356    8.4522 C.ar      1 <0>        -0.1789
     18 C15         1.1917   -0.0969    9.4738 C.ar      1 <0>         0.1463
     19 N4          1.0184   -1.3800    9.2221 N.ar      1 <0>        -0.4856
     20 C16         0.8405   -1.8303    7.9969 C.ar      1 <0>         0.1400
     21 C17         1.3844    0.3603   10.8968 C.3       1 <0>        -0.1100
     22 N5          1.3803   -3.7682   -0.9976 N.am      1 <0>        -0.6684
     23 C18         2.0619   -4.0258   -2.1314 C.2       1 <0>         0.5607
     24 O1          2.2489   -3.1400   -2.9427 O.2       1 <0>        -0.5149
     25 C19         2.5819   -5.3853   -2.3884 C.ar      1 <0>        -0.1367
     26 C20         2.3639   -6.4061   -1.4616 C.ar      1 <0>        -0.0845
     27 C21         2.8516   -7.6729   -1.7078 C.ar      1 <0>        -0.1214
     28 C22         3.5554   -7.9326   -2.8703 C.ar      1 <0>        -0.0482
     29 C23         3.7751   -6.9254   -3.7931 C.ar      1 <0>        -0.1045
     30 C24         3.2883   -5.6555   -3.5617 C.ar      1 <0>        -0.0549
     31 C25         4.0856   -9.3187   -3.1324 C.3       1 <0>         0.0888
     32 N6          3.0760  -10.0999   -3.8592 N.3       1 <0>        -0.5347
     33 C26         1.8900  -10.3348   -3.0238 C.3       1 <0>         0.0528
     34 C27         0.8329  -11.0807   -3.8414 C.3       1 <0>         0.0560
     35 N7          1.3951  -12.3507   -4.3218 N.3       1 <0>        -0.5466
     36 C28         2.5810  -12.1157   -5.1573 C.3       1 <0>         0.0557
     37 C29         3.6381  -11.3699   -4.3397 C.3       1 <0>         0.0570
     38 C30         0.3854  -13.1319   -5.0487 C.3       1 <0>         0.0243
     39 H1          0.5822    2.2109    0.0804 H         1 <0>         0.0707
     40 H2         -1.0459    1.8380   -0.5348 H         1 <0>         0.0727
     41 H3         -0.6637    1.5809    1.1846 H         1 <0>         0.0612
     42 H4         -0.2359    0.3012   -2.2297 H         1 <0>         0.1305
     43 H5          0.4782   -1.9965   -2.7397 H         1 <0>         0.1360
     44 H6          1.3815   -2.6355    1.3904 H         1 <0>         0.1478
     45 H7          0.8036    0.7334    2.3599 H         1 <0>         0.4246
     46 H8         -0.0404   -4.2767    3.7957 H         1 <0>         0.1746
     47 H9          0.2698   -3.5035    6.1341 H         1 <0>         0.1499
     48 H10         1.0254    1.1175    6.3297 H         1 <0>         0.1468
     49 H11         1.3431    1.8835    8.6708 H         1 <0>         0.1416
     50 H12         0.6971   -2.8878    7.8310 H         1 <0>         0.1629
     51 H13         0.4148    0.5885   11.3395 H         1 <0>         0.0833
     52 H14         1.8685   -0.4304   11.4701 H         1 <0>         0.0809
     53 H15         2.0092    1.2533   10.9101 H         1 <0>         0.0785
     54 H16         1.1706   -4.4891   -0.3833 H         1 <0>         0.4098
     55 H17         1.8149   -6.2045   -0.5536 H         1 <0>         0.1257
     56 H18         2.6839   -8.4635   -0.9914 H         1 <0>         0.1277
     57 H19         4.3256   -7.1347   -4.6984 H         1 <0>         0.1323
     58 H20         3.4565   -4.8712   -4.2849 H         1 <0>         0.1381
     59 H21         4.9943   -9.2531   -3.7308 H         1 <0>         0.0885
     60 H22         4.3096   -9.8073   -2.1841 H         1 <0>         0.0489
     61 H23         2.1688  -10.9340   -2.1569 H         1 <0>         0.0436
     62 H24         1.4848   -9.3794   -2.6907 H         1 <0>         0.0840
     63 H25        -0.0363  -11.2816   -3.2151 H         1 <0>         0.0799
     64 H26         0.5343  -10.4698   -4.6933 H         1 <0>         0.0432
     65 H27         2.9863  -13.0712   -5.4904 H         1 <0>         0.0811
     66 H28         2.3022  -11.5166   -6.0242 H         1 <0>         0.0437
     67 H29         4.5073  -11.1690   -4.9660 H         1 <0>         0.0821
     68 H30         3.9367  -11.9808   -3.4878 H         1 <0>         0.0449
     69 H31         0.0315  -12.5597   -5.9063 H         1 <0>         0.0272
     70 H32         0.8279  -14.0665   -5.3931 H         1 <0>         0.0693
     71 H33        -0.4523  -13.3490   -4.3860 H         1 <0>         0.0693
@<TRIPOS>BOND
     1    1    2 1
     2    1   39 1
     3    1   40 1
     4    1   41 1
     5    2    7 ar
     6    2    3 ar
     7    3    4 ar
     8    3   42 1
     9    4    5 ar
    10    4   43 1
    11    5    6 ar
    12    5   22 1
    13    6    7 ar
    14    6   44 1
    15    7    8 1
    16    8    9 1
    17    8   45 1
    18    9   14 ar
    19    9   10 ar
    20   10   11 ar
    21   11   12 ar
    22   11   46 1
    23   12   13 ar
    24   12   47 1
    25   13   14 ar
    26   13   15 1
    27   15   20 ar
    28   15   16 ar
    29   16   17 ar
    30   16   48 1
    31   17   18 ar
    32   17   49 1
    33   18   19 ar
    34   18   21 1
    35   19   20 ar
    36   20   50 1
    37   21   51 1
    38   21   52 1
    39   21   53 1
    40   22   23 am
    41   22   54 1
    42   23   24 2
    43   23   25 1
    44   25   30 ar
    45   25   26 ar
    46   26   27 ar
    47   26   55 1
    48   27   28 ar
    49   27   56 1
    50   28   29 ar
    51   28   31 1
    52   29   30 ar
    53   29   57 1
    54   30   58 1
    55   31   32 1
    56   31   59 1
    57   31   60 1
    58   32   37 1
    59   32   33 1
    60   33   34 1
    61   33   61 1
    62   33   62 1
    63   34   35 1
    64   34   63 1
    65   34   64 1
    66   35   36 1
    67   35   38 1
    68   36   37 1
    69   36   65 1
    70   36   66 1
    71   37   67 1
    72   37   68 1
    73   38   69 1
    74   38   70 1
    75   38   71 1
@<TRIPOS>MOLECULE
ZINC49113058
   62    66     0     0     0
SMALL
USER_CHARGES

@<TRIPOS>ATOM
      1 C1          0.0280    1.1038   -0.0577 C.3       1 <0>         0.0862
      2 N1          0.7835   -0.1512   -0.0345 N.pl3     1 <0>        -0.2368
      3 C2          1.2848   -0.7741   -1.1183 C.2       1 <0>         0.0233
      4 C3          1.9409   -1.9003   -0.6679 C.2       1 <0>        -0.1001
      5 C4          1.7732   -1.9052    0.7170 C.2       1 <0>        -0.0127
      6 N2          1.0739   -0.8239    1.0284 N.2       1 <0>        -0.2422
      7 C5          2.2840   -2.9218    1.6595 C.2       1 <0>         0.6112
      8 O1          2.9205   -3.8706    1.2439 O.2       1 <0>        -0.5290
      9 N3          2.0445   -2.7974    2.9799 N.am      1 <0>        -0.8394
     10 C6          2.6653   -2.8356   -1.5916 C.3       1 <0>        -0.0520
     11 C7          1.9706   -2.8582   -2.9533 C.3       1 <0>        -0.0643
     12 C8          1.6241   -1.4832   -3.4453 C.ar      1 <0>        -0.2117
     13 C9          1.2621   -0.4598   -2.5570 C.ar      1 <0>         0.2994
     14 N4          0.9247    0.7321   -3.0254 N.ar      1 <0>        -0.5525
     15 C10         0.9505    0.9653   -4.3312 C.ar      1 <0>         0.5639
     16 N5          1.3106    0.0280   -5.1962 N.ar      1 <0>        -0.5606
     17 C11         1.6470   -1.1890   -4.7955 C.ar      1 <0>         0.1918
     18 N6          0.5923    2.2177   -4.8015 N.pl3     1 <0>        -0.6275
     19 C12         0.6747    2.5016   -6.1704 C.ar      1 <0>         0.1841
     20 C13         0.4057    1.5105   -7.1026 C.ar      1 <0>        -0.1464
     21 C14         0.4877    1.7952   -8.4585 C.ar      1 <0>         0.1793
     22 C15         0.8392    3.0707   -8.8806 C.ar      1 <0>        -0.1627
     23 C16         1.1079    4.0588   -7.9520 C.ar      1 <0>        -0.1427
     24 C17         1.0213    3.7812   -6.5979 C.ar      1 <0>         0.0684
     25 O2          1.2802    4.7569   -5.6851 O.3       1 <0>        -0.3185
     26 C18         1.6295    6.0455   -6.1944 C.3       1 <0>         0.0285
     27 N7          0.2167    0.7966   -9.4005 N.pl3     1 <0>        -0.6423
     28 C19        -0.2961   -0.5176   -8.9834 C.3       1 <0>         0.1029
     29 C20        -1.5309   -0.8477   -9.8284 C.3       1 <0>        -0.0239
     30 N8         -1.1869   -0.7557  -11.2529 N.4       1 <0>        -0.3833
     31 C21        -0.8335    0.6282  -11.5936 C.3       1 <0>        -0.0233
     32 C22         0.4306    1.0333  -10.8366 C.3       1 <0>         0.1008
     33 C23        -2.3384   -1.1783  -12.0612 C.3       1 <0>        -0.0471
     34 H1          0.7164    1.9440    0.0325 H         1 <0>         0.0931
     35 H2         -0.5188    1.1813   -0.9975 H         1 <0>         0.1027
     36 H3         -0.6758    1.1196    0.7745 H         1 <0>         0.1007
     37 H4          1.5366   -2.0404    3.3115 H         1 <0>         0.4084
     38 H5          2.3799   -3.4648    3.5987 H         1 <0>         0.4099
     39 H6          3.6943   -2.4981   -1.7152 H         1 <0>         0.0842
     40 H7          2.6624   -3.8392   -1.1664 H         1 <0>         0.1050
     41 H8          2.6303   -3.3359   -3.6777 H         1 <0>         0.0890
     42 H9          1.0554   -3.4447   -2.8724 H         1 <0>         0.0825
     43 H10         1.9357   -1.9413   -5.5145 H         1 <0>         0.1753
     44 H11         0.2844    2.8983   -4.1827 H         1 <0>         0.4299
     45 H12         0.1331    0.5186   -6.7738 H         1 <0>         0.1534
     46 H13         0.9030    3.2909   -9.9360 H         1 <0>         0.1260
     47 H14         1.3813    5.0499   -8.2828 H         1 <0>         0.1376
     48 H15         2.5320    5.9643   -6.8003 H         1 <0>         0.0569
     49 H16         0.8133    6.4273   -6.8077 H         1 <0>         0.0569
     50 H17         1.8098    6.7278   -5.3637 H         1 <0>         0.1039
     51 H18         0.4698   -1.2768   -9.1419 H         1 <0>         0.0875
     52 H19        -0.5715   -0.4856   -7.9292 H         1 <0>         0.1246
     53 H20        -1.8676   -1.8590   -9.6004 H         1 <0>         0.1398
     54 H21        -2.3274   -0.1393   -9.6003 H         1 <0>         0.1315
     55 H22        -0.6562    0.7044  -12.6664 H         1 <0>         0.1404
     56 H23        -1.6510    1.2919  -11.3121 H         1 <0>         0.1317
     57 H24         0.6353    2.0903  -11.0071 H         1 <0>         0.1260
     58 H25         1.2711    0.4335  -11.1855 H         1 <0>         0.0867
     59 H26        -3.1886   -0.5298  -11.8494 H         1 <0>         0.1211
     60 H27        -2.0843   -1.1104  -13.1190 H         1 <0>         0.1249
     61 H28        -2.5968   -2.2082  -11.8149 H         1 <0>         0.1248
     62 H29        -0.4025   -1.3596  -11.4479 H         1 <0>         0.4247
@<TRIPOS>BOND
     1    1    2 1
     2    1   34 1
     3    1   35 1
     4    1   36 1
     5    2    6 1
     6    2    3 1
     7    3   13 1
     8    3    4 2
     9    4    5 1
    10    4   10 1
    11    5    6 2
    12    5    7 1
    13    7    8 2
    14    7    9 am
    15    9   37 1
    16    9   38 1
    17   10   11 1
    18   10   39 1
    19   10   40 1
    20   11   12 1
    21   11   41 1
    22   11   42 1
    23   12   17 ar
    24   12   13 ar
    25   13   14 ar
    26   14   15 ar
    27   15   16 ar
    28   15   18 1
    29   16   17 ar
    30   17   43 1
    31   18   19 1
    32   18   44 1
    33   19   24 ar
    34   19   20 ar
    35   20   21 ar
    36   20   45 1
    37   21   22 ar
    38   21   27 1
    39   22   23 ar
    40   22   46 1
    41   23   24 ar
    42   23   47 1
    43   24   25 1
    44   25   26 1
    45   26   48 1
    46   26   49 1
    47   26   50 1
    48   27   32 1
    49   27   28 1
    50   28   29 1
    51   28   51 1
    52   28   52 1
    53   29   30 1
    54   29   53 1
    55   29   54 1
    56   30   31 1
    57   30   33 1
    58   30   62 1
    59   31   32 1
    60   31   55 1
    61   31   56 1
    62   32   57 1
    63   32   58 1
    64   33   59 1
    65   33   60 1
    66   33   61 1
@<TRIPOS>MOLECULE
ZINC03966243
   84    88     0     0     0
SMALL
USER_CHARGES
N-(4-isopropoxyphenyl)-4-[6-methoxy-7-[3-(1-piperidyl)propoxy]quinazolin-4-yl]-piperazine-1-carboxamide
@<TRIPOS>ATOM
      1 C1          6.7701    4.5264   -1.2575 C.3       1 <0>        -0.1499
      2 C2          6.4967    3.0958   -0.7889 C.3       1 <0>         0.0769
      3 C3          7.4744    2.7298    0.3295 C.3       1 <0>        -0.1825
      4 O1          5.1571    3.0025   -0.3001 O.3       1 <0>        -0.3102
      5 C4          4.5717    1.7757   -0.3338 C.ar      1 <0>         0.1230
      6 C5          5.3083    0.6665   -0.7228 C.ar      1 <0>        -0.1923
      7 C6          4.7144   -0.5798   -0.7568 C.ar      1 <0>        -0.0743
      8 C7          3.3799   -0.7224   -0.4016 C.ar      1 <0>         0.1159
      9 C8          2.6432    0.3881   -0.0124 C.ar      1 <0>        -0.1027
     10 C9          3.2383    1.6338    0.0213 C.ar      1 <0>        -0.1355
     11 N1          2.7765   -1.9869   -0.4364 N.am      1 <0>        -0.6831
     12 C10         3.4836   -3.0808   -0.0903 C.2       1 <0>         0.7095
     13 O2          4.6669   -2.9820    0.1717 O.2       1 <0>        -0.5659
     14 N2          2.8793   -4.2842   -0.0346 N.am      1 <0>        -0.6302
     15 C11         1.4784   -4.4454   -0.4527 C.3       1 <0>         0.1163
     16 C12         1.4049   -5.6100   -1.4530 C.3       1 <0>         0.0464
     17 N3          2.0146   -6.8039   -0.8522 N.pl3     1 <0>        -0.4805
     18 C13         3.4424   -6.5929   -0.5788 C.3       1 <0>         0.0482
     19 C14         3.6012   -5.4698    0.4515 C.3       1 <0>         0.1328
     20 C15         1.8226   -7.9122   -1.6510 C.ar      1 <0>         0.3962
     21 C16         0.6195   -8.6545   -1.5866 C.ar      1 <0>        -0.1386
     22 C17        -0.4268   -8.2967   -0.7272 C.ar      1 <0>        -0.1287
     23 C18        -1.5707   -9.0425   -0.7073 C.ar      1 <0>         0.1093
     24 C19        -1.7117  -10.1606   -1.5416 C.ar      1 <0>         0.1588
     25 C20        -0.6998  -10.5302   -2.3993 C.ar      1 <0>        -0.1794
     26 C21         0.4818   -9.7794   -2.4366 C.ar      1 <0>         0.1794
     27 N4          1.4973  -10.0975   -3.2547 N.ar      1 <0>        -0.5194
     28 C22         2.5920   -9.3751   -3.2679 C.ar      1 <0>         0.3256
     29 N5          2.7631   -8.3137   -2.4959 N.ar      1 <0>        -0.5577
     30 O3         -2.8592  -10.8868   -1.5038 O.3       1 <0>        -0.2941
     31 C23        -2.9427  -12.0141   -2.3780 C.3       1 <0>         0.0564
     32 C24        -4.2971  -12.7020   -2.1952 C.3       1 <0>        -0.1506
     33 C25        -4.3865  -13.9090   -3.1312 C.3       1 <0>        -0.0020
     34 C26        -5.8040  -15.1525   -1.6130 C.3       1 <0>        -0.0079
     35 C27        -7.2186  -15.7022   -1.4158 C.3       1 <0>        -0.1471
     36 C28        -7.5007  -16.7656   -2.4807 C.3       1 <0>        -0.1398
     37 C29        -7.3247  -16.1452   -3.8695 C.3       1 <0>        -0.1477
     38 C30        -5.9070  -15.5827   -3.9956 C.3       1 <0>        -0.0015
     39 O4         -2.5839   -8.6973    0.1313 O.3       1 <0>        -0.3038
     40 C31        -2.3802   -7.5484    0.9564 C.3       1 <0>         0.0216
     41 H1          6.6397    5.2137   -0.4216 H         1 <0>         0.0680
     42 H2          7.7918    4.5976   -1.6304 H         1 <0>         0.0781
     43 H3          6.0735    4.7871   -2.0543 H         1 <0>         0.0652
     44 H4          6.6271    2.4085   -1.6248 H         1 <0>         0.0735
     45 H5          7.2796    1.7107    0.6634 H         1 <0>         0.0633
     46 H6          8.4962    2.8010   -0.0433 H         1 <0>         0.0733
     47 H7          7.3440    3.4171    1.1654 H         1 <0>         0.0686
     48 H8          6.3476    0.7769   -0.9947 H         1 <0>         0.1332
     49 H9          5.2879   -1.4432   -1.0601 H         1 <0>         0.1408
     50 H10         1.6050    0.2778    0.2637 H         1 <0>         0.1308
     51 H11         2.6653    2.4978    0.3240 H         1 <0>         0.1354
     52 H12         1.8499   -2.0748   -0.7096 H         1 <0>         0.4030
     53 H13         0.8598   -4.6663    0.4171 H         1 <0>         0.0856
     54 H14         1.1308   -3.5290   -0.9296 H         1 <0>         0.0889
     55 H15         1.9431   -5.3458   -2.3633 H         1 <0>         0.0616
     56 H16         0.3620   -5.8162   -1.6938 H         1 <0>         0.0941
     57 H17         3.9521   -6.3150   -1.5013 H         1 <0>         0.0689
     58 H18         3.8770   -7.5117   -0.1852 H         1 <0>         0.0954
     59 H19         4.6578   -5.2309    0.5728 H         1 <0>         0.1082
     60 H20         3.1850   -5.7851    1.4083 H         1 <0>         0.0782
     61 H21        -0.3280   -7.4373   -0.0806 H         1 <0>         0.1573
     62 H22        -0.8167  -11.3925   -3.0389 H         1 <0>         0.1519
     63 H23         3.3895   -9.6593   -3.9384 H         1 <0>         0.1992
     64 H24        -2.8407  -11.6812   -3.4109 H         1 <0>         0.0778
     65 H25        -2.1435  -12.7168   -2.1421 H         1 <0>         0.0777
     66 H26        -4.3991  -13.0349   -1.1623 H         1 <0>         0.1002
     67 H27        -5.0963  -11.9993   -2.4311 H         1 <0>         0.1003
     68 H28        -4.2845  -13.5761   -4.1641 H         1 <0>         0.1340
     69 H29        -3.5873  -14.6117   -2.8953 H         1 <0>         0.1355
     70 H30        -5.0816  -15.9614   -1.5040 H         1 <0>         0.1310
     71 H31        -5.6051  -14.3849   -0.8651 H         1 <0>         0.1299
     72 H32        -7.9407  -14.8913   -1.5110 H         1 <0>         0.0877
     73 H33        -7.3012  -16.1486   -0.4248 H         1 <0>         0.1122
     74 H34        -8.5225  -17.1289   -2.3709 H         1 <0>         0.0942
     75 H35        -6.8042  -17.5956   -2.3615 H         1 <0>         0.0818
     76 H36        -8.0484  -15.3413   -4.0033 H         1 <0>         0.0877
     77 H37        -7.4825  -16.9083   -4.6316 H         1 <0>         0.1125
     78 H38        -5.7830  -15.1275   -4.9782 H         1 <0>         0.1289
     79 H39        -5.1842  -16.3896   -3.8752 H         1 <0>         0.1307
     80 H40        -3.2625   -7.3845    1.5752 H         1 <0>         0.1075
     81 H41        -1.5126   -7.7098    1.5962 H         1 <0>         0.0622
     82 H42        -2.2103   -6.6748    0.3272 H         1 <0>         0.0599
     83 N6         -5.7075  -14.5479   -2.9586 N.4       1 <0>        -0.3926
     84 H43        -6.4386  -13.8336   -3.0559 H         1 <0>         0.4277
@<TRIPOS>BOND
     1    1    2 1
     2    1   41 1
     3    1   42 1
     4    1   43 1
     5    2    3 1
     6    2    4 1
     7    2   44 1
     8    3   45 1
     9    3   46 1
    10    3   47 1
    11    4    5 1
    12    5   10 ar
    13    5    6 ar
    14    6    7 ar
    15    6   48 1
    16    7    8 ar
    17    7   49 1
    18    8    9 ar
    19    8   11 1
    20    9   10 ar
    21    9   50 1
    22   10   51 1
    23   11   12 am
    24   11   52 1
    25   12   13 2
    26   12   14 am
    27   14   19 1
    28   14   15 1
    29   15   16 1
    30   15   53 1
    31   15   54 1
    32   16   17 1
    33   16   55 1
    34   16   56 1
    35   17   18 1
    36   17   20 1
    37   18   19 1
    38   18   57 1
    39   18   58 1
    40   19   59 1
    41   19   60 1
    42   20   29 ar
    43   20   21 ar
    44   21   26 ar
    45   21   22 ar
    46   22   23 ar
    47   22   61 1
    48   23   24 ar
    49   23   39 1
    50   24   25 ar
    51   24   30 1
    52   25   26 ar
    53   25   62 1
    54   26   27 ar
    55   27   28 ar
    56   28   29 ar
    57   28   63 1
    58   30   31 1
    59   31   32 1
    60   31   64 1
    61   31   65 1
    62   32   33 1
    63   32   66 1
    64   32   67 1
    65   33   68 1
    66   33   69 1
    67   33   83 1
    68   34   35 1
    69   34   70 1
    70   34   71 1
    71   34   83 1
    72   35   36 1
    73   35   72 1
    74   35   73 1
    75   36   37 1
    76   36   74 1
    77   36   75 1
    78   37   38 1
    79   37   76 1
    80   37   77 1
    81   38   78 1
    82   38   79 1
    83   38   83 1
    84   39   40 1
    85   40   80 1
    86   40   81 1
    87   40   82 1
    88   83   84 1
@<TRIPOS>MOLECULE
ZINC01493878
   48    50     0     0     0
SMALL
USER_CHARGES

@<TRIPOS>ATOM
      1 C1         -1.0955   -5.0083   -6.9234 C.3       1 <0>         0.0847
      2 N1         -1.5520   -4.3038   -5.7228 N.am      1 <0>        -0.7137
      3 C2         -1.8827   -5.0004   -4.6175 C.2       1 <0>         0.5696
      4 O1         -1.8023   -6.2129   -4.6168 O.2       1 <0>        -0.5284
      5 C3         -2.3445   -4.2878   -3.4031 C.ar      1 <0>         0.1129
      6 C4         -2.6788   -5.0128   -2.2640 C.ar      1 <0>        -0.1883
      7 C5         -3.1110   -4.3279   -1.1310 C.ar      1 <0>         0.1595
      8 C6         -3.1903   -2.9389   -1.1877 C.ar      1 <0>        -0.1766
      9 C7         -2.8404   -2.2885   -2.3571 C.ar      1 <0>         0.1349
     10 N2         -2.4302   -2.9626   -3.4105 N.ar      1 <0>        -0.4815
     11 O2         -3.4471   -4.9979    0.0005 O.3       1 <0>        -0.2437
     12 C8         -3.4462   -6.3570   -0.0383 C.ar      1 <0>         0.0568
     13 C9         -2.2447   -7.0505   -0.0178 C.ar      1 <0>        -0.1074
     14 C10        -2.2431   -8.4307   -0.0577 C.ar      1 <0>        -0.1009
     15 C11        -3.4442   -9.1246   -0.1179 C.ar      1 <0>         0.1671
     16 C12        -4.6464   -8.4301   -0.1379 C.ar      1 <0>        -0.1272
     17 C13        -4.6469   -7.0500   -0.0928 C.ar      1 <0>        -0.0940
     18 N3         -3.4432  -10.5252   -0.1588 N.am      1 <0>        -0.6776
     19 C14        -2.5108  -11.2187    0.5239 C.2       1 <0>         0.7077
     20 O3         -1.6217  -10.6297    1.1080 O.2       1 <0>        -0.5493
     21 N4         -2.5639  -12.5649    0.5593 N.am      1 <0>        -0.6795
     22 C15        -1.6655  -13.2800    1.3600 C.ar      1 <0>         0.1700
     23 C16        -1.2529  -12.7583    2.5792 C.ar      1 <0>        -0.0742
     24 C17        -0.3670  -13.4659    3.3674 C.ar      1 <0>        -0.0871
     25 C18         0.1097  -14.6941    2.9434 C.ar      1 <0>        -0.0077
     26 C19        -0.2993  -15.2159    1.7290 C.ar      1 <0>        -0.1564
     27 C20        -1.1898  -14.5147    0.9394 C.ar      1 <0>        -0.0879
     28 C21         0.2222  -16.5533    1.2702 C.3       1 <0>         0.5112
     29 F1         -0.3299  -16.8663    0.0234 F         1 <0>        -0.1743
     30 F2          1.6160  -16.4983    1.1626 F         1 <0>        -0.1671
     31 F3         -0.1354  -17.5367    2.1987 F         1 <0>        -0.1677
     32 Cl1         1.2234  -15.5812    3.9366 Cl        1 <0>        -0.0394
     33 H1         -0.8760   -4.2843   -7.7081 H         1 <0>         0.0803
     34 H2         -0.1948   -5.5764   -6.6909 H         1 <0>         0.0631
     35 H3         -1.8761   -5.6883   -7.2645 H         1 <0>         0.0629
     36 H4         -1.6162   -3.3359   -5.7233 H         1 <0>         0.4141
     37 H5         -2.6047   -6.0902   -2.2584 H         1 <0>         0.1546
     38 H6         -3.5217   -2.3755   -0.3280 H         1 <0>         0.1523
     39 H7         -2.9005   -1.2112   -2.4052 H         1 <0>         0.1747
     40 H8         -1.3104   -6.5106    0.0290 H         1 <0>         0.1364
     41 H9         -1.3078   -8.9704   -0.0424 H         1 <0>         0.1514
     42 H10        -5.5809   -8.9693   -0.1851 H         1 <0>         0.1386
     43 H11        -5.5820   -6.5098   -0.1039 H         1 <0>         0.1400
     44 H12        -4.1137  -10.9957   -0.6785 H         1 <0>         0.4131
     45 H13        -3.2246  -13.0383    0.0299 H         1 <0>         0.4146
     46 H14        -1.6244  -11.7997    2.9103 H         1 <0>         0.1546
     47 H15        -0.0456  -13.0604    4.3154 H         1 <0>         0.1524
     48 H16        -1.5123  -14.9245   -0.0064 H         1 <0>         0.1525
@<TRIPOS>BOND
     1    1    2 1
     2    1   33 1
     3    1   34 1
     4    1   35 1
     5    2    3 am
     6    2   36 1
     7    3    4 2
     8    3    5 1
     9    5   10 ar
    10    5    6 ar
    11    6    7 ar
    12    6   37 1
    13    7    8 ar
    14    7   11 1
    15    8    9 ar
    16    8   38 1
    17    9   10 ar
    18    9   39 1
    19   11   12 1
    20   12   17 ar
    21   12   13 ar
    22   13   14 ar
    23   13   40 1
    24   14   15 ar
    25   14   41 1
    26   15   16 ar
    27   15   18 1
    28   16   17 ar
    29   16   42 1
    30   17   43 1
    31   18   19 am
    32   18   44 1
    33   19   20 2
    34   19   21 am
    35   21   22 1
    36   21   45 1
    37   22   27 ar
    38   22   23 ar
    39   23   24 ar
    40   23   46 1
    41   24   25 ar
    42   24   47 1
    43   25   26 ar
    44   25   32 1
    45   26   27 ar
    46   26   28 1
    47   27   48 1
    48   28   29 1
    49   28   30 1
    50   28   31 1
@<TRIPOS>MOLECULE
ZINC03989259
   57    59     0     0     0
SMALL
USER_CHARGES

@<TRIPOS>ATOM
      1 C1          4.7940    1.4748   -1.9580 C.3       1 <0>        -0.1866
      2 C2          5.1782    0.4845   -0.8568 C.3       1 <0>        -0.0173
      3 C3          6.5990    2.1351    0.2012 C.3       1 <0>        -0.0111
      4 C4          7.8882    1.3271    0.0399 C.3       1 <0>        -0.1890
      5 C5          4.2763    1.9385    0.8563 C.3       1 <0>        -0.0230
      6 C6          3.2014    0.9315    1.2703 C.3       1 <0>         0.0949
      7 N1          2.0151    1.6500    1.7424 N.am      1 <0>        -0.7291
      8 C7          0.9338    0.9632    2.1616 C.2       1 <0>         0.6111
      9 O1          0.9429   -0.2527    2.1478 O.2       1 <0>        -0.5184
     10 C8         -0.2621    1.6862    2.6309 C.2       1 <0>        -0.2417
     11 C9         -1.3491    2.1107    1.8372 C.2       1 <0>        -0.0585
     12 C10        -2.2403    2.7399    2.6838 C.2       1 <0>        -0.0067
     13 N2         -1.7112    2.7111    3.9576 N.pl3     1 <0>        -0.4914
     14 H1         -2.1295    3.0867    4.7480 H         1 <0>         0.4268
     15 C11        -0.5253    2.0803    3.9303 C.2       1 <0>         0.1152
     16 C12         0.3697    1.8413    5.1189 C.3       1 <0>        -0.0999
     17 C13        -3.4736    3.3170    2.3103 C.2       1 <0>         0.0707
     18 C14        -3.9268    4.4526    2.9516 C.2       1 <0>        -0.1866
     19 C15        -5.2445    5.1082    2.7974 C.ar      1 <0>        -0.0906
     20 C16        -6.3711    4.8169    2.0348 C.ar      1 <0>        -0.0550
     21 C17        -7.4810    5.6350    2.1130 C.ar      1 <0>        -0.0537
     22 C18        -7.4734    6.7373    2.9534 C.ar      1 <0>        -0.0704
     23 C19        -6.3632    7.0298    3.7190 C.ar      1 <0>        -0.1195
     24 C20        -5.2361    6.2179    3.6532 C.ar      1 <0>         0.1435
     25 N3         -4.0089    6.2840    4.3026 N.am      1 <0>        -0.6473
     26 C21        -3.2028    5.2754    3.9301 C.2       1 <0>         0.5595
     27 O2         -2.0702    5.0781    4.3329 O.2       1 <0>        -0.5145
     28 Cl1        -8.8870    5.2828    1.1575 Cl        1 <0>        -0.0549
     29 C22        -1.5083    1.9123    0.3518 C.3       1 <0>        -0.0928
     30 H2          3.9159    2.0409   -1.6474 H         1 <0>         0.0796
     31 H3          5.6233    2.1594   -2.1365 H         1 <0>         0.0812
     32 H4          4.5692    0.9296   -2.8747 H         1 <0>         0.1075
     33 H5          6.0634   -0.0734   -1.1625 H         1 <0>         0.1329
     34 H6          4.3535   -0.2075   -0.6865 H         1 <0>         0.1314
     35 H7          6.4364    2.7416   -0.6898 H         1 <0>         0.1338
     36 H8          6.6840    2.7848    1.0723 H         1 <0>         0.1297
     37 H9          8.0650    0.7412    0.9418 H         1 <0>         0.0813
     38 H10         7.7929    0.6579   -0.8152 H         1 <0>         0.0804
     39 H11         8.7250    2.0065   -0.1219 H         1 <0>         0.1070
     40 H12         3.8925    2.5714    0.0562 H         1 <0>         0.1399
     41 H13         4.5434    2.5576    1.7128 H         1 <0>         0.1368
     42 H14         3.5853    0.2986    2.0704 H         1 <0>         0.0887
     43 H15         2.9343    0.3125    0.4138 H         1 <0>         0.0889
     44 H16         2.0079    2.6199    1.7534 H         1 <0>         0.4098
     45 H17         1.0581    2.6790    5.2297 H         1 <0>         0.0839
     46 H18        -0.2383    1.7492    6.0189 H         1 <0>         0.0780
     47 H19         0.9366    0.9226    4.9679 H         1 <0>         0.0839
     48 H20        -4.0625    2.8701    1.5230 H         1 <0>         0.1587
     49 H21        -6.3755    3.9579    1.3801 H         1 <0>         0.1412
     50 H22        -8.3447    7.3730    3.0099 H         1 <0>         0.1461
     51 H23        -6.3695    7.8913    4.3703 H         1 <0>         0.1406
     52 H24        -3.7653    6.9709    4.9427 H         1 <0>         0.4218
     53 H25        -2.0209    0.9688    0.1641 H         1 <0>         0.0783
     54 H26        -2.0935    2.7326   -0.0637 H         1 <0>         0.0725
     55 H27        -0.5256    1.8919   -0.1194 H         1 <0>         0.0632
     56 N4          5.4731    1.1989    0.4030 N.4       1 <0>        -0.3919
     57 H28         5.7338    0.5137    1.1218 H         1 <0>         0.4310
@<TRIPOS>BOND
     1    1    2 1
     2    1   30 1
     3    1   31 1
     4    1   32 1
     5    2   33 1
     6    2   34 1
     7    2   56 1
     8    3    4 1
     9    3   35 1
    10    3   36 1
    11    3   56 1
    12    4   37 1
    13    4   38 1
    14    4   39 1
    15    5    6 1
    16    5   40 1
    17    5   41 1
    18    5   56 1
    19    6    7 1
    20    6   42 1
    21    6   43 1
    22    7    8 am
    23    7   44 1
    24    8    9 2
    25    8   10 1
    26   10   15 2
    27   10   11 1
    28   11   12 2
    29   11   29 1
    30   12   13 1
    31   12   17 1
    32   13   14 1
    33   13   15 1
    34   15   16 1
    35   16   45 1
    36   16   46 1
    37   16   47 1
    38   17   18 2
    39   17   48 1
    40   18   26 1
    41   18   19 1
    42   19   24 ar
    43   19   20 ar
    44   20   21 ar
    45   20   49 1
    46   21   22 ar
    47   21   28 1
    48   22   23 ar
    49   22   50 1
    50   23   24 ar
    51   23   51 1
    52   24   25 1
    53   25   26 am
    54   25   52 1
    55   26   27 2
    56   29   53 1
    57   29   54 1
    58   29   55 1
    59   56   57 1
@<TRIPOS>MOLECULE
ZINC21982951
   60    63     0     0     0
SMALL
USER_CHARGES

@<TRIPOS>ATOM
      1 C1         -2.0700    1.6928    0.2333 C.3       1 <0>        -0.1170
      2 C2         -1.6482    0.2604    0.0301 C.ar      1 <0>        -0.0813
      3 C3         -1.8479   -0.3525   -1.1919 C.ar      1 <0>        -0.1034
      4 C4         -1.4615   -1.6665   -1.3798 C.ar      1 <0>        -0.0990
      5 C5         -0.8738   -2.3725   -0.3459 C.ar      1 <0>        -0.1046
      6 C6         -0.6714   -1.7660    0.8791 C.ar      1 <0>        -0.0220
      7 C7         -1.0534   -0.4428    1.0688 C.ar      1 <0>         0.1347
      8 N1         -0.8441    0.1769    2.3055 N.am      1 <0>        -0.6659
      9 C8         -1.2819   -0.4110    3.4365 C.2       1 <0>         0.6018
     10 O1         -1.7689   -1.5261    3.3939 O.2       1 <0>        -0.4722
     11 C9         -1.1720    0.2905    4.7149 C.2       1 <0>        -0.2635
     12 C10        -1.5472   -0.1201    5.9866 C.2       1 <0>         0.1512
     13 N2         -1.3262    0.7270    6.9599 N.2       1 <0>        -0.5510
     14 C11        -0.7756    1.9070    6.7361 C.2       1 <0>         0.2513
     15 S1         -0.5107    1.9100    5.0742 S.3       1 <0>         0.2445
     16 N3         -0.4817    2.8997    7.6498 N.pl3     1 <0>        -0.5870
     17 C12        -0.6908    2.6801    9.0050 C.ar      1 <0>         0.4543
     18 C13        -1.0534    1.4192    9.4679 C.ar      1 <0>        -0.2926
     19 C14        -1.2512    1.2508   10.8352 C.ar      1 <0>         0.4935
     20 N4         -1.0875    2.2952   11.6453 N.ar      1 <0>        -0.5328
     21 C15        -0.7435    3.4737   11.1677 C.ar      1 <0>         0.4541
     22 N5         -0.5417    3.6719    9.8809 N.ar      1 <0>        -0.5672
     23 C16        -0.5694    4.6273   12.1217 C.3       1 <0>        -0.1251
     24 N6         -1.6138    0.0143   11.3464 N.pl3     1 <0>        -0.5370
     25 C17        -2.0559   -0.1253   12.7422 C.3       1 <0>         0.1090
     26 C18        -3.3866   -0.8852   12.7576 C.3       1 <0>         0.0383
     27 N7         -3.2335   -2.1493   12.0251 N.3       1 <0>        -0.5289
     28 C19        -2.9165   -1.9105   10.6107 C.3       1 <0>         0.0343
     29 C20        -1.5725   -1.1917   10.5056 C.3       1 <0>         0.1057
     30 C21        -4.4334   -2.9856   12.1619 C.3       1 <0>         0.0545
     31 C22        -4.1483   -4.3816   11.6043 C.3       1 <0>         0.0776
     32 O2         -3.1500   -5.0191   12.4038 O.3       1 <0>        -0.5606
     33 Cl1         0.0658   -2.6526    2.1768 Cl        1 <0>        -0.0453
     34 H1         -1.2464    2.3553   -0.0328 H         1 <0>         0.0773
     35 H2         -2.9308    1.9112   -0.3987 H         1 <0>         0.0785
     36 H3         -2.3379    1.8478    1.2784 H         1 <0>         0.0640
     37 H4         -2.3069    0.1956   -2.0014 H         1 <0>         0.1372
     38 H5         -1.6193   -2.1430   -2.3361 H         1 <0>         0.1391
     39 H6         -0.5731   -3.3989   -0.4959 H         1 <0>         0.1403
     40 H7         -0.3838    1.0296    2.3489 H         1 <0>         0.4083
     41 H8         -1.9972   -1.0858    6.1634 H         1 <0>         0.2027
     42 H9         -0.1293    3.7505    7.3451 H         1 <0>         0.4460
     43 H10        -1.1784    0.5927    8.7841 H         1 <0>         0.2218
     44 H11         0.4644    4.6619   12.4652 H         1 <0>         0.1245
     45 H12        -0.8146    5.5596   11.6130 H         1 <0>         0.1071
     46 H13        -1.2322    4.4948   12.9768 H         1 <0>         0.1273
     47 H14        -1.3096   -0.6823   13.3087 H         1 <0>         0.0989
     48 H15        -2.1929    0.8619   13.1834 H         1 <0>         0.1094
     49 H16        -3.6740   -1.0944   13.7880 H         1 <0>         0.1036
     50 H17        -4.1569   -0.2794   12.2806 H         1 <0>         0.0428
     51 H18        -2.8631   -2.8634   10.0841 H         1 <0>         0.1043
     52 H19        -3.6935   -1.2904   10.1636 H         1 <0>         0.0450
     53 H20        -1.3900   -0.9091    9.4688 H         1 <0>         0.1029
     54 H21        -0.7788   -1.8532   10.8529 H         1 <0>         0.1042
     55 H22        -4.7041   -3.0633   13.2149 H         1 <0>         0.0912
     56 H23        -5.2561   -2.5340   11.6075 H         1 <0>         0.0533
     57 H24        -5.0627   -4.9745   11.6240 H         1 <0>         0.0547
     58 H25        -3.7921   -4.2970   10.5776 H         1 <0>         0.0454
     59 H26        -2.9188   -5.9101   12.1076 H         1 <0>         0.3805
     60 H27        -0.2852    4.5531    9.5669 H         1 <0>         0.4414
@<TRIPOS>BOND
     1    1    2 1
     2    1   34 1
     3    1   35 1
     4    1   36 1
     5    2    7 ar
     6    2    3 ar
     7    3    4 ar
     8    3   37 1
     9    4    5 ar
    10    4   38 1
    11    5    6 ar
    12    5   39 1
    13    6    7 ar
    14    6   33 1
    15    7    8 1
    16    8    9 am
    17    8   40 1
    18    9   10 2
    19    9   11 1
    20   11   15 1
    21   11   12 2
    22   12   13 1
    23   12   41 1
    24   13   14 2
    25   14   15 1
    26   14   16 1
    27   16   17 1
    28   16   42 1
    29   17   22 ar
    30   17   18 ar
    31   18   19 ar
    32   18   43 1
    33   19   20 ar
    34   19   24 1
    35   20   21 ar
    36   21   22 ar
    37   21   23 1
    38   22   60 1
    39   23   44 1
    40   23   45 1
    41   23   46 1
    42   24   29 1
    43   24   25 1
    44   25   26 1
    45   25   47 1
    46   25   48 1
    47   26   27 1
    48   26   49 1
    49   26   50 1
    50   27   28 1
    51   27   30 1
    52   28   29 1
    53   28   51 1
    54   28   52 1
    55   29   53 1
    56   29   54 1
    57   30   31 1
    58   30   55 1
    59   30   56 1
    60   31   32 1
    61   31   57 1
    62   31   58 1
    63   32   59 1
@<TRIPOS>MOLECULE
ZINC21982951
   60    63     0     0     0
SMALL
USER_CHARGES

@<TRIPOS>ATOM
      1 C1          3.2739    6.6585    1.8418 C.3       1 <0>        -0.1168
      2 C2          2.5810    7.9910    1.9663 C.ar      1 <0>        -0.0823
      3 C3          2.8983    9.0189    1.0995 C.ar      1 <0>        -0.1038
      4 C4          2.2635   10.2419    1.2126 C.ar      1 <0>        -0.1008
      5 C5          1.3088   10.4411    2.1933 C.ar      1 <0>        -0.1049
      6 C6          0.9869    9.4175    3.0639 C.ar      1 <0>        -0.0226
      7 C7          1.6192    8.1849    2.9486 C.ar      1 <0>         0.1373
      8 N1          1.2913    7.1440    3.8238 N.am      1 <0>        -0.6678
      9 C8          1.3128    7.3511    5.1554 C.2       1 <0>         0.6036
     10 O1          1.5184    8.4680    5.5945 O.2       1 <0>        -0.4759
     11 C9          1.0891    6.2346    6.0728 C.2       1 <0>        -0.2694
     12 C10         1.0619    6.2190    7.4604 C.2       1 <0>         0.1522
     13 N2          0.8357    5.0596    8.0247 N.2       1 <0>        -0.5060
     14 C11         0.6446    3.9678    7.3056 C.2       1 <0>         0.2464
     15 S1          0.7674    4.5141    5.7185 S.3       1 <0>         0.2029
     16 N3          0.3973    2.6842    7.7505 N.pl3     1 <0>        -0.5650
     17 C12         0.2197    2.4414    9.1063 C.ar      1 <0>         0.4999
     18 C13        -0.1342    1.1736    9.5555 C.ar      1 <0>        -0.3181
     19 C14        -0.3003    0.9817   10.9244 C.ar      1 <0>         0.4940
     20 N4         -0.1157    2.0114   11.7481 N.ar      1 <0>        -0.5712
     21 C15         0.2193    3.1978   11.2829 C.ar      1 <0>         0.4509
     22 N5          0.3911    3.4178    9.9956 N.ar      1 <0>        -0.4879
     23 C16         0.4179    4.3344   12.2523 C.3       1 <0>        -0.1253
     24 N6         -0.6531   -0.2629   11.4224 N.pl3     1 <0>        -0.5744
     25 C17        -0.9639   -0.4449   12.8484 C.3       1 <0>         0.1013
     26 C18        -2.3114   -1.1652   12.9649 C.3       1 <0>         0.0387
     27 N7         -2.2712   -2.4031   12.1749 N.3       1 <0>        -0.5277
     28 C19        -2.0835   -2.1176   10.7462 C.3       1 <0>         0.0305
     29 C20        -0.7325   -1.4351   10.5377 C.3       1 <0>         0.1149
     30 C21        -3.4796   -3.2085   12.3965 C.3       1 <0>         0.0543
     31 C22        -3.2958   -4.5889   11.7629 C.3       1 <0>         0.0774
     32 O2         -2.2472   -5.2869   12.4378 O.3       1 <0>        -0.5615
     33 Cl1        -0.2110    9.6681    4.2952 Cl        1 <0>        -0.0453
     34 H1          2.7121    6.0191    1.1609 H         1 <0>         0.0767
     35 H2          4.2810    6.8077    1.4524 H         1 <0>         0.0779
     36 H3          3.3298    6.1850    2.8220 H         1 <0>         0.0648
     37 H4          3.6435    8.8670    0.3327 H         1 <0>         0.1365
     38 H5          2.5139   11.0437    0.5337 H         1 <0>         0.1383
     39 H6          0.8148   11.3976    2.2790 H         1 <0>         0.1396
     40 H7          1.0484    6.2731    3.4723 H         1 <0>         0.4083
     41 H8          1.2191    7.1147    8.0430 H         1 <0>         0.1979
     42 H9          0.3477    1.9521    7.1161 H         1 <0>         0.4525
     43 H10        -0.2767    0.3593    8.8606 H         1 <0>         0.1835
     44 H11         1.4596    4.3615   12.5720 H         1 <0>         0.1250
     45 H12         0.1626    5.2758   11.7656 H         1 <0>         0.1301
     46 H13        -0.2249    4.1881   13.1203 H         1 <0>         0.1049
     47 H14        -0.1857   -1.0458   13.3190 H         1 <0>         0.1119
     48 H15        -1.0251    0.5276   13.3369 H         1 <0>         0.0843
     49 H16        -2.5057   -1.4068   14.0099 H         1 <0>         0.1076
     50 H17        -3.1034   -0.5184   12.5874 H         1 <0>         0.0465
     51 H18        -2.1124   -3.0499   10.1822 H         1 <0>         0.1076
     52 H19        -2.8786   -1.4576   10.3996 H         1 <0>         0.0467
     53 H20        -0.6409   -1.1170    9.4992 H         1 <0>         0.1034
     54 H21         0.0684   -2.1330   10.7819 H         1 <0>         0.1075
     55 H22        -3.6507   -3.3200   13.4672 H         1 <0>         0.0925
     56 H23        -4.3362   -2.7111   11.9416 H         1 <0>         0.0553
     57 H24        -4.2233   -5.1548   11.8494 H         1 <0>         0.0565
     58 H25        -3.0370   -4.4741   10.7103 H         1 <0>         0.0456
     59 H26        -2.0752   -6.1719   12.0881 H         1 <0>         0.3821
     60 H27        -0.2297    1.8867   12.7033 H         1 <0>         0.4392
@<TRIPOS>BOND
     1    1    2 1
     2    1   34 1
     3    1   35 1
     4    1   36 1
     5    2    7 ar
     6    2    3 ar
     7    3    4 ar
     8    3   37 1
     9    4    5 ar
    10    4   38 1
    11    5    6 ar
    12    5   39 1
    13    6    7 ar
    14    6   33 1
    15    7    8 1
    16    8    9 am
    17    8   40 1
    18    9   10 2
    19    9   11 1
    20   11   15 1
    21   11   12 2
    22   12   13 1
    23   12   41 1
    24   13   14 2
    25   14   15 1
    26   14   16 1
    27   16   17 1
    28   16   42 1
    29   17   18 ar
    30   17   22 ar
    31   18   43 1
    32   18   19 ar
    33   19   24 1
    34   19   20 ar
    35   20   60 1
    36   20   21 ar
    37   21   23 1
    38   21   22 ar
    39   23   44 1
    40   23   45 1
    41   23   46 1
    42   24   29 1
    43   24   25 1
    44   25   26 1
    45   25   47 1
    46   25   48 1
    47   26   27 1
    48   26   49 1
    49   26   50 1
    50   27   28 1
    51   27   30 1
    52   28   29 1
    53   28   51 1
    54   28   52 1
    55   29   53 1
    56   29   54 1
    57   30   31 1
    58   30   55 1
    59   30   56 1
    60   31   32 1
    61   31   57 1
    62   31   58 1
    63   32   59 1
@<TRIPOS>MOLECULE
ZINC21982951
   59    62     0     0     0
SMALL
USER_CHARGES

@<TRIPOS>ATOM
      1 C1          3.4106    6.6420    1.8847 C.3       1 <0>        -0.1165
      2 C2          2.6976    7.9659    1.9845 C.ar      1 <0>        -0.0852
      3 C3          3.0204    8.9921    1.1176 C.ar      1 <0>        -0.1055
      4 C4          2.3672   10.2073    1.2080 C.ar      1 <0>        -0.1070
      5 C5          1.3885   10.4004    2.1660 C.ar      1 <0>        -0.1064
      6 C6          1.0609    9.3785    3.0365 C.ar      1 <0>        -0.0243
      7 C7          1.7118    8.1536    2.9438 C.ar      1 <0>         0.1460
      8 N1          1.3783    7.1144    3.8189 N.am      1 <0>        -0.6734
      9 C8          1.3676    7.3308    5.1492 C.2       1 <0>         0.6131
     10 O1          1.5489    8.4533    5.5848 O.2       1 <0>        -0.4899
     11 C9          1.1384    6.2176    6.0693 C.2       1 <0>        -0.3092
     12 C10         1.0807    6.2111    7.4561 C.2       1 <0>         0.1722
     13 N2          0.8573    5.0526    8.0233 N.2       1 <0>        -0.5180
     14 C11         0.6966    3.9535    7.3079 C.2       1 <0>         0.3121
     15 S1          0.8472    4.4907    5.7202 S.3       1 <0>         0.1340
     16 N3          0.4564    2.6698    7.7563 N.pl3     1 <0>        -0.5904
     17 C12         0.2490    2.4343    9.1091 C.ar      1 <0>         0.4412
     18 C13        -0.1036    1.1661    9.5586 C.ar      1 <0>        -0.3412
     19 C14        -0.3003    0.9817   10.9244 C.ar      1 <0>         0.4686
     20 N4         -0.1450    2.0186   11.7452 N.ar      1 <0>        -0.5923
     21 C15         0.1898    3.2050   11.2799 C.ar      1 <0>         0.3946
     22 N5          0.3901    3.4182    9.9956 N.ar      1 <0>        -0.5459
     23 C16         0.3546    4.3498   12.2460 C.3       1 <0>        -0.0834
     24 N6         -0.6531   -0.2629   11.4224 N.pl3     1 <0>        -0.5966
     25 C17        -1.0693   -0.4249   12.8237 C.3       1 <0>         0.1300
     26 C18        -2.3993   -1.1856   12.8517 C.3       1 <0>         0.0401
     27 N7         -2.2595   -2.4378   12.0965 N.3       1 <0>        -0.5276
     28 C19        -1.9688   -2.1765   10.6804 C.3       1 <0>         0.0363
     29 C20        -0.6270   -1.4554   10.5619 C.3       1 <0>         0.1269
     30 C21        -3.4565   -3.2768   12.2420 C.3       1 <0>         0.0537
     31 C22        -3.1814   -4.6636   11.6572 C.3       1 <0>         0.0792
     32 O2         -2.1684   -5.3132   12.4279 O.3       1 <0>        -0.5589
     33 Cl1        -0.1672    9.6214    4.2392 Cl        1 <0>        -0.0433
     34 H1          2.8725    5.9906    1.1961 H         1 <0>         0.0754
     35 H2          4.4240    6.8020    1.5166 H         1 <0>         0.0754
     36 H3          3.4510    6.1760    2.8692 H         1 <0>         0.0676
     37 H4          3.7844    8.8450    0.3685 H         1 <0>         0.1337
     38 H5          2.6220   11.0077    0.5292 H         1 <0>         0.1350
     39 H6          0.8801   11.3508    2.2339 H         1 <0>         0.1371
     40 H7          1.1547    6.2381    3.4683 H         1 <0>         0.4085
     41 H8          1.2132    7.1127    8.0357 H         1 <0>         0.1884
     42 H9          0.4325    1.9325    7.1264 H         1 <0>         0.4387
     43 H10        -0.2220    0.3459    8.8660 H         1 <0>         0.1413
     44 H11         1.3882    4.3890   12.5900 H         1 <0>         0.0870
     45 H12         0.1021    5.2855   11.7470 H         1 <0>         0.0890
     46 H13        -0.3072    4.2031   13.0995 H         1 <0>         0.0846
     47 H14        -0.3126   -0.9904   13.3674 H         1 <0>         0.0744
     48 H15        -1.1984    0.5551   13.2831 H         1 <0>         0.1008
     49 H16        -2.6676   -1.4113   13.8837 H         1 <0>         0.0903
     50 H17        -3.1785   -0.5727   12.3986 H         1 <0>         0.0372
     51 H18        -1.9249   -3.1208   10.1378 H         1 <0>         0.0905
     52 H19        -2.7540   -1.5497   10.2576 H         1 <0>         0.0380
     53 H20        -0.4638   -1.1563    9.5265 H         1 <0>         0.0877
     54 H21         0.1731   -2.1219   10.8840 H         1 <0>         0.0802
     55 H22        -3.7077   -3.3713   13.2985 H         1 <0>         0.0861
     56 H23        -4.2894   -2.8169   11.7102 H         1 <0>         0.0487
     57 H24        -4.0952   -5.2572   11.6843 H         1 <0>         0.0498
     58 H25        -2.8443   -4.5626   10.6256 H         1 <0>         0.0451
     59 H26        -1.9426   -6.1994   12.1134 H         1 <0>         0.3762
@<TRIPOS>BOND
     1    1    2 1
     2    1   34 1
     3    1   35 1
     4    1   36 1
     5    2    7 ar
     6    2    3 ar
     7    3    4 ar
     8    3   37 1
     9    4    5 ar
    10    4   38 1
    11    5    6 ar
    12    5   39 1
    13    6    7 ar
    14    6   33 1
    15    7    8 1
    16    8    9 am
    17    8   40 1
    18    9   10 2
    19    9   11 1
    20   11   15 1
    21   11   12 2
    22   12   13 1
    23   12   41 1
    24   13   14 2
    25   14   15 1
    26   14   16 1
    27   16   17 1
    28   16   42 1
    29   17   18 ar
    30   17   22 ar
    31   18   43 1
    32   18   19 ar
    33   19   24 1
    34   19   20 ar
    35   20   21 ar
    36   21   23 1
    37   21   22 ar
    38   23   44 1
    39   23   45 1
    40   23   46 1
    41   24   29 1
    42   24   25 1
    43   25   26 1
    44   25   47 1
    45   25   48 1
    46   26   27 1
    47   26   49 1
    48   26   50 1
    49   27   28 1
    50   27   30 1
    51   28   29 1
    52   28   51 1
    53   28   52 1
    54   29   53 1
    55   29   54 1
    56   30   31 1
    57   30   55 1
    58   30   56 1
    59   31   32 1
    60   31   57 1
    61   31   58 1
    62   32   59 1
@<TRIPOS>MOLECULE
ZINC21982951
   61    64     0     0     0
SMALL
USER_CHARGES

@<TRIPOS>ATOM
      1 C1          3.2770    6.6581    1.8427 C.3       1 <0>        -0.1166
      2 C2          2.5837    7.9904    1.9667 C.ar      1 <0>        -0.0814
      3 C3          2.9012    9.0183    1.0999 C.ar      1 <0>        -0.1028
      4 C4          2.2660   10.2411    1.2125 C.ar      1 <0>        -0.0975
      5 C5          1.3108   10.4402    2.1928 C.ar      1 <0>        -0.1039
      6 C6          0.9888    9.4167    3.0634 C.ar      1 <0>        -0.0218
      7 C7          1.6215    8.1842    2.9485 C.ar      1 <0>         0.1327
      8 N1          1.2933    7.1433    3.8237 N.am      1 <0>        -0.6648
      9 C8          1.3141    7.3507    5.1552 C.2       1 <0>         0.5983
     10 O1          1.5193    8.4677    5.5943 O.2       1 <0>        -0.4690
     11 C9          1.0903    6.2342    6.0727 C.2       1 <0>        -0.2500
     12 C10         1.0624    6.2188    7.4604 C.2       1 <0>         0.1439
     13 N2          0.8362    5.0594    8.0246 N.2       1 <0>        -0.4984
     14 C11         0.6458    3.9675    7.3056 C.2       1 <0>         0.2172
     15 S1          0.7692    4.5136    5.7185 S.3       1 <0>         0.2242
     16 N3          0.3986    2.6839    7.7506 N.pl3     1 <0>        -0.5513
     17 C12         0.2203    2.4413    9.1063 C.ar      1 <0>         0.5098
     18 C13        -0.1335    1.1734    9.5556 C.ar      1 <0>        -0.3097
     19 C14        -0.3003    0.9817   10.9244 C.ar      1 <0>         0.4927
     20 N4         -0.1163    2.0116   11.7481 N.ar      1 <0>        -0.5695
     21 C15         0.2187    3.1980   11.2828 C.ar      1 <0>         0.4589
     22 N5          0.3911    3.4178    9.9956 N.ar      1 <0>        -0.4762
     23 C16         0.4165    4.3348   12.2521 C.3       1 <0>        -0.1303
     24 N6         -0.6531   -0.2629   11.4224 N.pl3     1 <0>        -0.6123
     25 C17        -0.9643   -0.4465   12.8484 C.3       1 <0>         0.0782
     26 C18        -2.3027   -1.1838   12.9625 C.3       1 <0>        -0.0204
     27 N7         -2.2406   -2.4311   12.1903 N.4       1 <0>        -0.3852
     28 C19        -2.0770   -2.1279   10.7629 C.3       1 <0>        -0.0304
     29 C20        -0.7330   -1.4363   10.5388 C.3       1 <0>         0.0932
     30 C21        -3.4827   -3.1900   12.3886 C.3       1 <0>        -0.0061
     31 C22        -3.3702   -4.5448   11.6865 C.3       1 <0>         0.0434
     32 O2         -2.3479   -5.3224   12.3128 O.3       1 <0>        -0.5819
     33 Cl1        -0.2098    9.6671    4.2940 Cl        1 <0>        -0.0466
     34 H1          2.7157    6.0184    1.1617 H         1 <0>         0.0770
     35 H2          4.2843    6.8074    1.4538 H         1 <0>         0.0791
     36 H3          3.3325    6.1847    2.8230 H         1 <0>         0.0631
     37 H4          3.6468    8.8665    0.3335 H         1 <0>         0.1380
     38 H5          2.5166   11.0428    0.5336 H         1 <0>         0.1401
     39 H6          0.8165   11.3966    2.2780 H         1 <0>         0.1410
     40 H7          1.0508    6.2723    3.4722 H         1 <0>         0.4077
     41 H8          1.2191    7.1146    8.0429 H         1 <0>         0.2016
     42 H9          0.3494    1.9517    7.1163 H         1 <0>         0.4545
     43 H10        -0.2756    0.3590    8.8607 H         1 <0>         0.1860
     44 H11         1.4581    4.3621   12.5724 H         1 <0>         0.1309
     45 H12         0.1613    5.2760   11.7653 H         1 <0>         0.1358
     46 H13        -0.2267    4.1885   13.1199 H         1 <0>         0.1083
     47 H14        -0.1795   -1.0367   13.3215 H         1 <0>         0.1249
     48 H15        -1.0392    0.5259   13.3352 H         1 <0>         0.1232
     49 H16        -2.5028   -1.4138   14.0090 H         1 <0>         0.1602
     50 H17        -3.0999   -0.5526   12.5701 H         1 <0>         0.1410
     51 H18        -2.1110   -3.0537   10.1885 H         1 <0>         0.1585
     52 H19        -2.8811   -1.4682   10.4370 H         1 <0>         0.1418
     53 H20        -0.6550   -1.1179    9.4992 H         1 <0>         0.1416
     54 H21         0.0756   -2.1281   10.7747 H         1 <0>         0.1211
     55 H22        -3.6469   -3.3459   13.4548 H         1 <0>         0.1465
     56 H23        -4.3202   -2.6321   11.9697 H         1 <0>         0.1464
     57 H24        -4.3221   -5.0710   11.7578 H         1 <0>         0.1026
     58 H25        -3.1180   -4.3904   10.6374 H         1 <0>         0.0719
     59 H26        -2.2211   -6.1961   11.9183 H         1 <0>         0.4154
     60 H27        -0.2308    1.8869   12.7032 H         1 <0>         0.4393
     61 H28        -1.4578   -2.9831   12.5075 H         1 <0>         0.4359
@<TRIPOS>BOND
     1    1    2 1
     2    1   34 1
     3    1   35 1
     4    1   36 1
     5    2    7 ar
     6    2    3 ar
     7    3    4 ar
     8    3   37 1
     9    4    5 ar
    10    4   38 1
    11    5    6 ar
    12    5   39 1
    13    6    7 ar
    14    6   33 1
    15    7    8 1
    16    8    9 am
    17    8   40 1
    18    9   10 2
    19    9   11 1
    20   11   15 1
    21   11   12 2
    22   12   13 1
    23   12   41 1
    24   13   14 2
    25   14   15 1
    26   14   16 1
    27   16   17 1
    28   16   42 1
    29   17   18 ar
    30   17   22 ar
    31   18   43 1
    32   18   19 ar
    33   19   24 1
    34   19   20 ar
    35   20   60 1
    36   20   21 ar
    37   21   23 1
    38   21   22 ar
    39   23   44 1
    40   23   45 1
    41   23   46 1
    42   24   29 1
    43   24   25 1
    44   25   26 1
    45   25   47 1
    46   25   48 1
    47   26   27 1
    48   26   49 1
    49   26   50 1
    50   27   28 1
    51   27   30 1
    52   27   61 1
    53   28   29 1
    54   28   51 1
    55   28   52 1
    56   29   53 1
    57   29   54 1
    58   30   31 1
    59   30   55 1
    60   30   56 1
    61   31   32 1
    62   31   57 1
    63   31   58 1
    64   32   59 1
@<TRIPOS>MOLECULE
ZINC01912572
   43    45     0     0     0
SMALL
USER_CHARGES
2-(4-pyridylmethylamino)-N-[3-(trifluoromethyl)phenyl]-benzamide
@<TRIPOS>ATOM
      1 C1         -0.1765    9.4460    0.4719 C.ar      1 <0>        -0.1891
      2 C2          1.0103   10.1618    0.4963 C.ar      1 <0>        -0.0333
      3 C3          2.2211    9.5112    0.3781 C.ar      1 <0>        -0.2111
      4 C4          2.2581    8.1291    0.2392 C.ar      1 <0>         0.2834
      5 C5          1.0579    7.4020    0.2088 C.ar      1 <0>        -0.2347
      6 C6         -0.1603    8.0760    0.3297 C.ar      1 <0>        -0.0328
      7 C7          1.0825    5.9361    0.0563 C.2       1 <0>         0.5755
      8 O1          2.1438    5.3424    0.0572 O.2       1 <0>        -0.5298
      9 N1         -0.0712    5.2537   -0.0842 N.am      1 <0>        -0.6685
     10 C8         -0.0569    3.8557   -0.1198 C.ar      1 <0>         0.1487
     11 C9         -0.9819    3.1697   -0.8966 C.ar      1 <0>        -0.1140
     12 C10        -0.9653    1.7893   -0.9293 C.ar      1 <0>        -0.0973
     13 C11        -0.0295    1.0898   -0.1892 C.ar      1 <0>        -0.0884
     14 C12         0.8889    1.7694    0.5895 C.ar      1 <0>        -0.1623
     15 C13         0.8817    3.1503    0.6217 C.ar      1 <0>        -0.0727
     16 C14         1.9025    1.0029    1.3995 C.3       1 <0>         0.5089
     17 F1          1.7164   -0.3694    1.2014 F         1 <0>        -0.1757
     18 F2          3.1921    1.3620    0.9932 F         1 <0>        -0.1730
     19 F3          1.7400    1.3045    2.7559 F         1 <0>        -0.1759
     20 N2          3.4759    7.4713    0.1258 N.pl3     1 <0>        -0.7210
     21 C15         4.7169    8.2416    0.0138 C.3       1 <0>         0.1559
     22 C16         5.8862    7.2972   -0.0958 C.ar      1 <0>        -0.0632
     23 C17         6.5494    6.8542    1.0384 C.ar      1 <0>        -0.1534
     24 C18         7.6149    5.9851    0.8991 C.ar      1 <0>         0.1000
     25 N3          8.0078    5.5855   -0.2946 N.ar      1 <0>        -0.4783
     26 C19         7.4038    5.9899   -1.3949 C.ar      1 <0>         0.0998
     27 C20         6.3280    6.8554   -1.3335 C.ar      1 <0>        -0.1530
     28 H1         -1.1189    9.9652    0.5652 H         1 <0>         0.1274
     29 H2          0.9869   11.2356    0.6089 H         1 <0>         0.1286
     30 H3          3.1413   10.0762    0.3984 H         1 <0>         0.1298
     31 H4         -1.0880    7.5233    0.3121 H         1 <0>         0.1236
     32 H5         -0.9115    5.7322   -0.1606 H         1 <0>         0.4152
     33 H6         -1.7129    3.7154   -1.4748 H         1 <0>         0.1372
     34 H7         -1.6842    1.2554   -1.5330 H         1 <0>         0.1417
     35 H8         -0.0189    0.0102   -0.2161 H         1 <0>         0.1414
     36 H9          1.6021    3.6807    1.2267 H         1 <0>         0.1454
     37 H10         3.5047    6.5017    0.1208 H         1 <0>         0.4213
     38 H11         4.6744    8.8719   -0.8745 H         1 <0>         0.0766
     39 H12         4.8371    8.8676    0.8980 H         1 <0>         0.0767
     40 H13         6.2351    7.1814    2.0184 H         1 <0>         0.1367
     41 H14         8.1346    5.6327    1.7777 H         1 <0>         0.1589
     42 H15         7.7541    5.6411   -2.3551 H         1 <0>         0.1586
     43 H16         5.8380    7.1836   -2.2382 H         1 <0>         0.1361
@<TRIPOS>BOND
     1    1    6 ar
     2    1    2 ar
     3    1   28 1
     4    2    3 ar
     5    2   29 1
     6    3    4 ar
     7    3   30 1
     8    4    5 ar
     9    4   20 1
    10    5    6 ar
    11    5    7 1
    12    6   31 1
    13    7    8 2
    14    7    9 am
    15    9   10 1
    16    9   32 1
    17   10   15 ar
    18   10   11 ar
    19   11   12 ar
    20   11   33 1
    21   12   13 ar
    22   12   34 1
    23   13   14 ar
    24   13   35 1
    25   14   15 ar
    26   14   16 1
    27   15   36 1
    28   16   17 1
    29   16   18 1
    30   16   19 1
    31   20   21 1
    32   20   37 1
    33   21   22 1
    34   21   38 1
    35   21   39 1
    36   22   27 ar
    37   22   23 ar
    38   23   24 ar
    39   23   40 1
    40   24   25 ar
    41   24   41 1
    42   25   26 ar
    43   26   27 ar
    44   26   42 1
    45   27   43 1
@<TRIPOS>MOLECULE
ZINC03814434
   62    69     0     0     0
SMALL
USER_CHARGES

@<TRIPOS>ATOM
      1 C1         -0.1295    1.5952   -0.2973 C.3       1 <0>        -0.1687
      2 C2         -0.0862    0.0696   -0.1900 C.3       1 <0>         0.3342
      3 C3          0.5692   -0.4501   -1.4637 C.3       1 <0>         0.0405
      4 H1          1.4796    0.1159   -1.6612 H         1 <0>         0.1372
      5 C4          0.9167   -1.9328   -1.2889 C.3       1 <0>        -0.0061
      6 H2          1.3963   -2.3075   -2.1932 H         1 <0>         0.1555
      7 C5          1.8785   -2.0596   -0.1021 C.3       1 <0>        -0.1827
      8 C6          1.2061   -1.5198    1.1541 C.3       1 <0>         0.2999
      9 H3          1.9797   -1.4243    1.9161 H         1 <0>         0.1550
     10 O1          0.6555   -0.2442    0.9666 O.3       1 <0>        -0.3234
     11 N1          0.2189   -2.4746    1.6600 N.pl3     1 <0>        -0.5366
     12 C7          0.4705   -3.5508    2.4739 C.ar      1 <0>         0.1469
     13 C8          1.6649   -4.0152    3.0240 C.ar      1 <0>        -0.1522
     14 C9          1.5948   -5.1456    3.8201 C.ar      1 <0>        -0.0582
     15 C10         0.4006   -5.7997    4.0696 C.ar      1 <0>        -0.1457
     16 C11        -0.7984   -5.3597    3.5358 C.ar      1 <0>        -0.0280
     17 C12        -0.7487   -4.2198    2.7307 C.ar      1 <0>        -0.1131
     18 C13        -1.7893   -3.4830    2.0197 C.ar      1 <0>         0.0276
     19 C14        -1.1442   -2.4197    1.3841 C.ar      1 <0>         0.0376
     20 C15        -1.8806   -1.5095    0.6175 C.ar      1 <0>         0.0894
     21 N2         -1.4718   -0.3951   -0.1095 N.pl3     1 <0>        -0.5183
     22 C16        -2.5611    0.1913   -0.7090 C.ar      1 <0>         0.1618
     23 C17        -2.6521    1.3277   -1.5118 C.ar      1 <0>        -0.1305
     24 C18        -3.9109    1.6745   -1.9733 C.ar      1 <0>        -0.0737
     25 C19        -5.0393    0.9368   -1.6616 C.ar      1 <0>        -0.1358
     26 C20        -4.9745   -0.1955   -0.8662 C.ar      1 <0>        -0.0503
     27 C21        -3.7147   -0.5596   -0.3919 C.ar      1 <0>        -0.1042
     28 C22        -3.2693   -1.6660    0.4845 C.ar      1 <0>        -0.0360
     29 C23        -3.9084   -2.7313    1.1102 C.ar      1 <0>        -0.0288
     30 C24        -3.1873   -3.6421    1.8754 C.ar      1 <0>        -0.1255
     31 C25        -4.1221   -4.6480    2.4030 C.2       1 <0>         0.5632
     32 O2         -3.8062   -5.5851    3.1110 O.2       1 <0>        -0.5106
     33 N3         -5.3744   -4.3851    1.9926 N.am      1 <0>        -0.7162
     34 C26        -5.3495   -3.1771    1.1601 C.3       1 <0>         0.1358
     35 N4         -0.3067   -2.7008   -1.0216 N.4       1 <0>        -0.5252
     36 C27         0.0145   -4.1336   -0.9773 C.3       1 <0>        -0.0497
     37 O3         -0.3340   -0.2979   -2.5607 O.3       1 <0>        -0.3614
     38 C28         0.3101   -0.0933   -3.8198 C.3       1 <0>         0.0162
     39 H4          0.8261    2.0094    0.0240 H         1 <0>         0.0984
     40 H5         -0.3202    1.8814   -1.3317 H         1 <0>         0.1036
     41 H6         -0.9255    1.9818    0.3392 H         1 <0>         0.0921
     42 H7          2.1370   -3.1081    0.0458 H         1 <0>         0.1233
     43 H8          2.7835   -1.4869   -0.3048 H         1 <0>         0.1455
     44 H9          2.6036   -3.5149    2.8368 H         1 <0>         0.1365
     45 H10         2.5026   -5.5304    4.2610 H         1 <0>         0.1359
     46 H11         0.4045   -6.6780    4.6980 H         1 <0>         0.1352
     47 H12        -1.7278   -5.8736    3.7323 H         1 <0>         0.1600
     48 H13        -1.7792    1.9122   -1.7624 H         1 <0>         0.1440
     49 H14        -4.0153    2.5500   -2.5970 H         1 <0>         0.1336
     50 H15        -5.9967    1.2527   -2.0488 H         1 <0>         0.1332
     51 H16        -5.8575   -0.7687   -0.6249 H         1 <0>         0.1415
     52 H17        -6.1628   -4.9065    2.2103 H         1 <0>         0.4348
     53 H18        -5.9671   -2.3994    1.6094 H         1 <0>         0.1115
     54 H19        -5.7060   -3.4063    0.1559 H         1 <0>         0.1103
     55 H20        -0.6958   -2.4158   -0.1353 H         1 <0>         0.4186
     56 H21         0.4349   -4.4415   -1.9347 H         1 <0>         0.1256
     57 H22         0.7403   -4.3189   -0.1854 H         1 <0>         0.1191
     58 H23        -0.8932   -4.7035   -0.7789 H         1 <0>         0.1256
     59 H24         0.9168    0.8112   -3.7748 H         1 <0>         0.0633
     60 H25         0.9482   -0.9479   -4.0446 H         1 <0>         0.0514
     61 H26        -0.4433    0.0130   -4.6003 H         1 <0>         0.1100
     62 H27        -0.9785   -2.5293   -1.7546 H         1 <0>         0.4274
@<TRIPOS>BOND
     1    1    2 1
     2    1   39 1
     3    1   40 1
     4    1   41 1
     5    2   10 1
     6    2   21 1
     7    2    3 1
     8    3    4 1
     9    3    5 1
    10    3   37 1
    11    5    6 1
    12    5    7 1
    13    5   35 1
    14    7    8 1
    15    7   42 1
    16    7   43 1
    17    8    9 1
    18    8   10 1
    19    8   11 1
    20   11   19 1
    21   11   12 1
    22   12   17 ar
    23   12   13 ar
    24   13   14 ar
    25   13   44 1
    26   14   15 ar
    27   14   45 1
    28   15   16 ar
    29   15   46 1
    30   16   17 ar
    31   16   47 1
    32   17   18 1
    33   18   30 ar
    34   18   19 ar
    35   19   20 ar
    36   20   28 ar
    37   20   21 1
    38   21   22 1
    39   22   27 ar
    40   22   23 ar
    41   23   24 ar
    42   23   48 1
    43   24   25 ar
    44   24   49 1
    45   25   26 ar
    46   25   50 1
    47   26   27 ar
    48   26   51 1
    49   27   28 1
    50   28   29 ar
    51   29   34 1
    52   29   30 ar
    53   30   31 1
    54   31   32 2
    55   31   33 am
    56   33   34 1
    57   33   52 1
    58   34   53 1
    59   34   54 1
    60   35   36 1
    61   35   55 1
    62   35   62 1
    63   36   56 1
    64   36   57 1
    65   36   58 1
    66   37   38 1
    67   38   59 1
    68   38   60 1
    69   38   61 1
@<TRIPOS>MOLECULE
ZINC14852066
   48    49     0     0     0
SMALL
USER_CHARGES

@<TRIPOS>ATOM
      1 C1         -0.0187    1.5258    0.0104 C.3       1 <0>        -0.1902
      2 C2          0.0021   -0.0041    0.0020 C.3       1 <0>         0.1099
      3 H1         -1.0213   -0.3792    0.0098 H         1 <0>         0.1225
      4 C3          0.7117   -0.4941   -1.2603 C.3       1 <0>        -0.1315
      5 C4          1.3803    0.6570   -1.9583 C.2       1 <0>        -0.0692
      6 C5          2.7017    0.8181   -1.8493 C.2       1 <0>        -0.2242
      7 C6          3.3680    1.9252   -2.5435 C.2       1 <0>         0.3696
      8 O1          2.7115    2.7060   -3.2003 O.2       1 <0>        -0.4479
      9 C7          4.8559    2.0998   -2.4470 C.3       1 <0>         0.0704
     10 H2          5.3262    1.1283   -2.2950 H         1 <0>         0.0907
     11 C8          5.1895    3.0179   -1.2680 C.3       1 <0>         0.1256
     12 H3          5.7479    3.8823   -1.6273 H         1 <0>         0.0798
     13 C9          6.0360    2.2514   -0.2480 C.3       1 <0>        -0.1248
     14 C10         5.2825    2.1507    1.0538 C.2       1 <0>        -0.1283
     15 C11         4.6042    1.0526    1.3362 C.2       1 <0>        -0.1087
     16 C12         3.8388    0.8902    2.5804 C.ar      1 <0>         0.0721
     17 C13         4.3861    1.3164    3.7898 C.ar      1 <0>        -0.1728
     18 C14         3.6817    1.1455    4.9738 C.ar      1 <0>         0.1859
     19 C15         2.4255    0.5534    4.9682 C.ar      1 <0>        -0.2571
     20 C16         1.8630    0.1324    3.7761 C.ar      1 <0>         0.2113
     21 C17         2.5606    0.2946    2.5690 C.ar      1 <0>        -0.2000
     22 C18         1.9781   -0.1421    1.2956 C.2       1 <0>         0.5268
     23 O2          2.6973   -0.2041    0.3174 O.2       1 <0>        -0.4835
     24 O3          0.6878   -0.4748    1.1642 O.3       1 <0>        -0.3491
     25 O4          0.6328   -0.4392    3.7740 O.3       1 <0>        -0.4807
     26 O5          4.2252    1.5601    6.1463 O.3       1 <0>        -0.3078
     27 C19         3.4497    1.3557    7.3291 C.3       1 <0>         0.0221
     28 O6          3.9788    3.4568   -0.6486 O.3       1 <0>        -0.5534
     29 O7          5.3461    2.6819   -3.6565 O.3       1 <0>        -0.5470
     30 H4          1.0039    1.9031    0.0027 H         1 <0>         0.0708
     31 H5         -0.5459    1.8868   -0.8726 H         1 <0>         0.0797
     32 H6         -0.5289    1.8773    0.9072 H         1 <0>         0.0648
     33 H7          1.4619   -1.2365   -0.9879 H         1 <0>         0.1008
     34 H8         -0.0172   -0.9492   -1.9309 H         1 <0>         0.0831
     35 H9          0.7985    1.3591   -2.5388 H         1 <0>         0.1164
     36 H10         3.2734    0.1369   -1.2412 H         1 <0>         0.1643
     37 H11         6.2432    1.2504   -0.6265 H         1 <0>         0.0830
     38 H12         6.9752    2.7800   -0.0845 H         1 <0>         0.0857
     39 H13         5.2989    2.9862    1.7379 H         1 <0>         0.1128
     40 H14         4.6552    0.2260    0.6308 H         1 <0>         0.1420
     41 H15         5.3612    1.7805    3.8056 H         1 <0>         0.1441
     42 H16         1.8873    0.4210    5.8951 H         1 <0>         0.1447
     43 H17        -0.0933    0.1904    3.6668 H         1 <0>         0.4007
     44 H18         2.5035    1.8894    7.2399 H         1 <0>         0.0607
     45 H19         3.2556    0.2907    7.4566 H         1 <0>         0.0615
     46 H20         3.9986    1.7309    8.1928 H         1 <0>         0.1065
     47 H21         4.1144    4.0435    0.1081 H         1 <0>         0.3819
     48 H22         5.1714    2.1527   -4.4467 H         1 <0>         0.3861
@<TRIPOS>BOND
     1    1    2 1
     2    1   30 1
     3    1   31 1
     4    1   32 1
     5    2    3 1
     6    2   24 1
     7    2    4 1
     8    4    5 1
     9    4   33 1
    10    4   34 1
    11    5    6 2
    12    5   35 1
    13    6    7 1
    14    6   36 1
    15    7    8 2
    16    7    9 1
    17    9   10 1
    18    9   11 1
    19    9   29 1
    20   11   12 1
    21   11   13 1
    22   11   28 1
    23   13   14 1
    24   13   37 1
    25   13   38 1
    26   14   15 2
    27   14   39 1
    28   15   16 1
    29   15   40 1
    30   16   21 ar
    31   16   17 ar
    32   17   18 ar
    33   17   41 1
    34   18   19 ar
    35   18   26 1
    36   19   20 ar
    37   19   42 1
    38   20   21 ar
    39   20   25 1
    40   21   22 1
    41   22   23 2
    42   22   24 1
    43   25   43 1
    44   26   27 1
    45   27   44 1
    46   27   45 1
    47   27   46 1
    48   28   47 1
    49   29   48 1
@<TRIPOS>MOLECULE
ZINC14852066
   48    49     0     0     0
SMALL
USER_CHARGES

@<TRIPOS>ATOM
      1 C1         -0.0187    1.5258    0.0104 C.3       1 <0>        -0.1782
      2 C2          0.0021   -0.0041    0.0020 C.3       1 <0>         0.1059
      3 H1         -1.0202   -0.3821    0.0097 H         1 <0>         0.1065
      4 C3          0.7214   -0.4993   -1.2571 C.3       1 <0>        -0.2337
      5 C4          0.9926    0.6676   -2.1719 C.2       1 <0>        -0.0239
      6 C5          2.2327    0.8804   -2.6274 C.2       1 <0>        -0.2524
      7 C6          3.3216   -0.0106   -2.2391 C.2       1 <0>         0.3565
      8 O1          3.0972   -0.9579   -1.5151 O.2       1 <0>        -0.3921
      9 C7          4.7243    0.2403   -2.7329 C.3       1 <0>         0.0775
     10 H2          4.6903    0.5739   -3.7700 H         1 <0>         0.0902
     11 C8          5.5353   -1.0528   -2.6394 C.3       1 <0>         0.1183
     12 H3          4.8562   -1.9036   -2.5842 H         1 <0>         0.0767
     13 C9          6.4150   -1.0217   -1.3875 C.3       1 <0>        -0.1211
     14 C10         5.7492   -1.8245   -0.2972 C.2       1 <0>        -0.1407
     15 C11         4.7118   -1.3199    0.3472 C.2       1 <0>        -0.1201
     16 C12         4.0408   -2.0709    1.4214 C.ar      1 <0>         0.0738
     17 C13         4.7005   -3.0796    2.1095 C.ar      1 <0>        -0.1758
     18 C14         4.0463   -3.7677    3.1229 C.ar      1 <0>         0.1867
     19 C15         2.7421   -3.4458    3.4552 C.ar      1 <0>        -0.2633
     20 C16         2.0660   -2.4427    2.7907 C.ar      1 <0>         0.2133
     21 C17         2.7063   -1.7502    1.7571 C.ar      1 <0>        -0.2009
     22 C18         2.0150   -0.7034    1.0028 C.2       1 <0>         0.5163
     23 O2          2.6441   -0.0218    0.2169 O.2       1 <0>        -0.4694
     24 O3          0.6975   -0.4800    1.1622 O.3       1 <0>        -0.3396
     25 O4          0.7918   -2.1312    3.1363 O.3       1 <0>        -0.4793
     26 O5          4.6885   -4.7601    3.7898 O.3       1 <0>        -0.3082
     27 C19         3.9578   -5.4273    4.8208 C.3       1 <0>         0.0226
     28 O6          6.3629   -1.1796   -3.7975 O.3       1 <0>        -0.5677
     29 O7          5.3395    1.2482   -1.9281 O.3       1 <0>        -0.5329
     30 H4          1.0039    1.9031    0.0027 H         1 <0>         0.0702
     31 H5         -0.5459    1.8868   -0.8726 H         1 <0>         0.0718
     32 H6         -0.5289    1.8773    0.9072 H         1 <0>         0.0632
     33 H7          1.6646   -0.9678   -0.9763 H         1 <0>         0.1854
     34 H8          0.0935   -1.2264   -1.7721 H         1 <0>         0.0805
     35 H9          0.1918    1.3244   -2.4742 H         1 <0>         0.1212
     36 H10         2.4263    1.7062   -3.2931 H         1 <0>         0.1283
     37 H11         7.3892   -1.4544   -1.6156 H         1 <0>         0.0742
     38 H12         6.5412    0.0090   -1.0560 H         1 <0>         0.1072
     39 H13         6.1067   -2.8144   -0.0623 H         1 <0>         0.1057
     40 H14         4.3547   -0.3298    0.0969 H         1 <0>         0.1711
     41 H15         5.7205   -3.3292    1.8570 H         1 <0>         0.1430
     42 H16         2.2456   -3.9881    4.2463 H         1 <0>         0.1411
     43 H17         0.7249   -1.4505    3.8198 H         1 <0>         0.3997
     44 H18         3.6630   -4.7055    5.5826 H         1 <0>         0.0602
     45 H19         3.0675   -5.8894    4.3943 H         1 <0>         0.0606
     46 H20         4.5854   -6.1958    5.2719 H         1 <0>         0.1057
     47 H21         6.9070   -1.9789   -3.8064 H         1 <0>         0.3845
     48 H22         4.8770    2.0973   -1.9394 H         1 <0>         0.3814
@<TRIPOS>BOND
     1    1    2 1
     2    1   30 1
     3    1   31 1
     4    1   32 1
     5    2    3 1
     6    2   24 1
     7    2    4 1
     8    4    5 1
     9    4   33 1
    10    4   34 1
    11    5    6 2
    12    5   35 1
    13    6    7 1
    14    6   36 1
    15    7    8 2
    16    7    9 1
    17    9   10 1
    18    9   11 1
    19    9   29 1
    20   11   12 1
    21   11   13 1
    22   11   28 1
    23   13   14 1
    24   13   37 1
    25   13   38 1
    26   14   15 2
    27   14   39 1
    28   15   16 1
    29   15   40 1
    30   16   21 ar
    31   16   17 ar
    32   17   18 ar
    33   17   41 1
    34   18   19 ar
    35   18   26 1
    36   19   20 ar
    37   19   42 1
    38   20   21 ar
    39   20   25 1
    40   21   22 1
    41   22   23 2
    42   22   24 1
    43   25   43 1
    44   26   27 1
    45   27   44 1
    46   27   45 1
    47   27   46 1
    48   28   47 1
    49   29   48 1
@<TRIPOS>MOLECULE
ZINC66080466
   42    43     0     0     0
SMALL
USER_CHARGES

@<TRIPOS>ATOM
      1 C1         -0.3101    1.5787   -1.0405 C.3       1 <0>        -0.1668
      2 C2         -0.3320    0.0570   -1.1974 C.3       1 <0>         0.1311
      3 N1         -1.5362   -0.4823   -0.5606 N.am      1 <0>        -0.7393
      4 C3         -1.7687   -1.8098   -0.5740 C.2       1 <0>         0.7058
      5 O1         -0.9789   -2.5599   -1.1145 O.2       1 <0>        -0.5690
      6 N2         -2.8765   -2.3058    0.0118 N.am      1 <0>        -0.6835
      7 C4         -3.1662   -3.6741   -0.0823 C.ar      1 <0>         0.1845
      8 C5         -2.1350   -4.6035   -0.0898 C.ar      1 <0>        -0.0954
      9 C6         -2.4208   -5.9513   -0.1820 C.ar      1 <0>        -0.0793
     10 C7         -3.7385   -6.3775   -0.2673 C.ar      1 <0>         0.0822
     11 C8         -4.7700   -5.4501   -0.2604 C.ar      1 <0>        -0.0847
     12 C9         -4.4858   -4.1012   -0.1624 C.ar      1 <0>        -0.0559
     13 Cl1        -5.7767   -2.9406   -0.1465 Cl        1 <0>        -0.0562
     14 O2         -4.0188   -7.7048   -0.3580 O.3       1 <0>        -0.2053
     15 C10        -3.9030   -8.4569    0.7618 C.ar      1 <0>         0.4177
     16 C11        -4.2732   -9.8122    0.7537 C.ar      1 <0>        -0.2481
     17 C12        -4.1301  -10.5425    1.9485 C.ar      1 <0>         0.4947
     18 N3         -3.6545   -9.9229    3.0250 N.ar      1 <0>        -0.5919
     19 C13        -3.3207   -8.6491    2.9830 C.ar      1 <0>         0.3938
     20 N4         -3.4323   -7.9276    1.8856 N.ar      1 <0>        -0.6014
     21 N5         -4.4780  -11.8787    2.0022 N.pl3     1 <0>        -0.8212
     22 C14        -4.7952  -10.4490   -0.4668 C.2       1 <0>         0.1542
     23 N6         -4.8272   -9.7871   -1.5796 N.2       1 <0>        -0.3129
     24 O3         -5.3292  -10.3995   -2.7535 O.3       1 <0>        -0.2467
     25 C15        -5.3053   -9.5545   -3.9057 C.3       1 <0>         0.0475
     26 H1          0.5858    1.9800   -1.5143 H         1 <0>         0.0781
     27 H2         -1.1939    2.0056   -1.5146 H         1 <0>         0.0627
     28 H3         -0.3066    1.8348    0.0190 H         1 <0>         0.0628
     29 H4         -0.3356   -0.1991   -2.2568 H         1 <0>         0.0697
     30 H5          0.5518   -0.3699   -0.7233 H         1 <0>         0.0700
     31 H6         -2.1662    0.1161   -0.1294 H         1 <0>         0.3993
     32 H7         -3.4733   -1.7161    0.4985 H         1 <0>         0.4102
     33 H8         -1.1091   -4.2723   -0.0238 H         1 <0>         0.1584
     34 H9         -1.6183   -6.6740   -0.1882 H         1 <0>         0.1369
     35 H10        -5.7954   -5.7824   -0.3274 H         1 <0>         0.1437
     36 H11        -2.9380   -8.1809    3.8779 H         1 <0>         0.2061
     37 H12        -4.7550  -12.3405    1.1954 H         1 <0>         0.4144
     38 H13        -4.4452  -12.3549    2.8466 H         1 <0>         0.4161
     39 H14        -5.1515  -11.4680   -0.4342 H         1 <0>         0.1202
     40 H15        -4.2787   -9.2532   -4.1140 H         1 <0>         0.0507
     41 H16        -5.7057  -10.0967   -4.7623 H         1 <0>         0.0961
     42 H17        -5.9132   -8.6691   -3.7196 H         1 <0>         0.0507
@<TRIPOS>BOND
     1    1    2 1
     2    1   26 1
     3    1   27 1
     4    1   28 1
     5    2    3 1
     6    2   29 1
     7    2   30 1
     8    3    4 am
     9    3   31 1
    10    4    5 2
    11    4    6 am
    12    6    7 1
    13    6   32 1
    14    7   12 ar
    15    7    8 ar
    16    8    9 ar
    17    8   33 1
    18    9   10 ar
    19    9   34 1
    20   10   11 ar
    21   10   14 1
    22   11   12 ar
    23   11   35 1
    24   12   13 1
    25   14   15 1
    26   15   20 ar
    27   15   16 ar
    28   16   17 ar
    29   16   22 1
    30   17   18 ar
    31   17   21 1
    32   18   19 ar
    33   19   20 ar
    34   19   36 1
    35   21   37 1
    36   21   38 1
    37   22   23 2
    38   22   39 1
    39   23   24 1
    40   24   25 1
    41   25   40 1
    42   25   41 1
    43   25   42 1
@<TRIPOS>MOLECULE
ZINC18825344
   59    62     0     0     0
SMALL
USER_CHARGES
5-[(Z)-(5-fluoro-2-oxo-indolin-3-ylidene)methyl]-N-[(2S)-2-hydroxy-3-morpholino-propyl]-2,4-dimethyl-1H-pyrrole-3-carboxamide
@<TRIPOS>ATOM
      1 C1          4.7056    0.6287    1.0117 C.3       1 <0>        -0.0968
      2 C2          3.2464    0.8378    0.6983 C.2       1 <0>        -0.0523
      3 C3          2.5980    2.0501    0.5678 C.2       1 <0>        -0.0327
      4 N1          1.2732    1.7961    0.2789 N.pl3     1 <0>        -0.5060
      5 H1          0.5720    2.6311    0.1339 H         1 <0>         0.4496
      6 C4          1.0783    0.4679    0.2258 C.2       1 <0>         0.1246
      7 C5          2.2801   -0.1676    0.4808 C.2       1 <0>        -0.2308
      8 C6          2.5088   -1.6234    0.5191 C.2       1 <0>         0.5976
      9 O1          2.8262   -2.2159   -0.4944 O.2       1 <0>        -0.5428
     10 N2          2.3662   -2.2977    1.6773 N.am      1 <0>        -0.7254
     11 C7          2.5935   -3.7444    1.7154 C.3       1 <0>         0.1298
     12 C8          2.3672   -4.2590    3.1384 C.3       1 <0>         0.1172
     13 H2          1.3599   -4.0040    3.4994 H         1 <0>         0.0560
     14 C9          2.6045   -5.7699    3.1781 C.3       1 <0>         0.0219
     15 N3          2.3382   -6.2720    4.5327 N.3       1 <0>        -0.5356
     16 C10         2.9762   -7.5793    4.7450 C.3       1 <0>         0.0168
     17 C11         2.7241   -8.0365    6.1842 C.3       1 <0>         0.0612
     18 O2          1.3152   -8.0759    6.4267 O.3       1 <0>        -0.3844
     19 C12         0.6618   -6.8191    6.2299 C.3       1 <0>         0.0617
     20 C13         0.8930   -6.3496    4.7911 C.3       1 <0>         0.0111
     21 O3          3.2765   -3.6103    4.0297 O.3       1 <0>        -0.5892
     22 C14        -0.2328   -0.2165   -0.0637 C.3       1 <0>        -0.0987
     23 C15         3.1876    3.3256    0.7056 C.2       1 <0>         0.0935
     24 C16         2.4515    4.3746    1.2192 C.2       1 <0>        -0.2157
     25 C17         2.8515    5.7966    1.3077 C.ar      1 <0>        -0.0669
     26 C18         3.9943    6.4912    0.9234 C.ar      1 <0>        -0.1048
     27 C19         4.0710    7.8545    1.1363 C.ar      1 <0>         0.0814
     28 C20         3.0098    8.5263    1.7247 C.ar      1 <0>        -0.1204
     29 C21         1.8704    7.8457    2.1029 C.ar      1 <0>        -0.1055
     30 C22         1.7753    6.4739    1.8965 C.ar      1 <0>         0.1237
     31 N4          0.7622    5.5637    2.1775 N.am      1 <0>        -0.6596
     32 C23         1.1039    4.3195    1.8021 C.2       1 <0>         0.5657
     33 O4          0.4171    3.3209    1.9242 O.2       1 <0>        -0.5153
     34 F1          5.1807    8.5334    0.7715 F         1 <0>        -0.1355
     35 H3          5.1994    1.6049    1.1269 H         1 <0>         0.0668
     36 H4          5.1808    0.0720    0.1906 H         1 <0>         0.0744
     37 H5          4.8016    0.0567    1.9464 H         1 <0>         0.0741
     38 H6          2.0791   -1.7617    2.5940 H         1 <0>         0.4273
     39 H7          1.8935   -4.2437    1.0293 H         1 <0>         0.0777
     40 H8          3.6268   -3.9615    1.4070 H         1 <0>         0.0736
     41 H9          1.9304   -6.2658    2.4641 H         1 <0>         0.0486
     42 H10         3.6486   -5.9844    2.9062 H         1 <0>         0.0884
     43 H11         2.5501   -8.3132    4.0451 H         1 <0>         0.0451
     44 H12         4.0587   -7.4917    4.5704 H         1 <0>         0.0900
     45 H13         3.1515   -9.0395    6.3305 H         1 <0>         0.1008
     46 H14         3.1986   -7.3305    6.8817 H         1 <0>         0.0620
     47 H15        -0.4170   -6.9344    6.4112 H         1 <0>         0.1000
     48 H16         1.0741   -6.0778    6.9303 H         1 <0>         0.0613
     49 H17         0.4415   -5.3564    4.6504 H         1 <0>         0.0873
     50 H18         0.4333   -7.0637    4.0920 H         1 <0>         0.0461
     51 H19         3.2627   -3.8533    5.1024 H         1 <0>         0.4141
     52 H20        -0.0899   -1.3070   -0.0417 H         1 <0>         0.0829
     53 H21        -0.5927    0.0862   -1.0581 H         1 <0>         0.0781
     54 H22        -0.9728    0.0718    0.6974 H         1 <0>         0.0803
     55 H23         4.2335    3.4835    0.4037 H         1 <0>         0.1584
     56 H24         4.8196    5.9664    0.4654 H         1 <0>         0.1411
     57 H25         3.0756    9.5918    1.8882 H         1 <0>         0.1443
     58 H26         1.0507    8.3797    2.5605 H         1 <0>         0.1385
     59 H27        -0.1701    5.9069    2.6497 H         1 <0>         0.4455
@<TRIPOS>BOND
     1    1    2 1
     2    1   35 1
     3    1   36 1
     4    1   37 1
     5    2    7 1
     6    2    3 2
     7    3    4 1
     8    3   23 1
     9    4    5 1
    10    4    6 1
    11    6    7 2
    12    6   22 1
    13    7    8 1
    14    8    9 2
    15    8   10 am
    16   10   11 1
    17   10   38 1
    18   11   12 1
    19   11   39 1
    20   11   40 1
    21   12   13 1
    22   12   14 1
    23   12   21 1
    24   14   15 1
    25   14   41 1
    26   14   42 1
    27   15   20 1
    28   15   16 1
    29   16   17 1
    30   16   43 1
    31   16   44 1
    32   17   18 1
    33   17   45 1
    34   17   46 1
    35   18   19 1
    36   19   20 1
    37   19   47 1
    38   19   48 1
    39   20   49 1
    40   20   50 1
    41   21   51 1
    42   22   52 1
    43   22   53 1
    44   22   54 1
    45   23   24 2
    46   23   55 1
    47   24   32 1
    48   24   25 1
    49   25   30 ar
    50   25   26 ar
    51   26   27 ar
    52   26   56 1
    53   27   28 ar
    54   27   34 1
    55   28   29 ar
    56   28   57 1
    57   29   30 ar
    58   29   58 1
    59   30   31 1
    60   31   32 am
    61   31   59 1
    62   32   33 2
@<TRIPOS>MOLECULE
ZINC22063639
   51    54     0     0     0
SMALL
USER_CHARGES
4-(chloromethyl)-N-[4-methyl-3-[[4-(3-pyridyl)pyrimidin-2-yl]amino]phenyl]benzamide
@<TRIPOS>ATOM
      1 C1          4.4030    4.1054    0.0288 C.3       1 <0>        -0.1127
      2 C2          3.0731    3.3967    0.0222 C.ar      1 <0>        -0.1382
      3 C3          3.0202    2.0304   -0.1769 C.ar      1 <0>        -0.0756
      4 C4          1.8036    1.3761   -0.1776 C.ar      1 <0>        -0.1472
      5 C5          0.6275    2.0924    0.0098 C.ar      1 <0>         0.1689
      6 C6          0.6771    3.4644    0.2096 C.ar      1 <0>        -0.1571
      7 C7          1.9015    4.1179    0.2158 C.ar      1 <0>         0.1918
      8 N1          1.9558    5.5005    0.4163 N.pl3     1 <0>        -0.6429
      9 C8          0.8615    6.2896    0.1016 C.ar      1 <0>         0.5681
     10 N2         -0.1777    5.7384   -0.5091 N.ar      1 <0>        -0.5557
     11 C9         -1.2418    6.4584   -0.8265 C.ar      1 <0>         0.1929
     12 C10        -1.2649    7.8063   -0.5140 C.ar      1 <0>        -0.2734
     13 C11        -0.1550    8.3594    0.1298 C.ar      1 <0>         0.2659
     14 N3          0.8784    7.5733    0.4233 N.ar      1 <0>        -0.5603
     15 C12        -0.1313    9.7987    0.4864 C.ar      1 <0>        -0.1156
     16 C13         0.9790   10.3529    1.1306 C.ar      1 <0>        -0.0278
     17 C14         0.9518   11.7012    1.4420 C.ar      1 <0>        -0.1783
     18 C15        -0.1623   12.4502    1.1091 C.ar      1 <0>         0.1162
     19 N4         -1.1953   11.8994    0.5013 N.ar      1 <0>        -0.4848
     20 C16        -1.2128   10.6220    0.1798 C.ar      1 <0>         0.1327
     21 N5         -0.6041    1.4301    0.0028 N.am      1 <0>        -0.6756
     22 C17        -0.7538    0.2931   -0.7053 C.2       1 <0>         0.5603
     23 O1          0.1506   -0.1059   -1.4128 O.2       1 <0>        -0.5143
     24 C18        -2.0177   -0.4688   -0.6215 C.ar      1 <0>        -0.1253
     25 C19        -3.0561   -0.0165    0.1945 C.ar      1 <0>        -0.0852
     26 C20        -4.2350   -0.7295    0.2641 C.ar      1 <0>        -0.1056
     27 C21        -4.3852   -1.8966   -0.4637 C.ar      1 <0>        -0.0800
     28 C22        -3.3580   -2.3532   -1.2704 C.ar      1 <0>        -0.1051
     29 C23        -2.1760   -1.6467   -1.3535 C.ar      1 <0>        -0.0569
     30 C24        -5.6736   -2.6736   -0.3779 C.3       1 <0>        -0.0021
     31 Cl1        -5.5614   -3.8775    0.9596 Cl        1 <0>        -0.1679
     32 H1          5.2084    3.3752   -0.1390 H         1 <0>         0.0713
     33 H2          4.5512    4.5978    1.0012 H         1 <0>         0.0649
     34 H3          4.4201    4.8605   -0.7710 H         1 <0>         0.0662
     35 H4          3.9323    1.4721   -0.3272 H         1 <0>         0.1286
     36 H5          1.7660    0.3073   -0.3283 H         1 <0>         0.1394
     37 H6         -0.2351    4.0227    0.3602 H         1 <0>         0.1508
     38 H7          2.8674    5.9618    0.8239 H         1 <0>         0.4492
     39 H8         -2.0829    5.9991   -1.3244 H         1 <0>         0.1732
     40 H9         -2.1207    8.4165   -0.7621 H         1 <0>         0.1493
     41 H10         1.8358    9.7443    1.3792 H         1 <0>         0.1467
     42 H11         1.7917   12.1635    1.9392 H         1 <0>         0.1423
     43 H12        -0.1867   13.5027    1.3503 H         1 <0>         0.1618
     44 H13        -2.0752   10.2082   -0.3217 H         1 <0>         0.1623
     45 H14        -1.4507    1.8371    0.5752 H         1 <0>         0.4308
     46 H15        -2.9383    0.8918    0.7669 H         1 <0>         0.1291
     47 H16        -5.0410   -0.3782    0.8913 H         1 <0>         0.1338
     48 H17        -3.4819   -3.2646   -1.8365 H         1 <0>         0.1349
     49 H18        -1.3751   -2.0041   -1.9838 H         1 <0>         0.1413
     50 H19        -6.5061   -1.9824   -0.1802 H         1 <0>         0.1072
     51 H20        -5.8499   -3.1974   -1.3290 H         1 <0>         0.1075
@<TRIPOS>BOND
     1    1    2 1
     2    1   32 1
     3    1   33 1
     4    1   34 1
     5    2    7 ar
     6    2    3 ar
     7    3    4 ar
     8    3   35 1
     9    4    5 ar
    10    4   36 1
    11    5    6 ar
    12    5   21 1
    13    6    7 ar
    14    6   37 1
    15    7    8 1
    16    8    9 1
    17    8   38 1
    18    9   14 ar
    19    9   10 ar
    20   10   11 ar
    21   11   12 ar
    22   11   39 1
    23   12   13 ar
    24   12   40 1
    25   13   14 ar
    26   13   15 1
    27   15   20 ar
    28   15   16 ar
    29   16   17 ar
    30   16   41 1
    31   17   18 ar
    32   17   42 1
    33   18   19 ar
    34   18   43 1
    35   19   20 ar
    36   20   44 1
    37   21   22 am
    38   21   45 1
    39   22   23 2
    40   22   24 1
    41   24   29 ar
    42   24   25 ar
    43   25   26 ar
    44   25   46 1
    45   26   27 ar
    46   26   47 1
    47   27   28 ar
    48   27   30 1
    49   28   29 ar
    50   28   48 1
    51   29   49 1
    52   30   31 1
    53   30   50 1
    54   30   51 1
@<TRIPOS>MOLECULE
ZINC01490414
   52    55     0     0     0
SMALL
USER_CHARGES

@<TRIPOS>ATOM
      1 C1         -0.6644    0.1999    2.1288 C.3       1 <0>         0.0227
      2 O1         -0.2490   -0.4837    0.9447 O.3       1 <0>        -0.3014
      3 C2         -1.1008   -0.4563   -0.1150 C.ar      1 <0>         0.1144
      4 C3         -2.2870    0.2111   -0.0113 C.ar      1 <0>        -0.1551
      5 C4         -3.1654    0.2398   -1.1048 C.ar      1 <0>        -0.1058
      6 C5         -4.4014    0.9209   -1.0345 C.ar      1 <0>         0.1817
      7 C6         -5.2152    0.9056   -2.1537 C.ar      1 <0>        -0.2659
      8 C7         -4.8020    0.2326   -3.2965 C.ar      1 <0>         0.1644
      9 N1         -3.6520   -0.3973   -3.3510 N.ar      1 <0>        -0.4922
     10 C8         -2.8156   -0.4230   -2.3065 C.ar      1 <0>         0.1715
     11 C9         -1.5880   -1.1016   -2.3822 C.ar      1 <0>        -0.1796
     12 C10        -0.7492   -1.1089   -1.3052 C.ar      1 <0>         0.1517
     13 O2          0.4396   -1.7622   -1.3857 O.3       1 <0>        -0.2996
     14 C11         0.7423   -2.4082   -2.6238 C.3       1 <0>         0.0208
     15 O3         -4.7788    1.5691    0.0950 O.3       1 <0>        -0.2423
     16 C12        -5.9332    2.2865    0.0637 C.ar      1 <0>         0.0933
     17 C13        -7.1567    1.6337    0.1091 C.ar      1 <0>        -0.1160
     18 C14        -8.3303    2.3611    0.0779 C.ar      1 <0>        -0.0775
     19 C15        -8.2868    3.7461    0.0011 C.ar      1 <0>         0.1383
     20 C16        -7.0610    4.4008   -0.0445 C.ar      1 <0>         0.0922
     21 C17        -5.8871    3.6713   -0.0078 C.ar      1 <0>        -0.1324
     22 F1         -7.0171    5.7490   -0.1193 F         1 <0>        -0.1274
     23 N2         -9.4784    4.4849   -0.0311 N.am      1 <0>        -0.6761
     24 C18       -10.5534    4.0603    0.6621 C.2       1 <0>         0.7120
     25 O4        -10.5151    2.9983    1.2531 O.2       1 <0>        -0.5493
     26 N3        -11.6709    4.8128    0.7002 N.am      1 <0>        -0.6751
     27 C19       -12.7444    4.4326    1.5175 C.ar      1 <0>         0.1221
     28 C20       -12.5052    3.8002    2.7295 C.ar      1 <0>        -0.0630
     29 C21       -13.5643    3.4266    3.5341 C.ar      1 <0>        -0.1392
     30 C22       -14.8647    3.6822    3.1328 C.ar      1 <0>         0.1191
     31 C23       -15.1074    4.3124    1.9242 C.ar      1 <0>        -0.1703
     32 C24       -14.0502    4.6935    1.1180 C.ar      1 <0>         0.1058
     33 F2        -14.2863    5.3139   -0.0587 F         1 <0>        -0.1272
     34 F3        -15.8983    3.3156    3.9218 F         1 <0>        -0.1280
     35 H1          0.1046    0.0999    2.8948 H         1 <0>         0.1051
     36 H2         -0.8183    1.2553    1.9040 H         1 <0>         0.0581
     37 H3         -1.5965   -0.2342    2.4909 H         1 <0>         0.0585
     38 H4         -2.5481    0.7142    0.9080 H         1 <0>         0.1494
     39 H5         -6.1676    1.4145   -2.1385 H         1 <0>         0.1425
     40 H6         -5.4452    0.2272   -4.1641 H         1 <0>         0.1633
     41 H7         -1.3066   -1.6122   -3.2913 H         1 <0>         0.1544
     42 H8         -0.0191   -3.1581   -2.8381 H         1 <0>         0.0610
     43 H9          0.7596   -1.6689   -3.4246 H         1 <0>         0.0608
     44 H10         1.7174   -2.8902   -2.5533 H         1 <0>         0.1059
     45 H11        -7.1913    0.5559    0.1685 H         1 <0>         0.1459
     46 H12        -9.2822    1.8520    0.1129 H         1 <0>         0.1632
     47 H13        -4.9344    4.1791   -0.0390 H         1 <0>         0.1526
     48 H14        -9.5289    5.3014   -0.5523 H         1 <0>         0.4156
     49 H15       -11.7323    5.6175    0.1620 H         1 <0>         0.4151
     50 H16       -11.4914    3.6000    3.0434 H         1 <0>         0.1568
     51 H17       -13.3777    2.9342    4.4770 H         1 <0>         0.1498
     52 H18       -16.1224    4.5102    1.6127 H         1 <0>         0.1554
@<TRIPOS>BOND
     1    1    2 1
     2    1   35 1
     3    1   36 1
     4    1   37 1
     5    2    3 1
     6    3   12 ar
     7    3    4 ar
     8    4    5 ar
     9    4   38 1
    10    5   10 ar
    11    5    6 ar
    12    6    7 ar
    13    6   15 1
    14    7    8 ar
    15    7   39 1
    16    8    9 ar
    17    8   40 1
    18    9   10 ar
    19   10   11 ar
    20   11   12 ar
    21   11   41 1
    22   12   13 1
    23   13   14 1
    24   14   42 1
    25   14   43 1
    26   14   44 1
    27   15   16 1
    28   16   21 ar
    29   16   17 ar
    30   17   18 ar
    31   17   45 1
    32   18   19 ar
    33   18   46 1
    34   19   20 ar
    35   19   23 1
    36   20   21 ar
    37   20   22 1
    38   21   47 1
    39   23   24 am
    40   23   48 1
    41   24   25 2
    42   24   26 am
    43   26   27 1
    44   26   49 1
    45   27   32 ar
    46   27   28 ar
    47   28   29 ar
    48   28   50 1
    49   29   30 ar
    50   29   51 1
    51   30   31 ar
    52   30   34 1
    53   31   32 ar
    54   31   52 1
    55   32   33 1
@<TRIPOS>MOLECULE
ZINC72105034
   70    73     0     0     0
SMALL
USER_CHARGES

@<TRIPOS>ATOM
      1 C1         -3.0465   -3.1127   14.8741 C.3       1 <0>        -0.1892
      2 C2         -3.2466   -2.2549   13.6230 C.3       1 <0>        -0.0108
      3 N1         -4.1264   -2.9600   12.6814 N.4       1 <0>        -0.3829
      4 C3         -3.4647   -4.1874   12.2214 C.3       1 <0>        -0.0274
      5 C4         -4.4254   -4.9810   11.3297 C.3       1 <0>         0.1010
      6 N2         -4.8919   -4.1005   10.2474 N.pl3     1 <0>        -0.6456
      7 C5         -5.4217   -2.7770   10.6103 C.3       1 <0>         0.1015
      8 C6         -4.4140   -2.0875   11.5359 C.3       1 <0>        -0.0220
      9 C7         -4.8337   -4.5106    8.9106 C.ar      1 <0>         0.1766
     10 C8         -4.2262   -5.7148    8.5795 C.ar      1 <0>        -0.1629
     11 C9         -4.1692   -6.1195    7.2606 C.ar      1 <0>        -0.0646
     12 C10        -4.7193   -5.3226    6.2653 C.ar      1 <0>         0.1310
     13 C11        -5.3268   -4.1185    6.5964 C.ar      1 <0>        -0.1041
     14 C12        -5.3885   -3.7162    7.9158 C.ar      1 <0>        -0.1629
     15 N3         -4.6611   -5.7330    4.9274 N.pl3     1 <0>        -0.6533
     16 C13        -4.7431   -7.0808    4.6114 C.ar      1 <0>         0.4484
     17 C14        -4.5642   -7.5111    3.2990 C.ar      1 <0>        -0.3232
     18 C15        -4.6563   -8.8727    3.0342 C.ar      1 <0>         0.4562
     19 N4         -4.9104   -9.7105    4.0371 N.ar      1 <0>        -0.5358
     20 C16        -5.0737   -9.2649    5.2660 C.ar      1 <0>         0.3663
     21 N5         -4.9887   -7.9832    5.5591 N.ar      1 <0>        -0.5884
     22 N6         -4.4859   -9.3527    1.7400 N.am      1 <0>        -0.5513
     23 C17        -4.0993   -8.4367    0.6640 C.3       1 <0>         0.0633
     24 C18        -4.6764  -10.6605    1.4758 C.2       1 <0>         0.6965
     25 O1         -4.9972  -11.4206    2.3688 O.2       1 <0>        -0.4771
     26 N7         -4.5113  -11.1256    0.2217 N.am      1 <0>        -0.6806
     27 C19        -4.5933  -12.5005   -0.0317 C.ar      1 <0>         0.2488
     28 C20        -3.5635  -13.1459   -0.7035 C.ar      1 <0>        -0.1156
     29 C21        -3.6457  -14.5077   -0.9540 C.ar      1 <0>         0.1985
     30 C22        -4.7561  -15.2246   -0.5342 C.ar      1 <0>        -0.2856
     31 C23        -5.7851  -14.5810    0.1368 C.ar      1 <0>         0.1981
     32 C24        -5.7020  -13.2205    0.3937 C.ar      1 <0>        -0.0913
     33 Cl1        -6.9867  -12.4166    1.2405 Cl        1 <0>        -0.0174
     34 O2         -6.8731  -15.2849    0.5478 O.3       1 <0>        -0.2934
     35 C25        -6.8895  -16.6834    0.2548 C.3       1 <0>         0.0217
     36 O3         -2.6377  -15.1397   -1.6116 O.3       1 <0>        -0.2949
     37 C26        -2.7887  -16.5430   -1.8355 C.3       1 <0>         0.0219
     38 Cl2        -2.1738  -12.2486   -1.2302 Cl        1 <0>        -0.0383
     39 H1         -2.3937   -2.5895   15.5727 H         1 <0>         0.1068
     40 H2         -4.0114   -3.2967   15.3466 H         1 <0>         0.0809
     41 H3         -2.5919   -4.0630   14.5941 H         1 <0>         0.0805
     42 H4         -3.7012   -1.3046   13.9030 H         1 <0>         0.1310
     43 H5         -2.2817   -2.0709   13.1505 H         1 <0>         0.1281
     44 H6         -2.5717   -3.9277   11.6528 H         1 <0>         0.1321
     45 H7         -3.1838   -4.7935   13.0827 H         1 <0>         0.1410
     46 H8         -3.9058   -5.8399   10.9049 H         1 <0>         0.1268
     47 H9         -5.2773   -5.3195   11.9194 H         1 <0>         0.0863
     48 H10        -5.5608   -2.1788    9.7098 H         1 <0>         0.1256
     49 H11        -6.3742   -2.8930   11.1273 H         1 <0>         0.0858
     50 H12        -4.8326   -1.1462   11.8921 H         1 <0>         0.1394
     51 H13        -3.4923   -1.8913   10.9881 H         1 <0>         0.1318
     52 H14        -3.7980   -6.3344    9.3535 H         1 <0>         0.1245
     53 H15        -3.6964   -7.0558    7.0031 H         1 <0>         0.1406
     54 H16        -5.7546   -3.4987    5.8223 H         1 <0>         0.1287
     55 H17        -5.8648   -2.7819    8.1738 H         1 <0>         0.1249
     56 H18        -4.5634   -5.0745    4.2219 H         1 <0>         0.4207
     57 H19        -4.3595   -6.8053    2.5076 H         1 <0>         0.1461
     58 H20        -5.2787   -9.9712    6.0569 H         1 <0>         0.2006
     59 H21        -3.0123   -8.3941    0.5961 H         1 <0>         0.0784
     60 H22        -4.5087   -8.7932   -0.2812 H         1 <0>         0.0834
     61 H23        -4.4893   -7.4413    0.8765 H         1 <0>         0.0916
     62 H24        -4.3356  -10.5081   -0.5055 H         1 <0>         0.4126
     63 H25        -4.8197  -16.2847   -0.7302 H         1 <0>         0.1546
     64 H26        -7.8108  -17.1238    0.6364 H         1 <0>         0.1096
     65 H27        -6.8368  -16.8293   -0.8241 H         1 <0>         0.0610
     66 H28        -6.0336  -17.1640    0.7287 H         1 <0>         0.0609
     67 H29        -3.6841  -16.7217   -2.4308 H         1 <0>         0.0613
     68 H30        -1.9165  -16.9218   -2.3683 H         1 <0>         0.1099
     69 H31        -2.8806  -17.0558   -0.8781 H         1 <0>         0.0610
     70 H32        -4.9899   -3.1998   13.1451 H         1 <0>         0.4221
@<TRIPOS>BOND
     1    1    2 1
     2    1   39 1
     3    1   40 1
     4    1   41 1
     5    2    3 1
     6    2   42 1
     7    2   43 1
     8    3    8 1
     9    3    4 1
    10    3   70 1
    11    4    5 1
    12    4   44 1
    13    4   45 1
    14    5    6 1
    15    5   46 1
    16    5   47 1
    17    6    7 1
    18    6    9 1
    19    7    8 1
    20    7   48 1
    21    7   49 1
    22    8   50 1
    23    8   51 1
    24    9   14 ar
    25    9   10 ar
    26   10   11 ar
    27   10   52 1
    28   11   12 ar
    29   11   53 1
    30   12   13 ar
    31   12   15 1
    32   13   14 ar
    33   13   54 1
    34   14   55 1
    35   15   16 1
    36   15   56 1
    37   16   21 ar
    38   16   17 ar
    39   17   18 ar
    40   17   57 1
    41   18   19 ar
    42   18   22 1
    43   19   20 ar
    44   20   21 ar
    45   20   58 1
    46   22   23 1
    47   22   24 am
    48   23   59 1
    49   23   60 1
    50   23   61 1
    51   24   25 2
    52   24   26 am
    53   26   27 1
    54   26   62 1
    55   27   32 ar
    56   27   28 ar
    57   28   29 ar
    58   28   38 1
    59   29   30 ar
    60   29   36 1
    61   30   31 ar
    62   30   63 1
    63   31   32 ar
    64   31   34 1
    65   32   33 1
    66   34   35 1
    67   35   64 1
    68   35   65 1
    69   35   66 1
    70   36   37 1
    71   37   67 1
    72   37   68 1
    73   37   69 1
@<TRIPOS>MOLECULE
ZINC72105034
   69    72     0     0     0
SMALL
USER_CHARGES

@<TRIPOS>ATOM
      1 C1         -3.4378   -3.9375   14.6684 C.3       1 <0>        -0.1502
      2 C2         -3.5006   -3.0159   13.4488 C.3       1 <0>         0.0503
      3 N1         -4.3406   -3.6313   12.4127 N.3       1 <0>        -0.5378
      4 C3         -3.7251   -4.8621   11.8984 C.3       1 <0>         0.0363
      5 C4         -4.7086   -5.5666   10.9578 C.3       1 <0>         0.1266
      6 N2         -5.1378   -4.6085    9.9278 N.pl3     1 <0>        -0.6321
      7 C5         -5.6391   -3.2963   10.3636 C.3       1 <0>         0.1276
      8 C6         -4.6190   -2.6811   11.3275 C.3       1 <0>         0.0396
      9 C7         -5.0714   -4.9369    8.5689 C.ar      1 <0>         0.2080
     10 C8         -4.4894   -6.1336    8.1714 C.ar      1 <0>        -0.1806
     11 C9         -4.4244   -6.4578    6.8309 C.ar      1 <0>        -0.0579
     12 C10        -4.9408   -5.5873    5.8801 C.ar      1 <0>         0.0956
     13 C11        -5.5227   -4.3907    6.2776 C.ar      1 <0>        -0.0967
     14 C12        -5.5926   -4.0689    7.6185 C.ar      1 <0>        -0.1814
     15 N3         -4.8743   -5.9160    4.5202 N.pl3     1 <0>        -0.6480
     16 C13        -4.9857   -7.2392    4.1204 C.ar      1 <0>         0.4532
     17 C14        -4.7996   -7.5924    2.7862 C.ar      1 <0>        -0.3285
     18 C15        -4.9221   -8.9324    2.4366 C.ar      1 <0>         0.4515
     19 N4         -5.2108   -9.8235    3.3827 N.ar      1 <0>        -0.5423
     20 C16        -5.3796   -9.4503    4.6347 C.ar      1 <0>         0.3655
     21 N5         -5.2667   -8.1917    5.0075 N.ar      1 <0>        -0.5828
     22 N6         -4.7461   -9.3361    1.1173 N.am      1 <0>        -0.5515
     23 C17        -4.3221   -8.3659    0.1048 C.3       1 <0>         0.0649
     24 C18        -4.9656  -10.6198    0.7705 C.2       1 <0>         0.6963
     25 O1         -5.3174  -11.4249    1.6108 O.2       1 <0>        -0.4774
     26 N7         -4.7950  -11.0110   -0.5080 N.am      1 <0>        -0.6824
     27 C19        -4.9079  -12.3651   -0.8468 C.ar      1 <0>         0.2515
     28 C20        -3.8855  -12.9943   -1.5448 C.ar      1 <0>        -0.1156
     29 C21        -3.9983  -14.3355   -1.8800 C.ar      1 <0>         0.1969
     30 C22        -5.1319  -15.0480   -1.5188 C.ar      1 <0>        -0.2867
     31 C23        -6.1535  -14.4206   -0.8218 C.ar      1 <0>         0.1972
     32 C24        -6.0399  -13.0811   -0.4802 C.ar      1 <0>        -0.0912
     33 Cl1        -7.3156  -12.2980    0.3991 Cl        1 <0>        -0.0151
     34 O2         -7.2642  -15.1202   -0.4683 O.3       1 <0>        -0.2933
     35 C25        -7.3116  -16.4972   -0.8473 C.3       1 <0>         0.0224
     36 O3         -2.9975  -14.9516   -2.5633 O.3       1 <0>        -0.2955
     37 C26        -3.1804  -16.3341   -2.8753 C.3       1 <0>         0.0225
     38 Cl2        -2.4668  -12.1023   -1.9981 Cl        1 <0>        -0.0388
     39 H1         -2.8146   -3.4808   15.4373 H         1 <0>         0.0601
     40 H2         -4.4435   -4.0912   15.0599 H         1 <0>         0.0642
     41 H3         -3.0108   -4.8971   14.3771 H         1 <0>         0.0548
     42 H4         -3.9276   -2.0563   13.7401 H         1 <0>         0.0754
     43 H5         -2.4950   -2.8622   13.0574 H         1 <0>         0.0324
     44 H6         -2.8150   -4.6131   11.3528 H         1 <0>         0.0373
     45 H7         -3.4816   -5.5223   12.7308 H         1 <0>         0.0881
     46 H8         -4.2176   -6.4171   10.4850 H         1 <0>         0.0867
     47 H9         -5.5752   -5.9086   11.5236 H         1 <0>         0.0692
     48 H10        -5.7633   -2.6458    9.4978 H         1 <0>         0.0853
     49 H11        -6.5952   -3.4200   10.8723 H         1 <0>         0.0688
     50 H12        -5.0237   -1.7596   11.7460 H         1 <0>         0.0847
     51 H13        -3.6964   -2.4625   10.7899 H         1 <0>         0.0375
     52 H14        -4.0875   -6.8104    8.9108 H         1 <0>         0.1239
     53 H15        -3.9715   -7.3882    6.5217 H         1 <0>         0.1333
     54 H16        -5.9244   -3.7138    5.5381 H         1 <0>         0.1213
     55 H17        -6.0491   -3.1403    7.9278 H         1 <0>         0.1240
     56 H18        -4.7504   -5.2181    3.8580 H         1 <0>         0.4169
     57 H19        -4.5666   -6.8448    2.0425 H         1 <0>         0.1434
     58 H20        -5.6130  -10.1984    5.3779 H         1 <0>         0.1992
     59 H21        -3.2335   -8.3472    0.0528 H         1 <0>         0.0766
     60 H22        -4.7274   -8.6529   -0.8655 H         1 <0>         0.0808
     61 H23        -4.6901   -7.3757    0.3737 H         1 <0>         0.0918
     62 H24        -4.5941  -10.3546   -1.1933 H         1 <0>         0.4120
     63 H25        -5.2193  -16.0921   -1.7808 H         1 <0>         0.1535
     64 H26        -7.2478  -16.5777   -1.9325 H         1 <0>         0.0599
     65 H27        -6.4745  -17.0279   -0.3938 H         1 <0>         0.0605
     66 H28        -8.2486  -16.9363   -0.5049 H         1 <0>         0.1088
     67 H29        -3.2981  -16.9023   -1.9526 H         1 <0>         0.0606
     68 H30        -4.0718  -16.4527   -3.4913 H         1 <0>         0.0604
     69 H31        -2.3108  -16.7017   -3.4200 H         1 <0>         0.1087
@<TRIPOS>BOND
     1    1    2 1
     2    1   39 1
     3    1   40 1
     4    1   41 1
     5    2    3 1
     6    2   42 1
     7    2   43 1
     8    3    8 1
     9    3    4 1
    10    4    5 1
    11    4   44 1
    12    4   45 1
    13    5    6 1
    14    5   46 1
    15    5   47 1
    16    6    7 1
    17    6    9 1
    18    7    8 1
    19    7   48 1
    20    7   49 1
    21    8   50 1
    22    8   51 1
    23    9   14 ar
    24    9   10 ar
    25   10   11 ar
    26   10   52 1
    27   11   12 ar
    28   11   53 1
    29   12   13 ar
    30   12   15 1
    31   13   14 ar
    32   13   54 1
    33   14   55 1
    34   15   16 1
    35   15   56 1
    36   16   21 ar
    37   16   17 ar
    38   17   18 ar
    39   17   57 1
    40   18   19 ar
    41   18   22 1
    42   19   20 ar
    43   20   21 ar
    44   20   58 1
    45   22   23 1
    46   22   24 am
    47   23   59 1
    48   23   60 1
    49   23   61 1
    50   24   25 2
    51   24   26 am
    52   26   27 1
    53   26   62 1
    54   27   32 ar
    55   27   28 ar
    56   28   29 ar
    57   28   38 1
    58   29   30 ar
    59   29   36 1
    60   30   31 ar
    61   30   63 1
    62   31   32 ar
    63   31   34 1
    64   32   33 1
    65   34   35 1
    66   35   64 1
    67   35   65 1
    68   35   66 1
    69   36   37 1
    70   37   67 1
    71   37   68 1
    72   37   69 1
@<TRIPOS>MOLECULE
ZINC03938688
   39    41     0     0     0
SMALL
USER_CHARGES

@<TRIPOS>ATOM
      1 C1         -0.0095    1.3826    0.0704 C.ar      1 <0>        -0.0343
      2 C2          0.5587    1.0580   -1.1482 C.ar      1 <0>        -0.1609
      3 C3          1.7655    0.3862   -1.1955 C.ar      1 <0>         0.1753
      4 C4          2.4129    0.0342   -0.0053 C.ar      1 <0>        -0.1954
      5 C5          1.8304    0.3669    1.2233 C.ar      1 <0>         0.1741
      6 C6          0.6231    1.0388    1.2514 C.ar      1 <0>        -0.1610
      7 F1          2.4463    0.0317    2.3781 F         1 <0>        -0.1212
      8 C7          3.6999   -0.6827   -0.0456 C.2       1 <0>         0.6210
      9 O1          4.7383   -0.0615   -0.1600 O.2       1 <0>        -0.4669
     10 N1          3.7255   -2.0272    0.0446 N.am      1 <0>        -0.3962
     11 C8          4.8314   -2.8210    0.1249 C.2       1 <0>         0.5948
     12 N2          4.4249   -4.0694    0.1979 N.2       1 <0>        -0.5873
     13 C9          3.0869   -4.1118    0.1675 C.2       1 <0>         0.5191
     14 N3          2.6183   -2.8904    0.0808 N.2       1 <0>        -0.3480
     15 N4          2.3148   -5.2702    0.2247 N.pl3     1 <0>        -0.6226
     16 C10         2.9267   -6.5079    0.4407 C.ar      1 <0>         0.2365
     17 C11         4.1432   -6.5760    1.1080 C.ar      1 <0>        -0.1584
     18 C12         4.7450   -7.8008    1.3202 C.ar      1 <0>         0.0098
     19 C13         4.1379   -8.9586    0.8692 C.ar      1 <0>        -0.7033
     20 C14         2.9269   -8.8944    0.2046 C.ar      1 <0>         0.0112
     21 C15         2.3170   -7.6734   -0.0063 C.ar      1 <0>        -0.1777
     22 S1          4.9094  -10.5191    1.1415 S.o2      1 <0>         2.7034
     23 O2          4.4084  -11.3993    0.1448 O.2       1 <0>        -0.9656
     24 O3          6.2977  -10.2630    1.3036 O.2       1 <0>        -0.9650
     25 N5          4.3605  -11.0895    2.5960 N.pl3     1 <0>        -1.2510
     26 N6          6.1422   -2.3912    0.1281 N.pl3     1 <0>        -0.7911
     27 F2          2.3185    0.0697   -2.3868 F         1 <0>        -0.1201
     28 H1         -0.9506    1.9116    0.0998 H         1 <0>         0.1546
     29 H2          0.0576    1.3300   -2.0654 H         1 <0>         0.1549
     30 H3          0.1721    1.2963    2.1984 H         1 <0>         0.1546
     31 H4          1.3525   -5.2176    0.1147 H         1 <0>         0.4325
     32 H5          4.6180   -5.6722    1.4601 H         1 <0>         0.1556
     33 H6          5.6909   -7.8544    1.8385 H         1 <0>         0.1456
     34 H7          2.4556   -9.8005   -0.1466 H         1 <0>         0.1475
     35 H8          1.3691   -7.6243   -0.5215 H         1 <0>         0.1387
     36 H9          3.7284  -10.5673    3.1145 H         1 <0>         0.4165
     37 H10         4.6709  -11.9458    2.9296 H         1 <0>         0.4206
     38 H11         6.3422   -1.4439    0.0694 H         1 <0>         0.4292
     39 H12         6.8640   -3.0364    0.1890 H         1 <0>         0.4303
@<TRIPOS>BOND
     1    1    6 ar
     2    1    2 ar
     3    1   28 1
     4    2    3 ar
     5    2   29 1
     6    3    4 ar
     7    3   27 1
     8    4    5 ar
     9    4    8 1
    10    5    6 ar
    11    5    7 1
    12    6   30 1
    13    8    9 2
    14    8   10 am
    15   10   14 1
    16   10   11 1
    17   11   12 2
    18   11   26 1
    19   12   13 1
    20   13   14 2
    21   13   15 1
    22   15   16 1
    23   15   31 1
    24   16   21 ar
    25   16   17 ar
    26   17   18 ar
    27   17   32 1
    28   18   19 ar
    29   18   33 1
    30   19   20 ar
    31   19   22 1
    32   20   21 ar
    33   20   34 1
    34   21   35 1
    35   22   23 2
    36   22   24 2
    37   22   25 1
    38   25   36 1
    39   25   37 1
    40   26   38 1
    41   26   39 1
@<TRIPOS>MOLECULE
ZINC00608300
   56    59     0     0     0
SMALL
USER_CHARGES

@<TRIPOS>ATOM
      1 C1         -2.2744    1.5548    0.5770 C.3       1 <0>        -0.1922
      2 C2         -2.1909    0.0687    0.9310 C.3       1 <0>        -0.0203
      3 N1         -1.4395   -0.6417   -0.1124 N.4       1 <0>        -0.3833
      4 C3         -0.0496   -0.1664   -0.1246 C.3       1 <0>        -0.0171
      5 C4          0.6909   -0.7861   -1.3114 C.3       1 <0>        -0.1914
      6 C5         -1.4613   -2.0842    0.1647 C.3       1 <0>        -0.0378
      7 C6         -2.8956   -2.6041    0.0491 C.3       1 <0>         0.0350
      8 N2         -2.9021   -4.0598    0.2138 N.ar      1 <0>        -0.3639
      9 C7         -2.7596   -4.8217   -0.8633 C.ar      1 <0>         0.0256
     10 C8         -2.7554   -6.1801   -0.7880 C.ar      1 <0>        -0.0633
     11 C9         -2.9073   -6.7891    0.4738 C.ar      1 <0>         0.0248
     12 C10        -2.9128   -8.1790    0.6259 C.ar      1 <0>        -0.1127
     13 C11        -3.0651   -8.7309    1.8830 C.ar      1 <0>         0.2328
     14 C12        -3.2150   -7.8939    3.0122 C.ar      1 <0>        -0.0635
     15 C13        -3.2127   -6.5182    2.8792 C.ar      1 <0>         0.0318
     16 C14        -3.0580   -5.9477    1.6099 C.ar      1 <0>        -0.1232
     17 C15        -3.0432   -4.5549    1.4207 C.ar      1 <0>         0.2120
     18 C16        -3.3734   -5.6384    4.0921 C.3       1 <0>        -0.1420
     19 C17        -3.3518   -8.7899    4.1783 C.ar      1 <0>        -0.0974
     20 C18        -3.5251   -8.5629    5.5413 C.ar      1 <0>        -0.0891
     21 C19        -3.6231   -9.6358    6.4086 C.ar      1 <0>         0.1063
     22 C20        -3.5484  -10.9355    5.9210 C.ar      1 <0>        -0.0880
     23 C21        -3.3769  -11.1683    4.5732 C.ar      1 <0>        -0.1055
     24 C22        -3.2770  -10.1003    3.6872 C.ar      1 <0>         0.1291
     25 N3         -3.1053  -10.0470    2.3116 N.pl3     1 <0>        -0.5930
     26 H1         -3.0249  -10.8212    1.7327 H         1 <0>         0.4339
     27 O1         -3.7924   -9.4190    7.7404 O.3       1 <0>        -0.4896
     28 C23        -2.7536   -9.0719   -0.5776 C.3       1 <0>        -0.1248
     29 H2         -2.8319    2.0820    1.3512 H         1 <0>         0.1134
     30 H3         -1.2686    1.9690    0.5078 H         1 <0>         0.0861
     31 H4         -2.7824    1.6723   -0.3802 H         1 <0>         0.0846
     32 H5         -1.6829   -0.0488    1.8883 H         1 <0>         0.1366
     33 H6         -3.1967   -0.3454    1.0002 H         1 <0>         0.1289
     34 H7         -0.0379    0.9197   -0.2160 H         1 <0>         0.1443
     35 H8          0.4424   -0.4583    0.8032 H         1 <0>         0.1344
     36 H9          0.6414   -1.8728   -1.2432 H         1 <0>         0.0756
     37 H10         0.2255   -0.4588   -2.2411 H         1 <0>         0.0854
     38 H11         1.7334   -0.4682   -1.2953 H         1 <0>         0.1143
     39 H12        -0.8280   -2.6021   -0.5556 H         1 <0>         0.1494
     40 H13        -1.0889   -2.2662    1.1728 H         1 <0>         0.1468
     41 H14        -3.5110   -2.1480    0.8246 H         1 <0>         0.1419
     42 H15        -3.2972   -2.3475   -0.9311 H         1 <0>         0.1448
     43 H16        -2.6440   -4.3497   -1.8278 H         1 <0>         0.1955
     44 H17        -2.6383   -6.7802   -1.6782 H         1 <0>         0.1834
     45 H18        -3.1515   -3.8931    2.2673 H         1 <0>         0.2070
     46 H19        -2.3924   -5.4156    4.5119 H         1 <0>         0.1006
     47 H20        -3.8650   -4.7091    3.8043 H         1 <0>         0.0783
     48 H21        -3.9789   -6.1541    4.8374 H         1 <0>         0.0970
     49 H22        -3.5824   -7.5530    5.9197 H         1 <0>         0.1422
     50 H23        -3.6249  -11.7691    6.6033 H         1 <0>         0.1523
     51 H24        -3.3197  -12.1817    4.2043 H         1 <0>         0.1447
     52 H25        -4.7179   -9.3651    8.0156 H         1 <0>         0.4010
     53 H26        -1.6955   -9.2773   -0.7403 H         1 <0>         0.0890
     54 H27        -3.2836  -10.0090   -0.4074 H         1 <0>         0.0778
     55 H28        -3.1664   -8.5752   -1.4557 H         1 <0>         0.0837
     56 H29        -1.8632   -0.4654   -1.0110 H         1 <0>         0.4280
@<TRIPOS>BOND
     1    1    2 1
     2    1   29 1
     3    1   30 1
     4    1   31 1
     5    2    3 1
     6    2   32 1
     7    2   33 1
     8    3    4 1
     9    3    6 1
    10    3   56 1
    11    4    5 1
    12    4   34 1
    13    4   35 1
    14    5   36 1
    15    5   37 1
    16    5   38 1
    17    6    7 1
    18    6   39 1
    19    6   40 1
    20    7    8 1
    21    7   41 1
    22    7   42 1
    23    8   17 ar
    24    8    9 ar
    25    9   10 ar
    26    9   43 1
    27   10   11 ar
    28   10   44 1
    29   11   16 ar
    30   11   12 ar
    31   12   13 ar
    32   12   28 1
    33   13   25 1
    34   13   14 ar
    35   14   15 ar
    36   14   19 1
    37   15   16 ar
    38   15   18 1
    39   16   17 ar
    40   17   45 1
    41   18   46 1
    42   18   47 1
    43   18   48 1
    44   19   24 ar
    45   19   20 ar
    46   20   21 ar
    47   20   49 1
    48   21   22 ar
    49   21   27 1
    50   22   23 ar
    51   22   50 1
    52   23   24 ar
    53   23   51 1
    54   24   25 1
    55   25   26 1
    56   27   52 1
    57   28   53 1
    58   28   54 1
    59   28   55 1
@<TRIPOS>MOLECULE
ZINC37866067
   37    40     0     0     0
SMALL
USER_CHARGES

@<TRIPOS>ATOM
      1 C1         -0.0184    1.5028    0.0103 C.3       1 <0>        -0.1068
      2 C2          0.0021   -0.0041    0.0020 C.ar      1 <0>        -0.1355
      3 C3          0.0058   -0.6989   -1.2113 C.ar      1 <0>         0.0201
      4 C4         -0.0086   -0.0292   -2.4512 C.ar      1 <0>        -0.1682
      5 C5         -0.0035   -0.7680   -3.5936 C.ar      1 <0>         0.0839
      6 N1          0.0141   -2.0947   -3.5709 N.ar      1 <0>        -0.4991
      7 C6          0.0282   -2.7862   -2.4559 C.ar      1 <0>         0.1633
      8 C7          0.0250   -2.1205   -1.2179 C.ar      1 <0>        -0.1392
      9 C8          0.0393   -2.8191   -0.0044 C.ar      1 <0>         0.0123
     10 C9          0.0344   -2.1170    1.1861 C.ar      1 <0>        -0.0985
     11 C10         0.0229   -0.7034    1.1930 C.ar      1 <0>         0.1864
     12 N2          0.0296   -0.2770    2.5105 N.pl3     1 <0>        -0.6234
     13 H1          0.0192    0.6510    2.7928 H         1 <0>         0.4187
     14 C11         0.0526   -1.3665    3.3691 C.ar      1 <0>         0.1153
     15 C12         0.0457   -2.5394    2.6012 C.ar      1 <0>        -0.0631
     16 C13         0.0651   -3.7835    3.2257 C.ar      1 <0>        -0.0986
     17 C14         0.0716   -3.8581    4.6072 C.ar      1 <0>         0.1007
     18 C15         0.0588   -2.6952    5.3680 C.ar      1 <0>        -0.1640
     19 C16         0.0671   -1.4589    4.7568 C.ar      1 <0>        -0.1030
     20 O1          0.0900   -5.0712    5.2216 O.3       1 <0>        -0.3161
     21 C17         0.0957   -5.0747    6.6506 C.3       1 <0>         0.0269
     22 C18         0.0592   -4.3259    0.0034 C.3       1 <0>        -0.1294
     23 H2          1.0042    1.8801    0.0026 H         1 <0>         0.0704
     24 H3         -0.5455    1.8639   -0.8728 H         1 <0>         0.0737
     25 H4         -0.5286    1.8543    0.9071 H         1 <0>         0.0598
     26 H5         -0.0237    1.0498   -2.4937 H         1 <0>         0.1383
     27 H6         -0.0144   -0.2600   -4.5466 H         1 <0>         0.1526
     28 H7          0.0423   -3.8656   -2.4893 H         1 <0>         0.1642
     29 H8          0.0747   -4.6870    2.6341 H         1 <0>         0.1384
     30 H9          0.0639   -2.7600    6.4461 H         1 <0>         0.1368
     31 H10         0.0606   -0.5610    5.3568 H         1 <0>         0.1300
     32 H11         0.1107   -6.1031    7.0113 H         1 <0>         0.1015
     33 H12         0.9803   -4.5500    7.0116 H         1 <0>         0.0555
     34 H13        -0.7995   -4.5735    7.0187 H         1 <0>         0.0556
     35 H14         1.0916   -4.6756    0.0011 H         1 <0>         0.0846
     36 H15        -0.4462   -4.6913    0.8974 H         1 <0>         0.0783
     37 H16        -0.4534   -4.7007   -0.8825 H         1 <0>         0.0778
@<TRIPOS>BOND
     1    1    2 1
     2    1   23 1
     3    1   24 1
     4    1   25 1
     5    2   11 ar
     6    2    3 ar
     7    3    8 ar
     8    3    4 ar
     9    4    5 ar
    10    4   26 1
    11    5    6 ar
    12    5   27 1
    13    6    7 ar
    14    7    8 ar
    15    7   28 1
    16    8    9 ar
    17    9   10 ar
    18    9   22 1
    19   10   15 1
    20   10   11 ar
    21   11   12 1
    22   12   13 1
    23   12   14 1
    24   14   19 ar
    25   14   15 ar
    26   15   16 ar
    27   16   17 ar
    28   16   29 1
    29   17   18 ar
    30   17   20 1
    31   18   19 ar
    32   18   30 1
    33   19   31 1
    34   20   21 1
    35   21   32 1
    36   21   33 1
    37   21   34 1
    38   22   35 1
    39   22   36 1
    40   22   37 1
@<TRIPOS>MOLECULE
ZINC16697102
   68    71     0     0     0
SMALL
USER_CHARGES

@<TRIPOS>ATOM
      1 C1          0.1414    1.0953    0.0252 C.3       1 <0>        -0.1879
      2 C2          0.0344   -0.4077    0.2904 C.3       1 <0>        -0.0179
      3 N1         -1.3805   -0.7845    0.4095 N.4       1 <0>        -0.3831
      4 C3         -1.4799   -2.1986    0.7946 C.3       1 <0>        -0.0114
      5 C4         -0.8914   -2.3887    2.1940 C.3       1 <0>        -0.1507
      6 C5         -0.9950   -3.8615    2.5951 C.3       1 <0>         0.0609
      7 O1         -0.4452   -4.0391    3.9021 O.3       1 <0>        -0.3065
      8 C6         -0.4595   -5.2979    4.4111 C.ar      1 <0>         0.1651
      9 C7         -0.9928   -6.3439    3.6526 C.ar      1 <0>        -0.2107
     10 C8         -1.0196   -7.6158    4.1389 C.ar      1 <0>        -0.0238
     11 C9         -0.5074   -7.8823    5.4144 C.ar      1 <0>        -0.2178
     12 C10         0.0354   -6.8287    6.1913 C.ar      1 <0>         0.2289
     13 C11         0.0571   -5.5307    5.6679 C.ar      1 <0>        -0.1455
     14 N2          0.5204   -7.1100    7.4103 N.ar      1 <0>        -0.5500
     15 C12         0.4909   -8.3384    7.8707 C.ar      1 <0>         0.3626
     16 N3         -0.0056   -9.3531    7.1820 N.ar      1 <0>        -0.5775
     17 C13        -0.5106   -9.1853    5.9662 C.ar      1 <0>         0.4884
     18 N4         -1.0254  -10.2523    5.2597 N.pl3     1 <0>        -0.5978
     19 C14        -1.0192  -11.5341    5.8239 C.2       1 <0>         0.2990
     20 C15        -0.5280  -11.8736    7.0950 C.2       1 <0>        -0.2355
     21 C16        -0.7031  -13.2037    7.2657 C.2       1 <0>         0.1068
     22 N5         -1.2824  -13.6919    6.1487 N.pl3     1 <0>        -0.4559
     23 H1         -1.5251  -14.6176    5.9907 H         1 <0>         0.4419
     24 N6         -1.4765  -12.6271    5.2595 N.2       1 <0>        -0.3116
     25 C17        -0.3191  -13.9996    8.4864 C.3       1 <0>        -0.0770
     26 C18        -1.4265  -13.9219    9.5056 C.2       1 <0>         0.5143
     27 O2         -2.4289  -13.2831    9.2644 O.2       1 <0>        -0.5002
     28 N7         -1.3030  -14.5622   10.6851 N.am      1 <0>        -0.6720
     29 C19        -2.2828  -14.4064   11.6717 C.ar      1 <0>         0.1711
     30 C20        -1.9219  -14.3818   13.0129 C.ar      1 <0>        -0.1532
     31 C21        -2.8902  -14.2274   13.9854 C.ar      1 <0>        -0.0700
     32 C22        -4.2191  -14.0976   13.6262 C.ar      1 <0>        -0.1667
     33 C23        -4.5833  -14.1215   12.2902 C.ar      1 <0>         0.1178
     34 C24        -3.6165  -14.2702   11.3118 C.ar      1 <0>        -0.1591
     35 F1         -5.8825  -13.9949   11.9421 F         1 <0>        -0.1354
     36 C25        -2.0519   -0.5800   -0.8810 C.3       1 <0>        -0.0098
     37 C26        -3.5535   -0.8247   -0.7191 C.3       1 <0>         0.0446
     38 O3         -4.1050    0.1610    0.1562 O.3       1 <0>        -0.5793
     39 H2          1.1903    1.3917    0.0323 H         1 <0>         0.1072
     40 H3         -0.2944    1.3246   -0.9472 H         1 <0>         0.0804
     41 H4         -0.3955    1.6404    0.8016 H         1 <0>         0.0817
     42 H5          0.4880   -0.9556   -0.5355 H         1 <0>         0.1307
     43 H6          0.5544   -0.6511    1.2170 H         1 <0>         0.1338
     44 H7         -2.5269   -2.5019    0.7965 H         1 <0>         0.1336
     45 H8         -0.9261   -2.8092    0.0814 H         1 <0>         0.1348
     46 H9          0.1556   -2.0854    2.1921 H         1 <0>         0.1011
     47 H10        -1.4452   -1.7781    2.9071 H         1 <0>         0.1012
     48 H11        -2.0419   -4.1648    2.5970 H         1 <0>         0.0752
     49 H12        -0.4411   -4.4721    1.8820 H         1 <0>         0.0757
     50 H13        -1.3888   -6.1408    2.6686 H         1 <0>         0.1349
     51 H14        -1.4346   -8.4154    3.5432 H         1 <0>         0.1334
     52 H15         0.4712   -4.7175    6.2456 H         1 <0>         0.1508
     53 H16         0.8901   -8.5298    8.8558 H         1 <0>         0.2027
     54 H17        -1.3916  -10.1149    4.3721 H         1 <0>         0.4252
     55 H18        -0.0885  -11.1933    7.8093 H         1 <0>         0.1852
     56 H19        -0.1563  -15.0401    8.2054 H         1 <0>         0.1142
     57 H20         0.5968  -13.5910    8.9133 H         1 <0>         0.1312
     58 H21        -0.5348  -15.1312   10.8499 H         1 <0>         0.4166
     59 H22        -0.8844  -14.4838   13.2950 H         1 <0>         0.1350
     60 H23        -2.6091  -14.2084   15.0280 H         1 <0>         0.1399
     61 H24        -4.9744  -13.9777   14.3888 H         1 <0>         0.1383
     62 H25        -3.8995  -14.2849   10.2696 H         1 <0>         0.1494
     63 H26        -1.8848    0.4425   -1.2196 H         1 <0>         0.1421
     64 H27        -1.6474   -1.2765   -1.6154 H         1 <0>         0.1431
     65 H28        -4.0394   -0.7588   -1.6926 H         1 <0>         0.0960
     66 H29        -3.7166   -1.8167   -0.2980 H         1 <0>         0.0707
     67 H30        -5.0389    0.0226    0.3657 H         1 <0>         0.4093
     68 H31        -1.8228   -0.2123    1.1131 H         1 <0>         0.4316
@<TRIPOS>BOND
     1    1    2 1
     2    1   39 1
     3    1   40 1
     4    1   41 1
     5    2    3 1
     6    2   42 1
     7    2   43 1
     8    3    4 1
     9    3   36 1
    10    3   68 1
    11    4    5 1
    12    4   44 1
    13    4   45 1
    14    5    6 1
    15    5   46 1
    16    5   47 1
    17    6    7 1
    18    6   48 1
    19    6   49 1
    20    7    8 1
    21    8   13 ar
    22    8    9 ar
    23    9   10 ar
    24    9   50 1
    25   10   11 ar
    26   10   51 1
    27   11   17 ar
    28   11   12 ar
    29   12   13 ar
    30   12   14 ar
    31   13   52 1
    32   14   15 ar
    33   15   16 ar
    34   15   53 1
    35   16   17 ar
    36   17   18 1
    37   18   19 1
    38   18   54 1
    39   19   24 2
    40   19   20 1
    41   20   21 2
    42   20   55 1
    43   21   22 1
    44   21   25 1
    45   22   23 1
    46   22   24 1
    47   25   26 1
    48   25   56 1
    49   25   57 1
    50   26   27 2
    51   26   28 am
    52   28   29 1
    53   28   58 1
    54   29   34 ar
    55   29   30 ar
    56   30   31 ar
    57   30   59 1
    58   31   32 ar
    59   31   60 1
    60   32   33 ar
    61   32   61 1
    62   33   34 ar
    63   33   35 1
    64   34   62 1
    65   36   37 1
    66   36   63 1
    67   36   64 1
    68   37   38 1
    69   37   65 1
    70   37   66 1
    71   38   67 1
@<TRIPOS>MOLECULE
ZINC16697102
   68    71     0     0     0
SMALL
USER_CHARGES

@<TRIPOS>ATOM
      1 C1          0.1009    1.0895    0.0671 C.3       1 <0>        -0.1880
      2 C2          0.0005   -0.4150    0.3267 C.3       1 <0>        -0.0178
      3 N1         -1.4127   -0.7982    0.4447 N.4       1 <0>        -0.3831
      4 C3         -1.5060   -2.2142    0.8244 C.3       1 <0>        -0.0114
      5 C4         -0.9163   -2.4070    2.2230 C.3       1 <0>        -0.1510
      6 C5         -1.0135   -3.8818    2.6185 C.3       1 <0>         0.0610
      7 O1         -0.4626   -4.0619    3.9247 O.3       1 <0>        -0.3058
      8 C6         -0.4714   -5.3227    4.4290 C.ar      1 <0>         0.1652
      9 C7         -1.0003   -6.3681    3.6667 C.ar      1 <0>        -0.2079
     10 C8         -1.0216   -7.6420    4.1481 C.ar      1 <0>        -0.0271
     11 C9         -0.5079   -7.9111    5.4225 C.ar      1 <0>        -0.2157
     12 C10         0.0306   -6.8581    6.2032 C.ar      1 <0>         0.2279
     13 C11         0.0466   -5.5580    5.6848 C.ar      1 <0>        -0.1434
     14 N2          0.5172   -7.1419    7.4211 N.ar      1 <0>        -0.5462
     15 C12         0.4930   -8.3722    7.8768 C.ar      1 <0>         0.3627
     16 N3          0.0007   -9.3864    7.1844 N.ar      1 <0>        -0.5729
     17 C13        -0.5054   -9.2161    5.9694 C.ar      1 <0>         0.4842
     18 N4         -1.0159  -10.2829    5.2588 N.pl3     1 <0>        -0.6133
     19 C14        -1.0041  -11.5601    5.8152 C.2       1 <0>         0.2975
     20 C15        -0.5278  -11.8985    7.0451 C.2       1 <0>        -0.2522
     21 C16        -0.7053  -13.2747    7.2096 C.2       1 <0>         0.0931
     22 N5         -1.2647  -13.7522    6.1276 N.2       1 <0>        -0.2441
     23 N6         -1.4709  -12.6946    5.2325 N.pl3     1 <0>        -0.4898
     24 H1         -1.8732  -12.7611    4.3523 H         1 <0>         0.4364
     25 C17        -0.3175  -14.0738    8.4270 C.3       1 <0>        -0.0571
     26 C18        -1.5188  -14.8275    8.9368 C.2       1 <0>         0.5153
     27 O2         -2.5849  -14.7257    8.3676 O.2       1 <0>        -0.4982
     28 N7         -1.4084  -15.6146   10.0253 N.am      1 <0>        -0.6749
     29 C19        -2.5443  -16.2321   10.5602 C.ar      1 <0>         0.1739
     30 C20        -2.6655  -16.3952   11.9344 C.ar      1 <0>        -0.1553
     31 C21        -3.7876  -17.0044   12.4607 C.ar      1 <0>        -0.0709
     32 C22        -4.7909  -17.4530   11.6216 C.ar      1 <0>        -0.1690
     33 C23        -4.6742  -17.2924   10.2511 C.ar      1 <0>         0.1173
     34 C24        -3.5547  -16.6775    9.7191 C.ar      1 <0>        -0.1594
     35 F1         -5.6558  -17.7320    9.4336 F         1 <0>        -0.1360
     36 C25        -2.0854   -0.5918   -0.8449 C.3       1 <0>        -0.0099
     37 C26        -3.5858   -0.8435   -0.6835 C.3       1 <0>         0.0446
     38 O3         -4.1414    0.1365    0.1957 O.3       1 <0>        -0.5792
     39 H2          1.1486    1.3904    0.0751 H         1 <0>         0.1074
     40 H3         -0.3361    1.3206   -0.9043 H         1 <0>         0.0805
     41 H4         -0.4380    1.6293    0.8457 H         1 <0>         0.0817
     42 H5          0.4562   -0.9578   -0.5014 H         1 <0>         0.1308
     43 H6          0.5217   -0.6596    1.2522 H         1 <0>         0.1337
     44 H7         -2.5517   -2.5220    0.8255 H         1 <0>         0.1335
     45 H8         -0.9498   -2.8197    0.1089 H         1 <0>         0.1347
     46 H9          0.1294   -2.0993    2.2220 H         1 <0>         0.1014
     47 H10        -1.4725   -1.8015    2.9385 H         1 <0>         0.1015
     48 H11        -2.0591   -4.1896    2.6196 H         1 <0>         0.0752
     49 H12        -0.4572   -4.4873    1.9030 H         1 <0>         0.0757
     50 H13        -1.3975   -6.1630    2.6836 H         1 <0>         0.1354
     51 H14        -1.4333   -8.4411    3.5496 H         1 <0>         0.1313
     52 H15         0.4574   -4.7453    6.2654 H         1 <0>         0.1520
     53 H16         0.8932   -8.5656    8.8611 H         1 <0>         0.2055
     54 H17        -1.3830  -10.1437    4.3718 H         1 <0>         0.4209
     55 H18        -0.0902  -11.2232    7.7655 H         1 <0>         0.1880
     56 H19         0.4693  -14.7803    8.1624 H         1 <0>         0.1181
     57 H20         0.0452  -13.4002    9.2034 H         1 <0>         0.1229
     58 H21        -0.5415  -15.7530   10.4378 H         1 <0>         0.4158
     59 H22        -1.8824  -16.0460   12.5909 H         1 <0>         0.1343
     60 H23        -3.8814  -17.1310   13.5291 H         1 <0>         0.1388
     61 H24        -5.6670  -17.9297   12.0358 H         1 <0>         0.1372
     62 H25        -3.4650  -16.5484    8.6506 H         1 <0>         0.1513
     63 H26        -1.9227    0.4328   -1.1796 H         1 <0>         0.1424
     64 H27        -1.6780   -1.2838   -1.5820 H         1 <0>         0.1432
     65 H28        -4.0723   -0.7760   -1.6566 H         1 <0>         0.0961
     66 H29        -3.7446   -1.8378   -0.2661 H         1 <0>         0.0704
     67 H30        -5.0746   -0.0067    0.4048 H         1 <0>         0.4093
     68 H31        -1.8573   -0.2307    1.1505 H         1 <0>         0.4316
@<TRIPOS>BOND
     1    1    2 1
     2    1   39 1
     3    1   40 1
     4    1   41 1
     5    2    3 1
     6    2   42 1
     7    2   43 1
     8    3    4 1
     9    3   36 1
    10    3   68 1
    11    4    5 1
    12    4   44 1
    13    4   45 1
    14    5    6 1
    15    5   46 1
    16    5   47 1
    17    6    7 1
    18    6   48 1
    19    6   49 1
    20    7    8 1
    21    8   13 ar
    22    8    9 ar
    23    9   10 ar
    24    9   50 1
    25   10   11 ar
    26   10   51 1
    27   11   17 ar
    28   11   12 ar
    29   12   13 ar
    30   12   14 ar
    31   13   52 1
    32   14   15 ar
    33   15   16 ar
    34   15   53 1
    35   16   17 ar
    36   17   18 1
    37   18   19 1
    38   18   54 1
    39   19   23 1
    40   19   20 2
    41   20   21 1
    42   20   55 1
    43   21   22 2
    44   21   25 1
    45   22   23 1
    46   23   24 1
    47   25   26 1
    48   25   56 1
    49   25   57 1
    50   26   27 2
    51   26   28 am
    52   28   29 1
    53   28   58 1
    54   29   34 ar
    55   29   30 ar
    56   30   31 ar
    57   30   59 1
    58   31   32 ar
    59   31   60 1
    60   32   33 ar
    61   32   61 1
    62   33   34 ar
    63   33   35 1
    64   34   62 1
    65   36   37 1
    66   36   63 1
    67   36   64 1
    68   37   38 1
    69   37   65 1
    70   37   66 1
    71   38   67 1
@<TRIPOS>MOLECULE
ZINC24811973
   71    76     0     0     0
SMALL
USER_CHARGES
N-(5-chloro-1,3-benzodioxol-4-yl)-7-[2-(4-methylpiperazin-1-yl)ethoxy]-5-tetrahydropyran-4-yloxy-quinazolin-4-amine
@<TRIPOS>ATOM
      1 C1          7.5655    6.2744    4.3229 C.3       1 <0>        -0.0453
      2 N1          6.9185    4.9776    4.0827 N.4       1 <0>        -0.4025
      3 C2          5.4989    5.0194    4.4603 C.3       1 <0>         0.0006
      4 C3          4.8821    3.6316    4.2705 C.3       1 <0>         0.0191
      5 N2          5.0395    3.2159    2.8697 N.3       1 <0>        -0.5340
      6 C4          6.4591    3.1741    2.4921 C.3       1 <0>         0.0256
      7 C5          7.0759    4.5619    2.6820 C.3       1 <0>         0.0003
      8 C6          4.3925    1.9191    2.6296 C.3       1 <0>         0.0546
      9 C7          2.8759    2.1102    2.5640 C.3       1 <0>         0.0573
     10 O1          2.5474    2.9314    1.4415 O.3       1 <0>        -0.2956
     11 C8          1.2320    3.2001    1.2382 C.ar      1 <0>         0.2139
     12 C9          0.2891    2.6820    2.1028 C.ar      1 <0>        -0.2556
     13 C10        -1.0666    2.9521    1.8929 C.ar      1 <0>         0.2617
     14 C11        -1.4550    3.7658    0.7994 C.ar      1 <0>        -0.2443
     15 C12        -0.4786    4.2833   -0.0680 C.ar      1 <0>         0.2316
     16 C13         0.8507    3.9969    0.1584 C.ar      1 <0>        -0.2679
     17 O2         -0.8412    5.0596   -1.1206 O.3       1 <0>        -0.3196
     18 C14         0.2045    5.5149   -1.9816 C.3       1 <0>         0.0868
     19 C15         0.8408    6.7773   -1.3918 C.3       1 <0>        -0.1819
     20 C16         1.9040    7.3033   -2.3597 C.3       1 <0>         0.0642
     21 O3          1.3058    7.5588   -3.6321 O.3       1 <0>        -0.3754
     22 C17         0.7375    6.4035   -4.2522 C.3       1 <0>         0.0639
     23 C18        -0.3741    5.8427   -3.3615 C.3       1 <0>        -0.1585
     24 C19        -2.8318    4.0257    0.6163 C.ar      1 <0>         0.5015
     25 N3         -3.6910    3.4986    1.4806 N.ar      1 <0>        -0.5890
     26 C20        -3.2828    2.7482    2.4909 C.ar      1 <0>         0.3723
     27 N4         -2.0187    2.4733    2.7099 N.ar      1 <0>        -0.5672
     28 N5         -3.2714    4.8066   -0.4322 N.pl3     1 <0>        -0.6413
     29 C21        -4.6269    5.1462   -0.5324 C.ar      1 <0>         0.1713
     30 C22        -5.5908    4.1480   -0.6043 C.ar      1 <0>        -0.0138
     31 C23        -6.9287    4.4835   -0.6963 C.ar      1 <0>        -0.0868
     32 C24        -7.3118    5.8118   -0.7302 C.ar      1 <0>        -0.0893
     33 C25        -6.3565    6.8144   -0.6652 C.ar      1 <0>         0.0501
     34 C26        -5.0093    6.4829   -0.5658 C.ar      1 <0>         0.0316
     35 O4         -4.2778    7.6354   -0.5173 O.3       1 <0>        -0.3024
     36 C27        -5.1574    8.6689   -0.9986 C.3       1 <0>         0.2077
     37 O5         -6.4715    8.1749   -0.6789 O.3       1 <0>        -0.2967
     38 Cl1        -5.1153    2.4788   -0.5700 Cl        1 <0>        -0.0325
     39 H1          7.4326    6.5608    5.3766 H         1 <0>         0.1247
     40 H2          7.1092    7.0374    3.6751 H         1 <0>         0.1198
     41 H3          8.6392    6.1959    4.0968 H         1 <0>         0.1251
     42 H4          5.4086    5.3208    5.5143 H         1 <0>         0.1365
     43 H5          4.9716    5.7461    3.8247 H         1 <0>         0.1349
     44 H6          5.3914    2.9111    4.9273 H         1 <0>         0.0633
     45 H7          3.8126    3.6677    4.5254 H         1 <0>         0.1226
     46 H8          6.9863    2.4474    3.1277 H         1 <0>         0.0617
     47 H9          6.5495    2.8728    1.4380 H         1 <0>         0.1248
     48 H10         6.5668    5.2834    2.0260 H         1 <0>         0.1350
     49 H11         8.1456    4.5267    2.4279 H         1 <0>         0.1366
     50 H12         4.7510    1.5012    1.6773 H         1 <0>         0.1011
     51 H13         4.6399    1.2285    3.4493 H         1 <0>         0.0750
     52 H14         2.3872    1.1305    2.4572 H         1 <0>         0.0821
     53 H15         2.5271    2.5951    3.4877 H         1 <0>         0.0690
     54 H16         0.5969    2.0668    2.9354 H         1 <0>         0.1422
     55 H17         1.6040    4.3933   -0.5062 H         1 <0>         0.1435
     56 H18         0.9260    4.6862   -2.0334 H         1 <0>         0.0874
     57 H19         0.0655    7.5433   -1.2427 H         1 <0>         0.0903
     58 H20         1.3079    6.5354   -0.4257 H         1 <0>         0.0834
     59 H21         2.3326    8.2352   -1.9624 H         1 <0>         0.1028
     60 H22         2.7001    6.5528   -2.4731 H         1 <0>         0.0539
     61 H23         0.3189    6.6811   -5.2308 H         1 <0>         0.1103
     62 H24         1.5176    5.6403   -4.3903 H         1 <0>         0.0577
     63 H25        -0.7839    4.9277   -3.8140 H         1 <0>         0.0906
     64 H26        -1.1747    6.5895   -3.2554 H         1 <0>         0.0897
     65 H27        -4.0231    2.3437    3.1652 H         1 <0>         0.1966
     66 H28        -2.5577    5.1627   -1.1897 H         1 <0>         0.4524
     67 H29        -7.6766    3.7060   -0.7472 H         1 <0>         0.1549
     68 H30        -8.3579    6.0688   -0.8071 H         1 <0>         0.1504
     69 H31        -4.9302    9.6134   -0.4826 H         1 <0>         0.1369
     70 H32        -5.0128    8.7986   -2.0813 H         1 <0>         0.0896
     71 H33         7.4170    4.2298    4.7170 H         1 <0>         0.4406
@<TRIPOS>BOND
     1    1    2 1
     2    1   39 1
     3    1   40 1
     4    1   41 1
     5    2    7 1
     6    2    3 1
     7    2   71 1
     8    3    4 1
     9    3   42 1
    10    3   43 1
    11    4    5 1
    12    4   44 1
    13    4   45 1
    14    5    6 1
    15    5    8 1
    16    6    7 1
    17    6   46 1
    18    6   47 1
    19    7   48 1
    20    7   49 1
    21    8    9 1
    22    8   50 1
    23    8   51 1
    24    9   10 1
    25    9   52 1
    26    9   53 1
    27   10   11 1
    28   11   16 ar
    29   11   12 ar
    30   12   13 ar
    31   12   54 1
    32   13   27 ar
    33   13   14 ar
    34   14   15 ar
    35   14   24 ar
    36   15   16 ar
    37   15   17 1
    38   16   55 1
    39   17   18 1
    40   18   23 1
    41   18   19 1
    42   18   56 1
    43   19   20 1
    44   19   57 1
    45   19   58 1
    46   20   21 1
    47   20   59 1
    48   20   60 1
    49   21   22 1
    50   22   23 1
    51   22   61 1
    52   22   62 1
    53   23   63 1
    54   23   64 1
    55   24   25 ar
    56   24   28 1
    57   25   26 ar
    58   26   27 ar
    59   26   65 1
    60   28   29 1
    61   28   66 1
    62   29   34 ar
    63   29   30 ar
    64   30   31 ar
    65   30   38 1
    66   31   32 ar
    67   31   67 1
    68   32   33 ar
    69   32   68 1
    70   33   37 1
    71   33   34 ar
    72   34   35 1
    73   35   36 1
    74   36   37 1
    75   36   69 1
    76   36   70 1
@<TRIPOS>MOLECULE
ZINC24811973
   71    76     0     0     0
SMALL
USER_CHARGES
N-(5-chloro-1,3-benzodioxol-4-yl)-7-[2-(4-methylpiperazin-1-yl)ethoxy]-5-tetrahydropyran-4-yloxy-quinazolin-4-amine
@<TRIPOS>ATOM
      1 C1          7.5655    6.2744    4.3229 C.3       1 <0>         0.0170
      2 N1          6.9185    4.9776    4.0827 N.3       1 <0>        -0.5430
      3 C2          5.4989    5.0194    4.4603 C.3       1 <0>         0.0239
      4 C3          4.8821    3.6316    4.2705 C.3       1 <0>        -0.0046
      5 N2          5.0395    3.2159    2.8697 N.4       1 <0>        -0.4045
      6 C4          6.4591    3.1741    2.4921 C.3       1 <0>         0.0008
      7 C5          7.0759    4.5619    2.6820 C.3       1 <0>         0.0231
      8 C6          4.3925    1.9191    2.6296 C.3       1 <0>         0.0022
      9 C7          2.8759    2.1102    2.5640 C.3       1 <0>         0.0216
     10 O1          2.5474    2.9314    1.4415 O.3       1 <0>        -0.3251
     11 C8          1.2320    3.2001    1.2382 C.ar      1 <0>         0.2059
     12 C9          0.2891    2.6820    2.1028 C.ar      1 <0>        -0.2460
     13 C10        -1.0666    2.9521    1.8929 C.ar      1 <0>         0.2625
     14 C11        -1.4550    3.7658    0.7994 C.ar      1 <0>        -0.2415
     15 C12        -0.4786    4.2833   -0.0680 C.ar      1 <0>         0.2396
     16 C13         0.8507    3.9969    0.1584 C.ar      1 <0>        -0.2718
     17 O2         -0.8412    5.0596   -1.1206 O.3       1 <0>        -0.3174
     18 C14         0.2045    5.5149   -1.9816 C.3       1 <0>         0.0868
     19 C15         0.8408    6.7773   -1.3918 C.3       1 <0>        -0.1825
     20 C16         1.9040    7.3033   -2.3597 C.3       1 <0>         0.0637
     21 O3          1.3058    7.5588   -3.6321 O.3       1 <0>        -0.3736
     22 C17         0.7375    6.4035   -4.2522 C.3       1 <0>         0.0637
     23 C18        -0.3741    5.8427   -3.3615 C.3       1 <0>        -0.1592
     24 C19        -2.8318    4.0257    0.6163 C.ar      1 <0>         0.5024
     25 N3         -3.6910    3.4986    1.4806 N.ar      1 <0>        -0.5847
     26 C20        -3.2828    2.7482    2.4909 C.ar      1 <0>         0.3779
     27 N4         -2.0187    2.4733    2.7099 N.ar      1 <0>        -0.5668
     28 N5         -3.2714    4.8066   -0.4322 N.pl3     1 <0>        -0.6379
     29 C21        -4.6269    5.1462   -0.5324 C.ar      1 <0>         0.1670
     30 C22        -5.5908    4.1480   -0.6043 C.ar      1 <0>        -0.0135
     31 C23        -6.9287    4.4835   -0.6963 C.ar      1 <0>        -0.0861
     32 C24        -7.3118    5.8118   -0.7302 C.ar      1 <0>        -0.0874
     33 C25        -6.3565    6.8144   -0.6652 C.ar      1 <0>         0.0512
     34 C26        -5.0093    6.4829   -0.5658 C.ar      1 <0>         0.0329
     35 O4         -4.2778    7.6354   -0.5173 O.3       1 <0>        -0.3029
     36 C27        -5.1574    8.6689   -0.9986 C.3       1 <0>         0.2078
     37 O5         -6.4715    8.1749   -0.6789 O.3       1 <0>        -0.2957
     38 Cl1        -5.1153    2.4788   -0.5700 Cl        1 <0>        -0.0332
     39 H1          7.4326    6.5608    5.3766 H         1 <0>         0.0847
     40 H2          7.1092    7.0374    3.6751 H         1 <0>         0.0397
     41 H3          8.6392    6.1959    4.0968 H         1 <0>         0.0853
     42 H4          5.4086    5.3208    5.5143 H         1 <0>         0.1247
     43 H5          4.9716    5.7461    3.8247 H         1 <0>         0.0605
     44 H6          5.3914    2.9111    4.9273 H         1 <0>         0.1387
     45 H7          3.8126    3.6677    4.5254 H         1 <0>         0.1343
     46 H8          6.9863    2.4474    3.1277 H         1 <0>         0.1371
     47 H9          6.5495    2.8728    1.4380 H         1 <0>         0.1373
     48 H10         6.5668    5.2834    2.0260 H         1 <0>         0.0606
     49 H11         8.1456    4.5267    2.4279 H         1 <0>         0.1249
     50 H12         4.7510    1.5012    1.6773 H         1 <0>         0.1442
     51 H13         4.6399    1.2285    3.4493 H         1 <0>         0.1512
     52 H14         2.3872    1.1305    2.4572 H         1 <0>         0.1174
     53 H15         2.5271    2.5951    3.4877 H         1 <0>         0.0921
     54 H16         0.5969    2.0668    2.9354 H         1 <0>         0.1449
     55 H17         1.6040    4.3933   -0.5062 H         1 <0>         0.1457
     56 H18         0.9260    4.6862   -2.0334 H         1 <0>         0.0870
     57 H19         0.0655    7.5433   -1.2427 H         1 <0>         0.0923
     58 H20         1.3079    6.5354   -0.4257 H         1 <0>         0.0820
     59 H21         2.3326    8.2352   -1.9624 H         1 <0>         0.1045
     60 H22         2.7001    6.5528   -2.4731 H         1 <0>         0.0533
     61 H23         0.3189    6.6811   -5.2308 H         1 <0>         0.1117
     62 H24         1.5176    5.6403   -4.3903 H         1 <0>         0.0578
     63 H25        -0.7839    4.9277   -3.8140 H         1 <0>         0.0914
     64 H26        -1.1747    6.5895   -3.2554 H         1 <0>         0.0911
     65 H27        -4.0231    2.3437    3.1652 H         1 <0>         0.1996
     66 H28        -2.5577    5.1627   -1.1897 H         1 <0>         0.4528
     67 H29        -7.6766    3.7060   -0.7472 H         1 <0>         0.1558
     68 H30        -8.3579    6.0688   -0.8071 H         1 <0>         0.1515
     69 H31        -4.9302    9.6134   -0.4826 H         1 <0>         0.1379
     70 H32        -5.0128    8.7986   -2.0813 H         1 <0>         0.0905
     71 H33         4.5411    3.9636    2.2353 H         1 <0>         0.4448
@<TRIPOS>BOND
     1    1    2 1
     2    1   39 1
     3    1   40 1
     4    1   41 1
     5    2    7 1
     6    2    3 1
     7    3    4 1
     8    3   42 1
     9    3   43 1
    10    4    5 1
    11    4   44 1
    12    4   45 1
    13    5    6 1
    14    5    8 1
    15    5   71 1
    16    6    7 1
    17    6   46 1
    18    6   47 1
    19    7   48 1
    20    7   49 1
    21    8    9 1
    22    8   50 1
    23    8   51 1
    24    9   10 1
    25    9   52 1
    26    9   53 1
    27   10   11 1
    28   11   16 ar
    29   11   12 ar
    30   12   13 ar
    31   12   54 1
    32   13   27 ar
    33   13   14 ar
    34   14   15 ar
    35   14   24 ar
    36   15   16 ar
    37   15   17 1
    38   16   55 1
    39   17   18 1
    40   18   23 1
    41   18   19 1
    42   18   56 1
    43   19   20 1
    44   19   57 1
    45   19   58 1
    46   20   21 1
    47   20   59 1
    48   20   60 1
    49   21   22 1
    50   22   23 1
    51   22   61 1
    52   22   62 1
    53   23   63 1
    54   23   64 1
    55   24   25 ar
    56   24   28 1
    57   25   26 ar
    58   26   27 ar
    59   26   65 1
    60   28   29 1
    61   28   66 1
    62   29   34 ar
    63   29   30 ar
    64   30   31 ar
    65   30   38 1
    66   31   32 ar
    67   31   67 1
    68   32   33 ar
    69   32   68 1
    70   33   37 1
    71   33   34 ar
    72   34   35 1
    73   35   36 1
    74   36   37 1
    75   36   69 1
    76   36   70 1
@<TRIPOS>MOLECULE
ZINC24811973
   70    75     0     0     0
SMALL
USER_CHARGES
N-(5-chloro-1,3-benzodioxol-4-yl)-7-[2-(4-methylpiperazin-1-yl)ethoxy]-5-tetrahydropyran-4-yloxy-quinazolin-4-amine
@<TRIPOS>ATOM
      1 C1          7.5655    6.2744    4.3229 C.3       1 <0>         0.0226
      2 N1          6.9185    4.9776    4.0827 N.3       1 <0>        -0.5457
      3 C2          5.4989    5.0194    4.4603 C.3       1 <0>         0.0556
      4 C3          4.8821    3.6316    4.2705 C.3       1 <0>         0.0522
      5 N2          5.0395    3.2159    2.8697 N.3       1 <0>        -0.5333
      6 C4          6.4591    3.1741    2.4921 C.3       1 <0>         0.0571
      7 C5          7.0759    4.5619    2.6820 C.3       1 <0>         0.0553
      8 C6          4.3925    1.9191    2.6296 C.3       1 <0>         0.0535
      9 C7          2.8759    2.1102    2.5640 C.3       1 <0>         0.0608
     10 O1          2.5474    2.9314    1.4415 O.3       1 <0>        -0.2892
     11 C8          1.2320    3.2001    1.2382 C.ar      1 <0>         0.2205
     12 C9          0.2891    2.6820    2.1028 C.ar      1 <0>        -0.2568
     13 C10        -1.0666    2.9521    1.8929 C.ar      1 <0>         0.2601
     14 C11        -1.4550    3.7658    0.7994 C.ar      1 <0>        -0.2438
     15 C12        -0.4786    4.2833   -0.0680 C.ar      1 <0>         0.2247
     16 C13         0.8507    3.9969    0.1584 C.ar      1 <0>        -0.2620
     17 O2         -0.8412    5.0596   -1.1206 O.3       1 <0>        -0.3213
     18 C14         0.2045    5.5149   -1.9816 C.3       1 <0>         0.0860
     19 C15         0.8408    6.7773   -1.3918 C.3       1 <0>        -0.1829
     20 C16         1.9040    7.3033   -2.3597 C.3       1 <0>         0.0632
     21 O3          1.3058    7.5588   -3.6321 O.3       1 <0>        -0.3771
     22 C17         0.7375    6.4035   -4.2522 C.3       1 <0>         0.0639
     23 C18        -0.3741    5.8427   -3.3615 C.3       1 <0>        -0.1562
     24 C19        -2.8318    4.0257    0.6163 C.ar      1 <0>         0.5004
     25 N3         -3.6910    3.4986    1.4806 N.ar      1 <0>        -0.5929
     26 C20        -3.2828    2.7482    2.4909 C.ar      1 <0>         0.3659
     27 N4         -2.0187    2.4733    2.7099 N.ar      1 <0>        -0.5638
     28 N5         -3.2714    4.8066   -0.4322 N.pl3     1 <0>        -0.6450
     29 C21        -4.6269    5.1462   -0.5324 C.ar      1 <0>         0.1769
     30 C22        -5.5908    4.1480   -0.6043 C.ar      1 <0>        -0.0142
     31 C23        -6.9287    4.4835   -0.6963 C.ar      1 <0>        -0.0884
     32 C24        -7.3118    5.8118   -0.7302 C.ar      1 <0>        -0.0924
     33 C25        -6.3565    6.8144   -0.6652 C.ar      1 <0>         0.0485
     34 C26        -5.0093    6.4829   -0.5658 C.ar      1 <0>         0.0310
     35 O4         -4.2778    7.6354   -0.5173 O.3       1 <0>        -0.3005
     36 C27        -5.1574    8.6689   -0.9986 C.3       1 <0>         0.2076
     37 O5         -6.4715    8.1749   -0.6789 O.3       1 <0>        -0.2984
     38 Cl1        -5.1153    2.4788   -0.5700 Cl        1 <0>        -0.0322
     39 H1          7.4326    6.5608    5.3766 H         1 <0>         0.0697
     40 H2          7.1092    7.0374    3.6751 H         1 <0>         0.0269
     41 H3          8.6392    6.1959    4.0968 H         1 <0>         0.0702
     42 H4          5.4086    5.3208    5.5143 H         1 <0>         0.0806
     43 H5          4.9716    5.7461    3.8247 H         1 <0>         0.0432
     44 H6          5.3914    2.9111    4.9273 H         1 <0>         0.0453
     45 H7          3.8126    3.6677    4.5254 H         1 <0>         0.0800
     46 H8          6.9863    2.4474    3.1277 H         1 <0>         0.0439
     47 H9          6.5495    2.8728    1.4380 H         1 <0>         0.0822
     48 H10         6.5668    5.2834    2.0260 H         1 <0>         0.0435
     49 H11         8.1456    4.5267    2.4279 H         1 <0>         0.0809
     50 H12         4.7510    1.5012    1.6773 H         1 <0>         0.0884
     51 H13         4.6399    1.2285    3.4493 H         1 <0>         0.0645
     52 H14         2.3872    1.1305    2.4572 H         1 <0>         0.0740
     53 H15         2.5271    2.5951    3.4877 H         1 <0>         0.0694
     54 H16         0.5969    2.0668    2.9354 H         1 <0>         0.1439
     55 H17         1.6040    4.3933   -0.5062 H         1 <0>         0.1444
     56 H18         0.9260    4.6862   -2.0334 H         1 <0>         0.0882
     57 H19         0.0655    7.5433   -1.2427 H         1 <0>         0.0888
     58 H20         1.3079    6.5354   -0.4257 H         1 <0>         0.0870
     59 H21         2.3326    8.2352   -1.9624 H         1 <0>         0.1042
     60 H22         2.7001    6.5528   -2.4731 H         1 <0>         0.0567
     61 H23         0.3189    6.6811   -5.2308 H         1 <0>         0.1074
     62 H24         1.5176    5.6403   -4.3903 H         1 <0>         0.0576
     63 H25        -0.7839    4.9277   -3.8140 H         1 <0>         0.0886
     64 H26        -1.1747    6.5895   -3.2554 H         1 <0>         0.0878
     65 H27        -4.0231    2.3437    3.1652 H         1 <0>         0.1941
     66 H28        -2.5577    5.1627   -1.1897 H         1 <0>         0.4526
     67 H29        -7.6766    3.7060   -0.7472 H         1 <0>         0.1532
     68 H30        -8.3579    6.0688   -0.8071 H         1 <0>         0.1483
     69 H31        -4.9302    9.6134   -0.4826 H         1 <0>         0.1363
     70 H32        -5.0128    8.7986   -2.0813 H         1 <0>         0.0886
@<TRIPOS>BOND
     1    1    2 1
     2    1   39 1
     3    1   40 1
     4    1   41 1
     5    2    7 1
     6    2    3 1
     7    3    4 1
     8    3   42 1
     9    3   43 1
    10    4    5 1
    11    4   44 1
    12    4   45 1
    13    5    6 1
    14    5    8 1
    15    6    7 1
    16    6   46 1
    17    6   47 1
    18    7   48 1
    19    7   49 1
    20    8    9 1
    21    8   50 1
    22    8   51 1
    23    9   10 1
    24    9   52 1
    25    9   53 1
    26   10   11 1
    27   11   16 ar
    28   11   12 ar
    29   12   13 ar
    30   12   54 1
    31   13   27 ar
    32   13   14 ar
    33   14   15 ar
    34   14   24 ar
    35   15   16 ar
    36   15   17 1
    37   16   55 1
    38   17   18 1
    39   18   23 1
    40   18   19 1
    41   18   56 1
    42   19   20 1
    43   19   57 1
    44   19   58 1
    45   20   21 1
    46   20   59 1
    47   20   60 1
    48   21   22 1
    49   22   23 1
    50   22   61 1
    51   22   62 1
    52   23   63 1
    53   23   64 1
    54   24   25 ar
    55   24   28 1
    56   25   26 ar
    57   26   27 ar
    58   26   65 1
    59   28   29 1
    60   28   66 1
    61   29   34 ar
    62   29   30 ar
    63   30   31 ar
    64   30   38 1
    65   31   32 ar
    66   31   67 1
    67   32   33 ar
    68   32   68 1
    69   33   37 1
    70   33   34 ar
    71   34   35 1
    72   35   36 1
    73   36   37 1
    74   36   69 1
    75   36   70 1
@<TRIPOS>MOLECULE
ZINC36176941
   44    47     0     0     0
SMALL
USER_CHARGES

@<TRIPOS>ATOM
      1 C1          1.0151    1.3799    2.9701 C.ar      1 <0>        -0.1293
      2 C2          1.5956    0.2250    3.4614 C.ar      1 <0>        -0.0993
      3 C3          2.5363   -0.4508    2.7091 C.ar      1 <0>        -0.1195
      4 C4          2.8986    0.0304    1.4579 C.ar      1 <0>         0.1516
      5 C5          2.3134    1.1902    0.9671 C.ar      1 <0>        -0.1429
      6 C6          1.3737    1.8616    1.7245 C.ar      1 <0>        -0.0983
      7 N1          3.8517   -0.6517    0.6934 N.am      1 <0>        -0.6761
      8 C7          3.9398   -1.9945    0.7679 C.2       1 <0>         0.7044
      9 O1          3.1317   -2.6212    1.4256 O.2       1 <0>        -0.5477
     10 N2          4.9237   -2.6426    0.1133 N.am      1 <0>        -0.6849
     11 C8          4.9524   -4.0403    0.1011 C.ar      1 <0>         0.1941
     12 C9          3.7623   -4.7586    0.1019 C.ar      1 <0>        -0.1112
     13 C10         3.7874   -6.1364    0.0898 C.ar      1 <0>        -0.0624
     14 C11         5.0093   -6.8105    0.0768 C.ar      1 <0>        -0.1030
     15 C12         6.2024   -6.0867    0.0761 C.ar      1 <0>        -0.1072
     16 C13         6.1710   -4.7089    0.0824 C.ar      1 <0>        -0.1433
     17 C14         5.0397   -8.2906    0.0644 C.ar      1 <0>         0.0934
     18 C15         4.2913   -9.0196    0.9698 C.ar      1 <0>        -0.1465
     19 C16         4.3106  -10.4114    0.9693 C.ar      1 <0>         0.0139
     20 C17         5.0544  -11.1317    0.0933 C.ar      1 <0>        -0.1622
     21 C18         5.8541  -10.4820   -0.8713 C.ar      1 <0>         0.2422
     22 C19         5.8564   -9.0117   -0.9089 C.ar      1 <0>        -0.2390
     23 C20         6.7077   -8.6451   -1.9416 C.2       1 <0>         0.5281
     24 N3          7.1841   -9.7727   -2.4977 N.pl3     1 <0>        -0.4402
     25 N4          6.6651  -10.8887   -1.8313 N.pl3     1 <0>        -0.4224
     26 H1          7.8031   -9.8075   -3.2437 H         1 <0>         0.4687
     27 N5          7.0117   -7.3491   -2.3306 N.pl3     1 <0>        -0.7907
     28 H2          0.2767    1.9043    3.5586 H         1 <0>         0.1268
     29 H3          1.3135   -0.1487    4.4346 H         1 <0>         0.1280
     30 H4          2.9899   -1.3523    3.0937 H         1 <0>         0.1345
     31 H5          2.5930    1.5670   -0.0057 H         1 <0>         0.1260
     32 H6          0.9184    2.7638    1.3435 H         1 <0>         0.1296
     33 H7          4.4489   -0.1581    0.1098 H         1 <0>         0.4103
     34 H8          5.6119   -2.1393   -0.3493 H         1 <0>         0.4133
     35 H9          2.8170   -4.2363    0.1123 H         1 <0>         0.1492
     36 H10         2.8625   -6.6940    0.0908 H         1 <0>         0.1393
     37 H11         7.1495   -6.6057    0.0664 H         1 <0>         0.1322
     38 H12         7.0940   -4.1482    0.0770 H         1 <0>         0.1389
     39 H13         3.6800   -8.4990    1.6920 H         1 <0>         0.1520
     40 H14         3.7097  -10.9386    1.6954 H         1 <0>         0.1562
     41 H15         5.0350  -12.2107    0.1345 H         1 <0>         0.1543
     42 H16         6.6143   -6.5969   -1.8645 H         1 <0>         0.4418
     43 H17         7.6218   -7.1947   -3.0688 H         1 <0>         0.4241
     44 H18         6.8600  -11.8138   -2.0482 H         1 <0>         0.4732
@<TRIPOS>BOND
     1    1    6 ar
     2    1    2 ar
     3    1   28 1
     4    2    3 ar
     5    2   29 1
     6    3    4 ar
     7    3   30 1
     8    4    5 ar
     9    4    7 1
    10    5    6 ar
    11    5   31 1
    12    6   32 1
    13    7    8 am
    14    7   33 1
    15    8    9 2
    16    8   10 am
    17   10   11 1
    18   10   34 1
    19   11   16 ar
    20   11   12 ar
    21   12   13 ar
    22   12   35 1
    23   13   14 ar
    24   13   36 1
    25   14   15 ar
    26   14   17 1
    27   15   16 ar
    28   15   37 1
    29   16   38 1
    30   17   22 ar
    31   17   18 ar
    32   18   19 ar
    33   18   39 1
    34   19   20 ar
    35   19   40 1
    36   20   21 ar
    37   20   41 1
    38   21   22 ar
    39   21   25 2
    40   22   23 2
    41   23   27 1
    42   23   24 1
    43   24   26 1
    44   24   25 1
    45   25   44 1
    46   27   42 1
    47   27   43 1
@<TRIPOS>MOLECULE
ZINC36176941
   43    46     0     0     0
SMALL
USER_CHARGES

@<TRIPOS>ATOM
      1 C1          1.0531    1.4922    2.2958 C.ar      1 <0>        -0.1344
      2 C2          1.5486    0.3342    2.8665 C.ar      1 <0>        -0.0996
      3 C3          2.5591   -0.3685    2.2399 C.ar      1 <0>        -0.1197
      4 C4          3.0771    0.0888    1.0353 C.ar      1 <0>         0.1595
      5 C5          2.5770    1.2518    0.4646 C.ar      1 <0>        -0.1460
      6 C6          1.5668    1.9502    1.0964 C.ar      1 <0>        -0.0998
      7 N1          4.1013   -0.6207    0.3981 N.am      1 <0>        -0.6813
      8 C7          4.1499   -1.9643    0.4923 C.2       1 <0>         0.7034
      9 O1          3.2547   -2.5673    1.0521 O.2       1 <0>        -0.5502
     10 N2          5.1909   -2.6395   -0.0339 N.am      1 <0>        -0.6816
     11 C8          5.1910   -4.0377   -0.0303 C.ar      1 <0>         0.1686
     12 C9          3.9948   -4.7318   -0.1695 C.ar      1 <0>        -0.1157
     13 C10         3.9919   -6.1101   -0.1663 C.ar      1 <0>        -0.0776
     14 C11         5.1911   -6.8085   -0.0237 C.ar      1 <0>        -0.0698
     15 C12         6.3903   -6.1093    0.1153 C.ar      1 <0>        -0.0887
     16 C13         6.3879   -4.7310    0.1066 C.ar      1 <0>        -0.1446
     17 C14         5.1911   -8.2898   -0.0194 C.ar      1 <0>         0.0382
     18 C15         4.6519   -8.9928   -1.0876 C.ar      1 <0>        -0.1554
     19 C16         4.6519  -10.3791   -1.0846 C.ar      1 <0>        -0.0590
     20 C17         5.1840  -11.0823   -0.0266 C.ar      1 <0>        -0.1528
     21 C18         5.7319  -10.4033    1.0597 C.ar      1 <0>         0.1540
     22 C19         5.7435   -8.9968    1.0657 C.ar      1 <0>        -0.1852
     23 C20         6.3820   -8.5953    2.3176 C.2       1 <0>         0.3652
     24 N3          6.7097   -9.6839    2.9627 N.2       1 <0>        -0.3206
     25 N4          6.3202  -10.8096    2.2296 N.pl3     1 <0>        -0.5094
     26 N5          6.6032   -7.2836    2.7473 N.pl3     1 <0>        -0.8360
     27 H1          0.2601    2.0377    2.7857 H         1 <0>         0.1242
     28 H2          1.1453   -0.0208    3.8033 H         1 <0>         0.1263
     29 H3          2.9462   -1.2725    2.6864 H         1 <0>         0.1355
     30 H4          2.9780    1.6101   -0.4720 H         1 <0>         0.1252
     31 H5          1.1776    2.8549    0.6532 H         1 <0>         0.1272
     32 H6          4.7762   -0.1455   -0.1113 H         1 <0>         0.4089
     33 H7          5.9401   -2.1554   -0.4151 H         1 <0>         0.4098
     34 H8          3.0667   -4.1906   -0.2799 H         1 <0>         0.1398
     35 H9          3.0621   -6.6489   -0.2738 H         1 <0>         0.1312
     36 H10         7.3200   -6.6475    0.2263 H         1 <0>         0.1315
     37 H11         7.3164   -4.1892    0.2101 H         1 <0>         0.1306
     38 H12         4.2299   -8.4573   -1.9252 H         1 <0>         0.1294
     39 H13         4.2292  -10.9143   -1.9221 H         1 <0>         0.1327
     40 H14         5.1763  -12.1622   -0.0390 H         1 <0>         0.1280
     41 H15         6.2115   -6.5414    2.2609 H         1 <0>         0.4120
     42 H16         7.1484   -7.1157    3.5318 H         1 <0>         0.4051
     43 H17         6.4550  -11.7311    2.5006 H         1 <0>         0.4411
@<TRIPOS>BOND
     1    1    6 ar
     2    1    2 ar
     3    1   27 1
     4    2    3 ar
     5    2   28 1
     6    3    4 ar
     7    3   29 1
     8    4    5 ar
     9    4    7 1
    10    5    6 ar
    11    5   30 1
    12    6   31 1
    13    7    8 am
    14    7   32 1
    15    8    9 2
    16    8   10 am
    17   10   11 1
    18   10   33 1
    19   11   16 ar
    20   11   12 ar
    21   12   13 ar
    22   12   34 1
    23   13   14 ar
    24   13   35 1
    25   14   15 ar
    26   14   17 1
    27   15   16 ar
    28   15   36 1
    29   16   37 1
    30   17   22 ar
    31   17   18 ar
    32   18   19 ar
    33   18   38 1
    34   19   20 ar
    35   19   39 1
    36   20   21 ar
    37   20   40 1
    38   21   22 ar
    39   21   25 1
    40   22   23 1
    41   23   26 1
    42   23   24 2
    43   24   25 1
    44   25   43 1
    45   26   41 1
    46   26   42 1
@<TRIPOS>MOLECULE
ZINC28604289
   47    50     0     0     0
SMALL
USER_CHARGES
1-[4-(3-amino-2H-indazol-4-yl)phenyl]-3-(m-tolyl)urea
@<TRIPOS>ATOM
      1 C1         -2.1118    0.8723   -0.7793 C.3       1 <0>        -0.1197
      2 C2         -1.1650    1.9221   -1.3014 C.ar      1 <0>        -0.0651
      3 C3         -0.3650    1.6480   -2.3958 C.ar      1 <0>        -0.1317
      4 C4          0.5011    2.6102   -2.8811 C.ar      1 <0>        -0.0975
      5 C5          0.5734    3.8474   -2.2709 C.ar      1 <0>        -0.1271
      6 C6         -0.2247    4.1239   -1.1688 C.ar      1 <0>         0.1607
      7 C7         -1.0934    3.1550   -0.6835 C.ar      1 <0>        -0.1457
      8 N1         -0.1535    5.3761   -0.5481 N.am      1 <0>        -0.6896
      9 C8          1.0253    6.0251   -0.4734 C.2       1 <0>         0.7086
     10 O1          2.0093    5.5630   -1.0178 O.2       1 <0>        -0.5592
     11 N2          1.1133    7.1865    0.2049 N.am      1 <0>        -0.6988
     12 C9          2.3103    7.9086    0.2021 C.ar      1 <0>         0.1943
     13 C10         3.5265    7.2354    0.1959 C.ar      1 <0>        -0.1166
     14 C11         4.7082    7.9446    0.1882 C.ar      1 <0>        -0.1158
     15 C12         4.6830    9.3399    0.1971 C.ar      1 <0>        -0.0966
     16 C13         3.4605   10.0129    0.2088 C.ar      1 <0>        -0.0678
     17 C14         2.2821    9.2984    0.2115 C.ar      1 <0>        -0.1346
     18 C15         5.9506   10.1046    0.1937 C.ar      1 <0>         0.0882
     19 C16         6.1569   11.1251   -0.7160 C.ar      1 <0>        -0.1522
     20 C17         7.3421   11.8549   -0.7275 C.ar      1 <0>         0.0059
     21 C18         8.3602   11.6091    0.1341 C.ar      1 <0>        -0.1641
     22 C19         8.2510   10.5845    1.0987 C.ar      1 <0>         0.2307
     23 C20         7.0124    9.7929    1.1475 C.ar      1 <0>        -0.2470
     24 C21         7.1737    8.8713    2.1723 C.2       1 <0>         0.5174
     25 N3          8.3904    9.0673    2.7097 N.pl3     1 <0>        -0.4500
     26 H1          8.7297    8.4392    3.5466 H         1 <0>         0.5017
     27 N4          9.0405   10.1150    2.0479 N.pl3     1 <0>        -0.4343
     28 N5          6.2465    7.9200    2.5709 N.pl3     1 <0>        -0.8231
     29 H2         -2.0285   -0.0354   -1.3951 H         1 <0>         0.0694
     30 H3         -3.1428    1.2531   -0.8249 H         1 <0>         0.0725
     31 H4         -1.8551    0.6330    0.2632 H         1 <0>         0.0712
     32 H5         -0.4202    0.6817   -2.8750 H         1 <0>         0.1250
     33 H6          1.1216    2.3945   -3.7383 H         1 <0>         0.1265
     34 H7          1.2496    4.5989   -2.6509 H         1 <0>         0.1375
     35 H8         -1.7154    3.3670    0.1736 H         1 <0>         0.1250
     36 H9         -1.0597    5.8307   -0.1212 H         1 <0>         0.4331
     37 H10         0.2432    7.5661    0.7607 H         1 <0>         0.4377
     38 H11         3.5454    6.1556    0.1928 H         1 <0>         0.1522
     39 H12         5.6528    7.4211    0.1795 H         1 <0>         0.1326
     40 H13         3.4379   11.0927    0.2153 H         1 <0>         0.1386
     41 H14         1.3357    9.8187    0.2205 H         1 <0>         0.1391
     42 H15         5.3817   11.3631   -1.4293 H         1 <0>         0.1471
     43 H16         7.4569   12.6460   -1.4537 H         1 <0>         0.1518
     44 H17         9.2613   12.2021    0.0820 H         1 <0>         0.1504
     45 H18         6.4814    7.2367    3.4003 H         1 <0>         0.4449
     46 H19         5.2762    7.8488    2.0577 H         1 <0>         0.4647
     47 H20        10.0357   10.5569    2.2041 H         1 <0>         0.5094
@<TRIPOS>BOND
     1    1    2 1
     2    1   29 1
     3    1   30 1
     4    1   31 1
     5    2    7 ar
     6    2    3 ar
     7    3    4 ar
     8    3   32 1
     9    4    5 ar
    10    4   33 1
    11    5    6 ar
    12    5   34 1
    13    6    7 ar
    14    6    8 1
    15    7   35 1
    16    8    9 am
    17    8   36 1
    18    9   10 2
    19    9   11 am
    20   11   12 1
    21   11   37 1
    22   12   17 ar
    23   12   13 ar
    24   13   14 ar
    25   13   38 1
    26   14   15 ar
    27   14   39 1
    28   15   16 ar
    29   15   18 1
    30   16   17 ar
    31   16   40 1
    32   17   41 1
    33   18   23 ar
    34   18   19 ar
    35   19   20 ar
    36   19   42 1
    37   20   21 ar
    38   20   43 1
    39   21   22 ar
    40   21   44 1
    41   22   27 2
    42   22   23 ar
    43   23   24 2
    44   24   25 1
    45   24   28 1
    46   25   26 1
    47   25   27 1
    48   27   47 1
    49   28   45 1
    50   28   46 1
@<TRIPOS>MOLECULE
ZINC28604289
   46    49     0     0     0
SMALL
USER_CHARGES
3-[4-(3-amino-1H-indazol-4-yl)phenyl]-1-(m-tolyl)urea
@<TRIPOS>ATOM
      1 C1         -2.0594    0.8347   -1.0190 C.3       1 <0>        -0.1178
      2 C2         -1.1470    1.9287   -1.5104 C.ar      1 <0>        -0.0673
      3 C3         -0.4020    1.7422   -2.6606 C.ar      1 <0>        -0.1358
      4 C4          0.4324    2.7454   -3.1177 C.ar      1 <0>        -0.0981
      5 C5          0.5279    3.9360   -2.4238 C.ar      1 <0>        -0.1269
      6 C6         -0.2147    4.1244   -1.2658 C.ar      1 <0>         0.1679
      7 C7         -1.0516    3.1144   -0.8090 C.ar      1 <0>        -0.1481
      8 N1         -0.1199    5.3291   -0.5602 N.am      1 <0>        -0.6945
      9 C8          1.0589    5.9790   -0.4918 C.2       1 <0>         0.7083
     10 O1          2.0172    5.5674   -1.1168 O.2       1 <0>        -0.5619
     11 N2          1.1754    7.0851    0.2694 N.am      1 <0>        -0.6950
     12 C9          2.3660    7.8182    0.2597 C.ar      1 <0>         0.1671
     13 C10         3.5849    7.1602    0.1449 C.ar      1 <0>        -0.1173
     14 C11         4.7598    7.8808    0.1293 C.ar      1 <0>        -0.1054
     15 C12         4.7253    9.2710    0.2404 C.ar      1 <0>        -0.0601
     16 C13         3.5009    9.9284    0.3613 C.ar      1 <0>        -0.0832
     17 C14         2.3287    9.2032    0.3706 C.ar      1 <0>        -0.1386
     18 C15         5.9866   10.0477    0.2297 C.ar      1 <0>         0.0397
     19 C16         6.2952   10.8961    1.2837 C.ar      1 <0>        -0.1702
     20 C17         7.4777   11.6197    1.2767 C.ar      1 <0>        -0.0654
     21 C18         8.3599   11.5193    0.2238 C.ar      1 <0>        -0.1287
     22 C19         8.0742   10.6795   -0.8506 C.ar      1 <0>         0.1317
     23 C20         6.8801    9.9360   -0.8527 C.ar      1 <0>        -0.2296
     24 C21         6.8757    9.1672   -2.0958 C.2       1 <0>         0.3911
     25 N3          7.9754    9.4522   -2.7424 N.pl3     1 <0>        -0.4329
     26 N4          8.7339   10.3732   -2.0128 N.2       1 <0>        -0.3723
     27 N5          5.8755    8.2863   -2.5173 N.pl3     1 <0>        -0.8707
     28 H1         -2.0020   -0.0252   -1.7026 H         1 <0>         0.0676
     29 H2         -3.0937    1.2076   -0.9849 H         1 <0>         0.0708
     30 H3         -1.7485    0.5232   -0.0109 H         1 <0>         0.0705
     31 H4         -0.4754    0.8125   -3.2054 H         1 <0>         0.1226
     32 H5          1.0097    2.5983   -4.0185 H         1 <0>         0.1249
     33 H6          1.1793    4.7196   -2.7817 H         1 <0>         0.1382
     34 H7         -1.6305    3.2579    0.0914 H         1 <0>         0.1241
     35 H8         -1.0074    5.7457   -0.0614 H         1 <0>         0.4307
     36 H9          0.3338    7.4111    0.8983 H         1 <0>         0.4321
     37 H10         3.6112    6.0835    0.0636 H         1 <0>         0.1439
     38 H11         5.7064    7.3693    0.0360 H         1 <0>         0.1292
     39 H12         3.4713   11.0046    0.4471 H         1 <0>         0.1321
     40 H13         1.3805    9.7117    0.4637 H         1 <0>         0.1296
     41 H14         5.6125   10.9903    2.1153 H         1 <0>         0.1226
     42 H15         7.7079   12.2734    2.1050 H         1 <0>         0.1267
     43 H16         9.2753   12.0924    0.2313 H         1 <0>         0.1234
     44 H17         5.9766    7.7578   -3.4767 H         1 <0>         0.4195
     45 H18         4.9873    8.1216   -1.8896 H         1 <0>         0.4396
     46 H19         8.1798    8.9801   -3.7147 H         1 <0>         0.4658
@<TRIPOS>BOND
     1    1    2 1
     2    1   28 1
     3    1   29 1
     4    1   30 1
     5    2    7 ar
     6    2    3 ar
     7    3    4 ar
     8    3   31 1
     9    4    5 ar
    10    4   32 1
    11    5    6 ar
    12    5   33 1
    13    6    7 ar
    14    6    8 1
    15    7   34 1
    16    8    9 am
    17    8   35 1
    18    9   10 2
    19    9   11 am
    20   11   12 1
    21   11   36 1
    22   12   17 ar
    23   12   13 ar
    24   13   14 ar
    25   13   37 1
    26   14   15 ar
    27   14   38 1
    28   15   16 ar
    29   15   18 1
    30   16   17 ar
    31   16   39 1
    32   17   40 1
    33   18   23 ar
    34   18   19 ar
    35   19   20 ar
    36   19   41 1
    37   20   21 ar
    38   20   42 1
    39   21   22 ar
    40   21   43 1
    41   22   23 ar
    42   22   26 2
    43   23   24 2
    44   24   27 1
    45   24   25 1
    46   25   46 1
    47   25   26 1
    48   27   44 1
    49   27   45 1
@<TRIPOS>MOLECULE
ZINC28604308
   48    51     0     0     0
SMALL
USER_CHARGES
N-[4-(3-amino-2H-indazol-4-yl)phenyl]cyclohexanecarboxamide
@<TRIPOS>ATOM
      1 C1          1.1269    2.0888   -0.2056 C.ar      1 <0>         0.0066
      2 C2          2.3780    1.4788   -0.2136 C.ar      1 <0>        -0.1517
      3 C3          2.5125    0.1136   -0.0421 C.ar      1 <0>         0.0885
      4 C4          1.3071   -0.6892    0.1499 C.ar      1 <0>        -0.2475
      5 C5          0.0047   -0.0060    0.1517 C.ar      1 <0>         0.2312
      6 C6         -0.0243    1.3932   -0.0317 C.ar      1 <0>        -0.1655
      7 N1         -0.9133   -0.9368    0.3403 N.pl3     1 <0>        -0.4521
      8 N2         -0.2866   -2.1823    0.4609 N.pl3     1 <0>        -0.4468
      9 H1         -0.8895   -3.0879    0.6237 H         1 <0>         0.5006
     10 C7          1.0452   -2.0376    0.3472 C.2       1 <0>         0.5342
     11 N3          1.9875   -3.0529    0.4154 N.pl3     1 <0>        -0.8239
     12 C8          3.8498   -0.5215   -0.0533 C.ar      1 <0>        -0.0980
     13 C9          4.2200   -1.3899    0.9745 C.ar      1 <0>        -0.1144
     14 C10         5.4633   -1.9841    0.9583 C.ar      1 <0>        -0.1435
     15 C11         6.3525   -1.7106   -0.0746 C.ar      1 <0>         0.1804
     16 C12         5.9889   -0.8412   -1.0966 C.ar      1 <0>        -0.1137
     17 C13         4.7447   -0.2485   -1.0888 C.ar      1 <0>        -0.0658
     18 N4          7.6150   -2.3107   -0.0855 N.am      1 <0>        -0.6921
     19 C14         8.6740   -1.6435   -0.5852 C.2       1 <0>         0.5207
     20 O1          8.5524   -0.4892   -0.9373 O.2       1 <0>        -0.5122
     21 C15        10.0092   -2.3316   -0.7067 C.3       1 <0>        -0.1030
     22 C16        10.4775   -2.7843    0.6778 C.3       1 <0>        -0.1109
     23 C17        11.8331   -3.4829    0.5545 C.3       1 <0>        -0.1198
     24 C18        12.8558   -2.5109   -0.0372 C.3       1 <0>        -0.1259
     25 C19        12.3876   -2.0581   -1.4216 C.3       1 <0>        -0.1220
     26 C20        11.0320   -1.3595   -1.2983 C.3       1 <0>        -0.1021
     27 H2          1.0706    3.1585   -0.3435 H         1 <0>         0.1518
     28 H3          3.2610    2.0838   -0.3568 H         1 <0>         0.1475
     29 H4         -0.9708    1.9133   -0.0380 H         1 <0>         0.1503
     30 H5          1.6654   -4.0924    0.5760 H         1 <0>         0.4454
     31 H6          3.0570   -2.8187    0.3089 H         1 <0>         0.4642
     32 H7          3.5311   -1.5996    1.7794 H         1 <0>         0.1336
     33 H8          5.7487   -2.6597    1.7511 H         1 <0>         0.1386
     34 H9          6.6819   -0.6304   -1.8976 H         1 <0>         0.1454
     35 H10         4.4625    0.4263   -1.8833 H         1 <0>         0.1376
     36 H11         7.7441   -3.3275    0.3138 H         1 <0>         0.4396
     37 H12         9.8966   -3.2039   -1.3673 H         1 <0>         0.1038
     38 H13        10.5748   -1.9086    1.3364 H         1 <0>         0.0710
     39 H14         9.7422   -3.4831    1.1032 H         1 <0>         0.0652
     40 H15        12.1697   -3.8083    1.5499 H         1 <0>         0.0695
     41 H16        11.7358   -4.3586   -0.1041 H         1 <0>         0.0666
     42 H17        12.9532   -1.6353    0.6214 H         1 <0>         0.0644
     43 H18        13.8304   -3.0132   -0.1259 H         1 <0>         0.0673
     44 H19        13.1229   -1.3592   -1.8469 H         1 <0>         0.0700
     45 H20        12.2903   -2.9337   -2.0803 H         1 <0>         0.0644
     46 H21        10.6954   -1.0340   -2.2936 H         1 <0>         0.0710
     47 H22        11.1293   -0.4839   -0.6396 H         1 <0>         0.0721
     48 H23        -1.9772   -0.6601    0.3792 H         1 <0>         0.5093
@<TRIPOS>BOND
     1    1    6 ar
     2    1    2 ar
     3    1   27 1
     4    2    3 ar
     5    2   28 1
     6    3    4 ar
     7    3   12 1
     8    4   10 2
     9    4    5 ar
    10    5    6 ar
    11    5    7 2
    12    6   29 1
    13    7    8 1
    14    7   48 1
    15    8    9 1
    16    8   10 1
    17   10   11 1
    18   11   30 1
    19   11   31 1
    20   12   17 ar
    21   12   13 ar
    22   13   14 ar
    23   13   32 1
    24   14   15 ar
    25   14   33 1
    26   15   16 ar
    27   15   18 1
    28   16   17 ar
    29   16   34 1
    30   17   35 1
    31   18   19 am
    32   18   36 1
    33   19   20 2
    34   19   21 1
    35   21   26 1
    36   21   22 1
    37   21   37 1
    38   22   23 1
    39   22   38 1
    40   22   39 1
    41   23   24 1
    42   23   40 1
    43   23   41 1
    44   24   25 1
    45   24   42 1
    46   24   43 1
    47   25   26 1
    48   25   44 1
    49   25   45 1
    50   26   46 1
    51   26   47 1
@<TRIPOS>MOLECULE
ZINC28604308
   47    50     0     0     0
SMALL
USER_CHARGES
N-[4-(3-amino-1H-indazol-4-yl)phenyl]cyclohexanecarboxamide
@<TRIPOS>ATOM
      1 C1         -5.2575    0.5699   -0.3666 C.ar      1 <0>        -0.0648
      2 C2         -4.3585   -0.4838   -0.4334 C.ar      1 <0>        -0.1683
      3 C3         -3.0157   -0.2780   -0.1517 C.ar      1 <0>         0.0386
      4 C4         -2.5729    1.0109    0.2036 C.ar      1 <0>        -0.2282
      5 C5         -3.4943    2.0712    0.2677 C.ar      1 <0>         0.1313
      6 C6         -4.8371    1.8347   -0.0213 C.ar      1 <0>        -0.1283
      7 N1         -2.7885    3.1884    0.6327 N.2       1 <0>        -0.3713
      8 N2         -1.4432    2.8460    0.8034 N.pl3     1 <0>        -0.4316
      9 C7         -1.2710    1.5742    0.5556 C.2       1 <0>         0.3887
     10 N3         -0.0610    0.8773    0.6211 N.pl3     1 <0>        -0.8725
     11 C8         -2.0561   -1.4043   -0.2233 C.ar      1 <0>        -0.0605
     12 C9         -0.9422   -1.3212   -1.0587 C.ar      1 <0>        -0.1051
     13 C10        -0.0478   -2.3682   -1.1190 C.ar      1 <0>        -0.1443
     14 C11        -0.2611   -3.5108   -0.3567 C.ar      1 <0>         0.1512
     15 C12        -1.3736   -3.5988    0.4720 C.ar      1 <0>        -0.1157
     16 C13        -2.2680   -2.5523    0.5405 C.ar      1 <0>        -0.0828
     17 N4          0.6449   -4.5735   -0.4239 N.am      1 <0>        -0.6879
     18 C14         0.2011   -5.8435   -0.3414 C.2       1 <0>         0.5177
     19 O1         -0.9729   -6.0632   -0.1307 O.2       1 <0>        -0.5186
     20 C15         1.1637   -6.9906   -0.5111 C.3       1 <0>        -0.1025
     21 C16         1.8094   -6.9138   -1.8961 C.3       1 <0>        -0.1105
     22 C17         2.7867   -8.0783   -2.0684 C.3       1 <0>        -0.1190
     23 C18         2.0320   -9.4021   -1.9303 C.3       1 <0>        -0.1247
     24 C19         1.3863   -9.4788   -0.5453 C.3       1 <0>        -0.1210
     25 C20         0.4090   -8.3144   -0.3729 C.3       1 <0>        -0.1015
     26 H1         -6.3001    0.3966   -0.5890 H         1 <0>         0.1272
     27 H2         -4.7055   -1.4697   -0.7058 H         1 <0>         0.1230
     28 H3         -5.5494    2.6451    0.0263 H         1 <0>         0.1238
     29 H4          0.8633    1.4052    0.8984 H         1 <0>         0.4186
     30 H5         -0.0332   -0.1989    0.3953 H         1 <0>         0.4379
     31 H6         -0.7783   -0.4354   -1.6546 H         1 <0>         0.1300
     32 H7          0.8171   -2.3026   -1.7623 H         1 <0>         0.1296
     33 H8         -1.5370   -4.4879    1.0630 H         1 <0>         0.1406
     34 H9         -3.1319   -2.6210    1.1849 H         1 <0>         0.1305
     35 H10         1.7198   -4.3731   -0.5440 H         1 <0>         0.4337
     36 H11         1.9378   -6.9185    0.2671 H         1 <0>         0.1003
     37 H12         1.0286   -6.9731   -2.6685 H         1 <0>         0.0698
     38 H13         2.3520   -5.9621   -1.9954 H         1 <0>         0.0668
     39 H14         3.2511   -8.0231   -3.0640 H         1 <0>         0.0675
     40 H15         3.5676   -8.0191   -1.2959 H         1 <0>         0.0655
     41 H16         1.2511   -9.4613   -2.7027 H         1 <0>         0.0637
     42 H17         2.7345  -10.2394   -2.0542 H         1 <0>         0.0647
     43 H18         0.8438  -10.4306   -0.4459 H         1 <0>         0.0677
     44 H19         2.1672   -9.4195    0.2271 H         1 <0>         0.0634
     45 H20        -0.0552   -8.3696    0.6228 H         1 <0>         0.0706
     46 H21        -0.3719   -8.3737   -1.1453 H         1 <0>         0.0714
     47 H22        -0.5863    3.4700    1.0971 H         1 <0>         0.4655
@<TRIPOS>BOND
     1    1    6 ar
     2    1    2 ar
     3    1   26 1
     4    2    3 ar
     5    2   27 1
     6    3    4 ar
     7    3   11 1
     8    4    5 ar
     9    4    9 2
    10    5    6 ar
    11    5    7 2
    12    6   28 1
    13    7    8 1
    14    8    9 1
    15    8   47 1
    16    9   10 1
    17   10   29 1
    18   10   30 1
    19   11   16 ar
    20   11   12 ar
    21   12   13 ar
    22   12   31 1
    23   13   14 ar
    24   13   32 1
    25   14   15 ar
    26   14   17 1
    27   15   16 ar
    28   15   33 1
    29   16   34 1
    30   17   18 am
    31   17   35 1
    32   18   19 2
    33   18   20 1
    34   20   25 1
    35   20   21 1
    36   20   36 1
    37   21   22 1
    38   21   37 1
    39   21   38 1
    40   22   23 1
    41   22   39 1
    42   22   40 1
    43   23   24 1
    44   23   41 1
    45   23   42 1
    46   24   25 1
    47   24   43 1
    48   24   44 1
    49   25   45 1
    50   25   46 1
@<TRIPOS>MOLECULE
ZINC35324130
   30    32     0     0     0
SMALL
USER_CHARGES

@<TRIPOS>ATOM
      1 C1         -0.0163    1.3520    0.0095 C.ar      1 <0>         0.0151
      2 C2          1.1459    2.1180    0.0025 C.ar      1 <0>        -0.1556
      3 C3          2.3956    1.5269   -0.0131 C.ar      1 <0>         0.1072
      4 C4          2.4792    0.0683   -0.0217 C.ar      1 <0>        -0.2421
      5 C5          1.2276   -0.7040   -0.0134 C.ar      1 <0>         0.2419
      6 C6          0.0021   -0.0041    0.0020 C.ar      1 <0>        -0.1677
      7 N1          1.5678   -1.9803   -0.0241 N.pl3     1 <0>        -0.4241
      8 H1          3.4600   -2.9168   -0.0485 H         1 <0>         0.4680
      9 N2          2.9633   -2.0837   -0.0388 N.pl3     1 <0>        -0.4419
     10 C7          3.5133   -0.8569   -0.0374 C.2       1 <0>         0.5285
     11 N3          4.8697   -0.5681   -0.0502 N.pl3     1 <0>        -0.7905
     12 C8          3.6231    2.3544   -0.0213 C.ar      1 <0>        -0.1526
     13 C9          4.6485    2.0930    0.8886 C.ar      1 <0>        -0.0767
     14 C10         5.7902    2.8646    0.8784 C.ar      1 <0>        -0.1967
     15 C11         5.9210    3.9030   -0.0371 C.ar      1 <0>         0.2431
     16 C12         4.9008    4.1656   -0.9449 C.ar      1 <0>        -0.1906
     17 C13         3.7594    3.3936   -0.9429 C.ar      1 <0>        -0.0330
     18 N4          7.0776    4.6832   -0.0446 N.pl3     1 <0>        -0.8644
     19 H2         -0.9705    1.8576    0.0259 H         1 <0>         0.1542
     20 H3          1.0699    3.1953    0.0090 H         1 <0>         0.1498
     21 H4         -0.9282   -0.5526    0.0083 H         1 <0>         0.1527
     22 H5          5.1692    0.3545   -0.0486 H         1 <0>         0.4427
     23 H6          5.5190   -1.2887   -0.0607 H         1 <0>         0.4234
     24 H7          4.5471    1.2871    1.6003 H         1 <0>         0.1259
     25 H8          6.5840    2.6627    1.5824 H         1 <0>         0.1321
     26 H9          5.0048    4.9730   -1.6546 H         1 <0>         0.1334
     27 H10         2.9692    3.5953   -1.6508 H         1 <0>         0.1340
     28 H11         7.7896    4.5010    0.5885 H         1 <0>         0.4052
     29 H12         7.1698    5.4078   -0.6828 H         1 <0>         0.4064
     30 H13         0.9488   -2.7270   -0.0215 H         1 <0>         0.4725
@<TRIPOS>BOND
     1    1    6 ar
     2    1    2 ar
     3    1   19 1
     4    2    3 ar
     5    2   20 1
     6    3    4 ar
     7    3   12 1
     8    4    5 ar
     9    4   10 2
    10    5    6 ar
    11    5    7 2
    12    6   21 1
    13    7    9 1
    14    7   30 1
    15    8    9 1
    16    9   10 1
    17   10   11 1
    18   11   22 1
    19   11   23 1
    20   12   17 ar
    21   12   13 ar
    22   13   14 ar
    23   13   24 1
    24   14   15 ar
    25   14   25 1
    26   15   16 ar
    27   15   18 1
    28   16   17 ar
    29   16   26 1
    30   17   27 1
    31   18   28 1
    32   18   29 1
@<TRIPOS>MOLECULE
ZINC35324130
   29    31     0     0     0
SMALL
USER_CHARGES

@<TRIPOS>ATOM
      1 C1         -0.0132    1.3559   -0.2859 C.ar      1 <0>        -0.0580
      2 C2          1.1678    2.0821   -0.3182 C.ar      1 <0>        -0.1615
      3 C3          2.3876    1.4437   -0.1464 C.ar      1 <0>         0.0498
      4 C4          2.4164    0.0510    0.0616 C.ar      1 <0>        -0.1883
      5 C5          1.2120   -0.6741    0.0927 C.ar      1 <0>         0.1540
      6 C6          0.0016   -0.0059   -0.0834 C.ar      1 <0>        -0.1578
      7 N1          1.5447   -1.9866    0.3076 N.pl3     1 <0>        -0.5105
      8 N2          2.9351   -2.0967    0.4117 N.2       1 <0>        -0.3234
      9 C7          3.4879   -0.9203    0.2728 C.2       1 <0>         0.3660
     10 N3          4.8570   -0.6418    0.3172 N.pl3     1 <0>        -0.8360
     11 C8          3.6486    2.2200   -0.1820 C.ar      1 <0>        -0.1189
     12 C9          4.6513    1.8828   -1.0915 C.ar      1 <0>        -0.0581
     13 C10         5.8237    2.6066   -1.1226 C.ar      1 <0>        -0.1992
     14 C11         6.0076    3.6722   -0.2485 C.ar      1 <0>         0.2230
     15 C12         5.0099    4.0103    0.6589 C.ar      1 <0>        -0.1971
     16 C13         3.8333    3.2932    0.6901 C.ar      1 <0>        -0.0483
     17 N4          7.1958    4.4032   -0.2816 N.pl3     1 <0>        -0.8757
     18 H1         -0.9564    1.8654   -0.4169 H         1 <0>         0.1311
     19 H2          1.1379    3.1497   -0.4782 H         1 <0>         0.1278
     20 H3         -0.9267   -0.5575   -0.0610 H         1 <0>         0.1266
     21 H4          5.1648    0.2781    0.3231 H         1 <0>         0.4126
     22 H5          5.4992   -1.3683    0.3421 H         1 <0>         0.4043
     23 H6          4.5091    1.0550   -1.7704 H         1 <0>         0.1248
     24 H7          6.6004    2.3458   -1.8262 H         1 <0>         0.1239
     25 H8          5.1553    4.8382    1.3371 H         1 <0>         0.1235
     26 H9          3.0566    3.5592    1.3918 H         1 <0>         0.1257
     27 H10         7.8926    4.1678   -0.9141 H         1 <0>         0.3995
     28 H11         7.3250    5.1467    0.3278 H         1 <0>         0.3996
     29 H12         0.9159   -2.7219    0.3765 H         1 <0>         0.4405
@<TRIPOS>BOND
     1    1    6 ar
     2    1    2 ar
     3    1   18 1
     4    2    3 ar
     5    2   19 1
     6    3    4 ar
     7    3   11 1
     8    4    5 ar
     9    4    9 1
    10    5    6 ar
    11    5    7 1
    12    6   20 1
    13    7    8 1
    14    7   29 1
    15    8    9 2
    16    9   10 1
    17   10   21 1
    18   10   22 1
    19   11   16 ar
    20   11   12 ar
    21   12   13 ar
    22   12   23 1
    23   13   14 ar
    24   13   24 1
    25   14   15 ar
    26   14   17 1
    27   15   16 ar
    28   15   25 1
    29   16   26 1
    30   17   27 1
    31   17   28 1
@<TRIPOS>MOLECULE
ZINC06718813
   46    49     0     0     0
SMALL
USER_CHARGES
3-[4-(3-amino-1H-indazol-4-yl)phenyl]-1-(2-fluoro-5-methyl-phenyl)urea
@<TRIPOS>ATOM
      1 C1          6.9492   -0.6708   -4.4566 C.3       1 <0>        -0.1151
      2 C2          7.3188   -0.0066   -3.1554 C.ar      1 <0>        -0.0747
      3 C3          8.6152   -0.0905   -2.6815 C.ar      1 <0>        -0.1060
      4 C4          8.9590    0.5169   -1.4879 C.ar      1 <0>        -0.1295
      5 C5          8.0061    1.2101   -0.7639 C.ar      1 <0>         0.0645
      6 C6          6.7020    1.2957   -1.2387 C.ar      1 <0>         0.1336
      7 C7          6.3607    0.6802   -2.4351 C.ar      1 <0>        -0.0953
      8 N1          5.7336    1.9963   -0.5085 N.am      1 <0>        -0.6783
      9 C8          4.4547    1.5712   -0.5040 C.2       1 <0>         0.7069
     10 O1          4.1265    0.6239   -1.1921 O.2       1 <0>        -0.5500
     11 N2          3.5395    2.1961    0.2631 N.am      1 <0>        -0.6801
     12 C9          2.2409    1.6865    0.3572 C.ar      1 <0>         0.1677
     13 C10         1.1632    2.5541    0.4899 C.ar      1 <0>        -0.1430
     14 C11        -0.1180    2.0545    0.5834 C.ar      1 <0>        -0.0892
     15 C12        -0.3326    0.6766    0.5442 C.ar      1 <0>        -0.0682
     16 C13         0.7509   -0.1919    0.4104 C.ar      1 <0>        -0.0779
     17 C14         2.0300    0.3132    0.3174 C.ar      1 <0>        -0.1142
     18 C15        -1.7083    0.1367    0.6449 C.ar      1 <0>         0.0376
     19 C16        -2.0347   -0.7648    1.6483 C.ar      1 <0>        -0.1557
     20 C17        -3.3230   -1.2675    1.7456 C.ar      1 <0>        -0.0592
     21 C18        -4.2968   -0.8911    0.8473 C.ar      1 <0>        -0.1529
     22 C19        -3.9969    0.0086   -0.1734 C.ar      1 <0>         0.1547
     23 C20        -2.6946    0.5292   -0.2801 C.ar      1 <0>        -0.1858
     24 C21        -2.7034    1.4283   -1.4324 C.2       1 <0>         0.3642
     25 N3         -3.9099    1.4169   -1.9352 N.2       1 <0>        -0.3205
     26 N4         -4.7292    0.5606   -1.1926 N.pl3     1 <0>        -0.5119
     27 H1         -5.6955    0.3797   -1.3759 H         1 <0>         0.4473
     28 N5         -1.6172    2.1667   -1.9108 N.pl3     1 <0>        -0.8360
     29 F1          8.3418    1.8036    0.4023 F         1 <0>        -0.1384
     30 H2          6.6188   -1.6912   -4.2627 H         1 <0>         0.0755
     31 H3          6.1436   -0.1125   -4.9335 H         1 <0>         0.0695
     32 H4          7.8178   -0.6890   -5.1149 H         1 <0>         0.0704
     33 H5          9.3607   -0.6319   -3.2448 H         1 <0>         0.1352
     34 H6          9.9724    0.4496   -1.1204 H         1 <0>         0.1410
     35 H7          5.3477    0.7413   -2.8045 H         1 <0>         0.1523
     36 H8          5.9835    2.7876   -0.0061 H         1 <0>         0.4118
     37 H9          3.7818    2.9993    0.7499 H         1 <0>         0.4106
     38 H10         1.3298    3.6208    0.5203 H         1 <0>         0.1310
     39 H11        -0.9554    2.7293    0.6824 H         1 <0>         0.1315
     40 H12         0.5876   -1.2590    0.3794 H         1 <0>         0.1314
     41 H13         2.8692   -0.3587    0.2138 H         1 <0>         0.1391
     42 H14        -1.2822   -1.0738    2.3586 H         1 <0>         0.1292
     43 H15        -3.5651   -1.9655    2.5334 H         1 <0>         0.1325
     44 H16        -5.2951   -1.2940    0.9345 H         1 <0>         0.1278
     45 H17        -0.7342    2.0309   -1.5329 H         1 <0>         0.4118
     46 H18        -1.7465    2.8151   -2.6206 H         1 <0>         0.4050
@<TRIPOS>BOND
     1    1    2 1
     2    1   30 1
     3    1   31 1
     4    1   32 1
     5    2    7 ar
     6    2    3 ar
     7    3    4 ar
     8    3   33 1
     9    4    5 ar
    10    4   34 1
    11    5    6 ar
    12    5   29 1
    13    6    7 ar
    14    6    8 1
    15    7   35 1
    16    8    9 am
    17    8   36 1
    18    9   10 2
    19    9   11 am
    20   11   12 1
    21   11   37 1
    22   12   17 ar
    23   12   13 ar
    24   13   14 ar
    25   13   38 1
    26   14   15 ar
    27   14   39 1
    28   15   16 ar
    29   15   18 1
    30   16   17 ar
    31   16   40 1
    32   17   41 1
    33   18   23 ar
    34   18   19 ar
    35   19   20 ar
    36   19   42 1
    37   20   21 ar
    38   20   43 1
    39   21   22 ar
    40   21   44 1
    41   22   26 1
    42   22   23 ar
    43   23   24 1
    44   24   25 2
    45   24   28 1
    46   25   26 1
    47   26   27 1
    48   28   45 1
    49   28   46 1
@<TRIPOS>MOLECULE
ZINC14965294
   63    67     0     0     0
SMALL
USER_CHARGES
4-[[2-[[4-chloro-3-[[(2S)-1-methylpyrrolidin-2-yl]methoxy]phenyl]amino]-1,3-benzoxazol-5-yl]oxy]-N-methyl-pyridine-2-carboxamide
@<TRIPOS>ATOM
      1 C1        -13.7281    0.6446    5.1022 C.3       1 <0>         0.0839
      2 N1        -12.2870    0.5892    4.8445 N.am      1 <0>        -0.7127
      3 C2        -11.8065    0.9193    3.6293 C.2       1 <0>         0.5702
      4 O1        -12.5687    1.2629    2.7475 O.2       1 <0>        -0.5245
      5 C3        -10.3489    0.8632    3.3687 C.ar      1 <0>         0.1155
      6 C4         -9.8593    1.2108    2.1139 C.ar      1 <0>        -0.1328
      7 C5         -8.4874    1.1472    1.8837 C.ar      1 <0>         0.1579
      8 C6         -7.6590    0.7469    2.9288 C.ar      1 <0>        -0.2285
      9 C7         -8.2201    0.4224    4.1506 C.ar      1 <0>         0.1389
     10 N2         -9.5215    0.4868    4.3368 N.ar      1 <0>        -0.4773
     11 O2         -7.9699    1.4727    0.6718 O.3       1 <0>        -0.2394
     12 C8         -6.6170    1.4887    0.5390 C.ar      1 <0>         0.0926
     13 C9         -5.9388    2.7028    0.5025 C.ar      1 <0>        -0.0970
     14 C10        -4.5659    2.7320    0.3685 C.ar      1 <0>        -0.0616
     15 C11        -3.8548    1.5472    0.2683 C.ar      1 <0>         0.0039
     16 C12        -4.5323    0.3193    0.3039 C.ar      1 <0>         0.0682
     17 C13        -5.9209    0.2985    0.4402 C.ar      1 <0>        -0.0835
     18 N3         -3.5863   -0.6518    0.1813 N.2       1 <0>        -0.5055
     19 C14        -2.4114   -0.0836    0.0855 C.2       1 <0>         0.4915
     20 O3         -2.5403    1.2540    0.1319 O.3       1 <0>        -0.2175
     21 N4         -1.2172   -0.7574   -0.0492 N.pl3     1 <0>        -0.6094
     22 C15        -0.0087   -0.0545   -0.0052 C.ar      1 <0>         0.2115
     23 C16         0.0728    1.1455    0.6901 C.ar      1 <0>        -0.1617
     24 C17         1.2661    1.8401    0.7333 C.ar      1 <0>        -0.0313
     25 C18         2.3820    1.3433    0.0850 C.ar      1 <0>        -0.0837
     26 C19         2.3058    0.1443   -0.6114 C.ar      1 <0>         0.1596
     27 C20         1.1101   -0.5549   -0.6566 C.ar      1 <0>        -0.2268
     28 O4          3.4031   -0.3429   -1.2486 O.3       1 <0>        -0.3096
     29 C21         3.2520   -1.5812   -1.9457 C.3       1 <0>         0.0375
     30 C22         4.5828   -1.9666   -2.5949 C.3       1 <0>         0.0329
     31 H1          4.9619   -1.1434   -3.2005 H         1 <0>         0.1534
     32 C23         4.4135   -3.2359   -3.4573 C.3       1 <0>        -0.1411
     33 C24         5.7173   -4.0349   -3.2546 C.3       1 <0>        -0.1483
     34 C25         6.5647   -3.1813   -2.2869 C.3       1 <0>        -0.0069
     35 C26         6.2123   -1.1603   -0.9752 C.3       1 <0>        -0.0397
     36 Cl1         3.8796    2.2194    0.1418 Cl        1 <0>        -0.0465
     37 H2        -14.0865    1.6619    4.9448 H         1 <0>         0.0645
     38 H3        -14.2452   -0.0321    4.4218 H         1 <0>         0.0644
     39 H4        -13.9249    0.3453    6.1316 H         1 <0>         0.0810
     40 H5        -11.6787    0.3149    5.5484 H         1 <0>         0.4138
     41 H6        -10.5332    1.5213    1.3292 H         1 <0>         0.1610
     42 H7         -6.5898    0.6909    2.7871 H         1 <0>         0.1446
     43 H8         -7.5811    0.1111    4.9637 H         1 <0>         0.1696
     44 H9         -6.4904    3.6281    0.5796 H         1 <0>         0.1566
     45 H10        -4.0459    3.6782    0.3412 H         1 <0>         0.1500
     46 H11        -6.4492   -0.6430    0.4687 H         1 <0>         0.1485
     47 H12        -1.2145   -1.7193   -0.1745 H         1 <0>         0.4450
     48 H13        -0.7985    1.5378    1.1935 H         1 <0>         0.1477
     49 H14         1.3276    2.7728    1.2742 H         1 <0>         0.1543
     50 H15         1.0489   -1.4874   -1.1980 H         1 <0>         0.1445
     51 H16         2.9515   -2.3590   -1.2437 H         1 <0>         0.0895
     52 H17         2.4893   -1.4733   -2.7168 H         1 <0>         0.1131
     53 H18         3.5568   -3.8156   -3.1135 H         1 <0>         0.1030
     54 H19         4.2933   -2.9673   -4.5068 H         1 <0>         0.1171
     55 H20         5.5007   -5.0069   -2.8115 H         1 <0>         0.1022
     56 H21         6.2362   -4.1601   -4.2050 H         1 <0>         0.1137
     57 H22         7.1090   -3.8213   -1.5925 H         1 <0>         0.1399
     58 H23         7.2575   -2.5503   -2.8437 H         1 <0>         0.1341
     59 H24         5.4523   -0.5277   -0.5165 H         1 <0>         0.1326
     60 H25         6.9334   -1.4688   -0.2183 H         1 <0>         0.1248
     61 H26         6.7246   -0.6026   -1.7592 H         1 <0>         0.1192
     62 N5          5.5663   -2.3627   -1.5897 N.4       1 <0>        -0.3946
     63 H27         5.1116   -2.9146   -0.8528 H         1 <0>         0.4280
@<TRIPOS>BOND
     1    1    2 1
     2    1   37 1
     3    1   38 1
     4    1   39 1
     5    2    3 am
     6    2   40 1
     7    3    4 2
     8    3    5 1
     9    5   10 ar
    10    5    6 ar
    11    6    7 ar
    12    6   41 1
    13    7    8 ar
    14    7   11 1
    15    8    9 ar
    16    8   42 1
    17    9   10 ar
    18    9   43 1
    19   11   12 1
    20   12   17 ar
    21   12   13 ar
    22   13   14 ar
    23   13   44 1
    24   14   15 ar
    25   14   45 1
    26   15   20 1
    27   15   16 ar
    28   16   17 ar
    29   16   18 1
    30   17   46 1
    31   18   19 2
    32   19   20 1
    33   19   21 1
    34   21   22 1
    35   21   47 1
    36   22   27 ar
    37   22   23 ar
    38   23   24 ar
    39   23   48 1
    40   24   25 ar
    41   24   49 1
    42   25   26 ar
    43   25   36 1
    44   26   27 ar
    45   26   28 1
    46   27   50 1
    47   28   29 1
    48   29   30 1
    49   29   51 1
    50   29   52 1
    51   30   31 1
    52   30   32 1
    53   30   62 1
    54   32   33 1
    55   32   53 1
    56   32   54 1
    57   33   34 1
    58   33   55 1
    59   33   56 1
    60   34   57 1
    61   34   58 1
    62   34   62 1
    63   35   59 1
    64   35   60 1
    65   35   61 1
    66   35   62 1
    67   62   63 1
@<TRIPOS>MOLECULE
ZINC03834198
   55    58     0     0     0
SMALL
USER_CHARGES

@<TRIPOS>ATOM
      1 C1          2.2102    1.3214   -1.5438 C.3       1 <0>        -0.0473
      2 N1          2.0302   -0.1310   -1.4177 N.4       1 <0>        -0.3861
      3 C2          2.8485   -0.8135   -2.4272 C.3       1 <0>        -0.0039
      4 C3          2.6029   -2.3220   -2.3537 C.3       1 <0>        -0.1426
      5 C4          2.9828   -2.8281   -0.9591 C.3       1 <0>        -0.0980
      6 C5          2.1768   -2.0570    0.0901 C.3       1 <0>        -0.1436
      7 C6          2.4382   -0.5583   -0.0740 C.3       1 <0>        -0.0065
      8 C7          2.6653   -4.3210   -0.8526 C.3       1 <0>         0.0553
      9 O1          3.1265   -4.8175    0.4056 O.3       1 <0>        -0.2959
     10 C8          2.9210   -6.1358    0.6612 C.ar      1 <0>         0.1621
     11 C9          2.2972   -6.9233   -0.2811 C.ar      1 <0>        -0.1791
     12 C10         2.0867   -8.2816   -0.0149 C.ar      1 <0>         0.2018
     13 C11         2.5192   -8.8246    1.2204 C.ar      1 <0>        -0.1784
     14 C12         3.1508   -8.0026    2.1612 C.ar      1 <0>        -0.1424
     15 C13         3.3512   -6.6812    1.8787 C.ar      1 <0>         0.1099
     16 O2          3.9702   -5.8850    2.7909 O.3       1 <0>        -0.3030
     17 C14         4.3854   -6.4992    4.0125 C.3       1 <0>         0.0198
     18 C15         2.2930  -10.2009    1.4605 C.ar      1 <0>         0.4667
     19 N2          1.6881  -10.9114    0.5174 N.ar      1 <0>        -0.5768
     20 C16         1.3012  -10.3606   -0.6222 C.ar      1 <0>         0.3478
     21 N3          1.4842   -9.0917   -0.8996 N.ar      1 <0>        -0.5414
     22 N4          2.6915  -10.7885    2.6441 N.pl3     1 <0>        -0.6296
     23 C17         2.5831  -12.1741    2.8088 C.ar      1 <0>         0.1376
     24 C18         2.4560  -12.9987    1.6992 C.ar      1 <0>        -0.1039
     25 C19         2.3491  -14.3660    1.8644 C.ar      1 <0>        -0.0732
     26 C20         2.3685  -14.9152    3.1341 C.ar      1 <0>        -0.0857
     27 C21         2.4949  -14.0974    4.2430 C.ar      1 <0>        -0.1007
     28 C22         2.6081  -12.7284    4.0841 C.ar      1 <0>         0.0686
     29 F1          2.7372  -11.9301    5.1664 F         1 <0>        -0.1332
     30 Br1         2.2212  -16.7875    3.3546 Br        1 <0>        -0.0295
     31 H1          3.2589    1.5727   -1.3848 H         1 <0>         0.1219
     32 H2          1.9075    1.6398   -2.5414 H         1 <0>         0.1242
     33 H3          1.5979    1.8295   -0.7989 H         1 <0>         0.1242
     34 H4          2.5792   -0.4499   -3.4189 H         1 <0>         0.1343
     35 H5          3.9024   -0.6078   -2.2397 H         1 <0>         0.1306
     36 H6          1.5493   -2.5288   -2.5414 H         1 <0>         0.0934
     37 H7          3.2127   -2.8271   -3.1028 H         1 <0>         0.1176
     38 H8          4.0478   -2.6678   -0.7908 H         1 <0>         0.1030
     39 H9          1.1143   -2.2583   -0.0469 H         1 <0>         0.0893
     40 H10         2.4820   -2.3726    1.0878 H         1 <0>         0.1210
     41 H11         3.5008   -0.3580    0.0634 H         1 <0>         0.1299
     42 H12         1.8660   -0.0063    0.6716 H         1 <0>         0.1325
     43 H13         1.5883   -4.4698   -0.9292 H         1 <0>         0.0742
     44 H14         3.1645   -4.8571   -1.6597 H         1 <0>         0.0787
     45 H15         1.9724   -6.4960   -1.2182 H         1 <0>         0.1540
     46 H16         3.4818   -8.4122    3.1042 H         1 <0>         0.1414
     47 H17         4.8638   -5.7549    4.6491 H         1 <0>         0.1093
     48 H18         3.5165   -6.9116    4.5254 H         1 <0>         0.0597
     49 H19         5.0925   -7.2996    3.7947 H         1 <0>         0.0600
     50 H20         0.8133  -10.9840   -1.3569 H         1 <0>         0.2036
     51 H21         3.0467  -10.2411    3.3618 H         1 <0>         0.4241
     52 H22         2.4404  -12.5714    0.7074 H         1 <0>         0.1818
     53 H23         2.2499  -15.0072    1.0010 H         1 <0>         0.1463
     54 H24         2.5094  -14.5289    5.2329 H         1 <0>         0.1515
     55 H25         1.0589   -0.3624   -1.5626 H         1 <0>         0.4246
@<TRIPOS>BOND
     1    1    2 1
     2    1   31 1
     3    1   32 1
     4    1   33 1
     5    2    7 1
     6    2    3 1
     7    2   55 1
     8    3    4 1
     9    3   34 1
    10    3   35 1
    11    4    5 1
    12    4   36 1
    13    4   37 1
    14    5    6 1
    15    5    8 1
    16    5   38 1
    17    6    7 1
    18    6   39 1
    19    6   40 1
    20    7   41 1
    21    7   42 1
    22    8    9 1
    23    8   43 1
    24    8   44 1
    25    9   10 1
    26   10   15 ar
    27   10   11 ar
    28   11   12 ar
    29   11   45 1
    30   12   21 ar
    31   12   13 ar
    32   13   14 ar
    33   13   18 ar
    34   14   15 ar
    35   14   46 1
    36   15   16 1
    37   16   17 1
    38   17   47 1
    39   17   48 1
    40   17   49 1
    41   18   19 ar
    42   18   22 1
    43   19   20 ar
    44   20   21 ar
    45   20   50 1
    46   22   23 1
    47   22   51 1
    48   23   28 ar
    49   23   24 ar
    50   24   25 ar
    51   24   52 1
    52   25   26 ar
    53   25   53 1
    54   26   27 ar
    55   26   30 1
    56   27   28 ar
    57   27   54 1
    58   28   29 1
@<TRIPOS>MOLECULE
ZINC29039424
   61    64     0     0     0
SMALL
USER_CHARGES
4-cyano-N-[4-(4-methylpiperazin-1-yl)-2-(4-methyl-1-piperidyl)phenyl]-1H-pyrrole-2-carboxamide
@<TRIPOS>ATOM
      1 C1         -1.7952   10.8085   -5.3008 C.3       1 <0>        -0.1510
      2 C2         -1.4487    9.4218   -4.7550 C.3       1 <0>        -0.0953
      3 C3         -1.7414    8.3639   -5.8225 C.3       1 <0>        -0.1158
      4 C4         -1.4507    6.9746   -5.2502 C.3       1 <0>         0.0491
      5 N1         -2.2890    6.7463   -4.0663 N.pl3     1 <0>        -0.4894
      6 C5         -1.9920    7.7215   -3.0093 C.3       1 <0>         0.0543
      7 C6         -2.2989    9.1330   -3.5147 C.3       1 <0>        -0.1152
      8 C7         -2.1454    5.4370   -3.5953 C.ar      1 <0>         0.1039
      9 C8         -1.5653    5.2039   -2.3578 C.ar      1 <0>        -0.1579
     10 C9         -1.4237    3.9034   -1.8932 C.ar      1 <0>         0.0904
     11 C10        -1.8575    2.8363   -2.6696 C.ar      1 <0>        -0.1600
     12 C11        -2.4411    3.0667   -3.9008 C.ar      1 <0>        -0.0900
     13 C12        -2.5851    4.3636   -4.3698 C.ar      1 <0>         0.1412
     14 N2         -3.1730    4.5960   -5.6224 N.am      1 <0>        -0.6765
     15 C13        -3.1291    3.6432   -6.5746 C.2       1 <0>         0.5953
     16 O1         -2.6409    2.5564   -6.3259 O.2       1 <0>        -0.5081
     17 C14        -3.6701    3.9162   -7.9114 C.2       1 <0>        -0.0699
     18 C15        -3.6878    3.0434   -8.9597 C.2       1 <0>        -0.0468
     19 C16        -4.2948    3.7131  -10.0456 C.2       1 <0>        -0.1302
     20 C17        -4.6252    4.9811   -9.6073 C.2       1 <0>         0.1193
     21 N3         -4.2524    5.0956   -8.3206 N.pl3     1 <0>        -0.5365
     22 H1         -4.3453    5.9362   -7.6172 H         1 <0>         0.4502
     23 C18        -4.5247    3.1782  -11.3539 C.1       1 <0>         0.2793
     24 N4         -4.7071    2.7539  -12.3918 N.1       1 <0>        -0.4191
     25 N5         -0.8386    3.6670   -0.6448 N.pl3     1 <0>        -0.4856
     26 C19        -0.7877    2.2280   -0.3510 C.3       1 <0>         0.0192
     27 C20        -0.0711    2.0075    0.9832 C.3       1 <0>        -0.0009
     28 N6         -0.7820    2.7339    2.0446 N.4       1 <0>        -0.4033
     29 C21        -0.8333    4.1729    1.7505 C.3       1 <0>        -0.0010
     30 C22        -1.5499    4.3934    0.4163 C.3       1 <0>         0.0255
     31 C23        -0.1671    2.4856    3.3554 C.3       1 <0>        -0.0453
     32 H2         -1.1840   11.0151   -6.1917 H         1 <0>         0.0579
     33 H3         -1.5899   11.5672   -4.5313 H         1 <0>         0.0574
     34 H4         -2.8608   10.8401   -5.5718 H         1 <0>         0.0575
     35 H5         -0.3820    9.3932   -4.4879 H         1 <0>         0.0689
     36 H6         -2.7986    8.4260   -6.1200 H         1 <0>         0.0735
     37 H7         -1.1025    8.5419   -6.7001 H         1 <0>         0.0761
     38 H8         -1.6741    6.2110   -6.0099 H         1 <0>         0.0831
     39 H9         -0.3900    6.9097   -4.9659 H         1 <0>         0.0476
     40 H10        -2.6120    7.5057   -2.1266 H         1 <0>         0.0803
     41 H11        -0.9287    7.6536   -2.7360 H         1 <0>         0.0462
     42 H12        -2.0617    9.8654   -2.7290 H         1 <0>         0.0736
     43 H13        -3.3650    9.2073   -3.7755 H         1 <0>         0.0756
     44 H14        -1.2243    6.0331   -1.7557 H         1 <0>         0.1342
     45 H15        -1.7421    1.8251   -2.3085 H         1 <0>         0.1295
     46 H16        -2.7815    2.2354   -4.5004 H         1 <0>         0.1622
     47 H17        -3.6697    5.5558   -5.8273 H         1 <0>         0.4318
     48 H18        -3.3091    2.0320   -8.9596 H         1 <0>         0.1600
     49 H19        -5.1056    5.7482  -10.1966 H         1 <0>         0.1908
     50 H20        -1.8113    1.8301   -0.2887 H         1 <0>         0.0728
     51 H21        -0.2408    1.7093   -1.1522 H         1 <0>         0.1310
     52 H22        -0.0574    0.9331    1.2189 H         1 <0>         0.1405
     53 H23         0.9613    2.3802    0.9109 H         1 <0>         0.1361
     54 H24        -1.3804    4.6916    2.5516 H         1 <0>         0.1394
     55 H25         0.1902    4.5711    1.6881 H         1 <0>         0.1359
     56 H26        -1.5637    5.4675    0.1795 H         1 <0>         0.1253
     57 H27        -2.5823    4.0204    0.4875 H         1 <0>         0.0700
     58 H28        -0.7177    3.0401    4.1296 H         1 <0>         0.1252
     59 H29         0.8802    2.8216    3.3386 H         1 <0>         0.1202
     60 H30        -0.2034    1.4093    3.5794 H         1 <0>         0.1258
     61 H31        -1.8150    2.3576    2.0808 H         1 <0>         0.4419
@<TRIPOS>BOND
     1    1    2 1
     2    1   32 1
     3    1   33 1
     4    1   34 1
     5    2    7 1
     6    2    3 1
     7    2   35 1
     8    3    4 1
     9    3   36 1
    10    3   37 1
    11    4    5 1
    12    4   38 1
    13    4   39 1
    14    5    6 1
    15    5    8 1
    16    6    7 1
    17    6   40 1
    18    6   41 1
    19    7   42 1
    20    7   43 1
    21    8   13 ar
    22    8    9 ar
    23    9   10 ar
    24    9   44 1
    25   10   11 ar
    26   10   25 1
    27   11   12 ar
    28   11   45 1
    29   12   13 ar
    30   12   46 1
    31   13   14 1
    32   14   15 am
    33   14   47 1
    34   15   16 2
    35   15   17 1
    36   17   21 1
    37   17   18 2
    38   18   19 1
    39   18   48 1
    40   19   20 2
    41   19   23 1
    42   20   21 1
    43   20   49 1
    44   21   22 1
    45   23   24 3
    46   25   30 1
    47   25   26 1
    48   26   27 1
    49   26   50 1
    50   26   51 1
    51   27   28 1
    52   27   52 1
    53   27   53 1
    54   28   29 1
    55   28   31 1
    56   28   61 1
    57   29   30 1
    58   29   54 1
    59   29   55 1
    60   30   56 1
    61   30   57 1
    62   31   58 1
    63   31   59 1
    64   31   60 1
@<TRIPOS>MOLECULE
ZINC06716957
   61    65     0     0     0
SMALL
USER_CHARGES
4-methyl-N-[3-(4-methylimidazol-1-yl)-5-(trifluoromethyl)phenyl]-3-[4-(3-pyridyl)pyrimidin-2-yl]amino-benzamide
@<TRIPOS>ATOM
      1 C1          4.8797   -3.9669    0.1547 C.3       1 <0>        -0.1225
      2 C2          3.5754   -4.7217    0.1669 C.ar      1 <0>        -0.0869
      3 C3          3.5795   -6.1039    0.1964 C.ar      1 <0>        -0.1014
      4 C4          2.3894   -6.8021    0.2020 C.ar      1 <0>        -0.1034
      5 C5          1.1753   -6.1126    0.1832 C.ar      1 <0>        -0.1270
      6 C6          1.1710   -4.7182    0.1589 C.ar      1 <0>        -0.0590
      7 C7          2.3724   -4.0259    0.1535 C.ar      1 <0>         0.1619
      8 N1          2.3736   -2.6277    0.1286 N.pl3     1 <0>        -0.6325
      9 C8          1.2893   -1.9432   -0.3959 C.ar      1 <0>         0.5614
     10 N2          0.3200   -2.6260   -0.9883 N.ar      1 <0>        -0.5534
     11 C9         -0.7320   -2.0090   -1.5021 C.ar      1 <0>         0.1977
     12 C10        -0.8164   -0.6303   -1.4172 C.ar      1 <0>        -0.2657
     13 C11         0.2206    0.0624   -0.7871 C.ar      1 <0>         0.2658
     14 N3          1.2507   -0.6239   -0.2975 N.ar      1 <0>        -0.5571
     15 C12         0.1772    1.5403   -0.6710 C.ar      1 <0>        -0.1169
     16 C13         1.2145    2.2342   -0.0406 C.ar      1 <0>        -0.0276
     17 C14         1.1266    3.6129    0.0420 C.ar      1 <0>        -0.1784
     18 C15         0.0258    4.2543   -0.4966 C.ar      1 <0>         0.1175
     19 N4         -0.9376    3.5726   -1.0856 N.ar      1 <0>        -0.4841
     20 C16        -0.8952    2.2604   -1.1934 C.ar      1 <0>         0.1340
     21 C17        -0.1012   -6.8583    0.1887 C.2       1 <0>         0.5673
     22 O1         -1.1570   -6.2560    0.1719 O.2       1 <0>        -0.5061
     23 N5         -0.0944   -8.2058    0.2122 N.am      1 <0>        -0.6669
     24 C18        -1.2963   -8.9130    0.1072 C.ar      1 <0>         0.1849
     25 C19        -1.4127  -10.1752    0.6766 C.ar      1 <0>        -0.1112
     26 C20        -2.6011  -10.8720    0.5773 C.ar      1 <0>        -0.1296
     27 C21        -3.6741  -10.3211   -0.0973 C.ar      1 <0>        -0.1084
     28 C22        -3.5624   -9.0626   -0.6729 C.ar      1 <0>         0.1652
     29 C23        -2.3721   -8.3576   -0.5706 C.ar      1 <0>        -0.1152
     30 N6         -4.6520   -8.5044   -1.3568 N.pl3     1 <0>        -0.4135
     31 C24        -4.6878   -7.2792   -1.9710 C.2       1 <0>        -0.0484
     32 C25        -5.9185   -7.1442   -2.5004 C.2       1 <0>         0.0096
     33 N7         -6.6190   -8.2532   -2.2203 N.2       1 <0>        -0.4758
     34 C26        -5.8695   -9.0779   -1.5408 C.2       1 <0>         0.1944
     35 C27        -6.4219   -5.9529   -3.2741 C.3       1 <0>        -0.0703
     36 C28        -2.7260  -12.2385    1.2004 C.3       1 <0>         0.5133
     37 F1         -2.3418  -13.2115    0.2714 F         1 <0>        -0.1709
     38 F2         -1.8981  -12.3154    2.3255 F         1 <0>        -0.1721
     39 F3         -4.0538  -12.4572    1.5826 F         1 <0>        -0.1717
     40 H1          5.1932   -3.7667    1.1793 H         1 <0>         0.0780
     41 H2          5.6404   -4.5642   -0.3479 H         1 <0>         0.0781
     42 H3          4.7488   -3.0240   -0.3761 H         1 <0>         0.0665
     43 H4          4.5175   -6.6391    0.2106 H         1 <0>         0.1366
     44 H5          2.3969   -7.8819    0.2212 H         1 <0>         0.1267
     45 H6          0.2351   -4.1794    0.1439 H         1 <0>         0.1656
     46 H7          3.1337   -2.1370    0.4786 H         1 <0>         0.4259
     47 H8         -1.5163   -2.5753   -1.9823 H         1 <0>         0.1768
     48 H9         -1.6642   -0.1022   -1.8280 H         1 <0>         0.1524
     49 H10         2.0625    1.7077    0.3717 H         1 <0>         0.1463
     50 H11         1.9093    4.1820    0.5216 H         1 <0>         0.1425
     51 H12        -0.0458    5.3301   -0.4343 H         1 <0>         0.1622
     52 H13        -1.7012    1.7376   -1.6869 H         1 <0>         0.1630
     53 H14         0.7441   -8.6851    0.3020 H         1 <0>         0.4178
     54 H15        -0.5744  -10.6101    1.2006 H         1 <0>         0.1488
     55 H16        -4.6008  -10.8701   -0.1765 H         1 <0>         0.1477
     56 H17        -2.2829   -7.3787   -1.0179 H         1 <0>         0.1618
     57 H18        -3.8832   -6.5605   -2.0210 H         1 <0>         0.1795
     58 H19        -6.1682  -10.0519   -1.1825 H         1 <0>         0.2113
     59 H20        -6.2142   -6.0943   -4.3347 H         1 <0>         0.0711
     60 H21        -7.4967   -5.8505   -3.1248 H         1 <0>         0.0731
     61 H22        -5.9187   -5.0522   -2.9223 H         1 <0>         0.0710
@<TRIPOS>BOND
     1    1    2 1
     2    1   40 1
     3    1   41 1
     4    1   42 1
     5    2    7 ar
     6    2    3 ar
     7    3    4 ar
     8    3   43 1
     9    4    5 ar
    10    4   44 1
    11    5    6 ar
    12    5   21 1
    13    6    7 ar
    14    6   45 1
    15    7    8 1
    16    8    9 1
    17    8   46 1
    18    9   14 ar
    19    9   10 ar
    20   10   11 ar
    21   11   12 ar
    22   11   47 1
    23   12   13 ar
    24   12   48 1
    25   13   14 ar
    26   13   15 1
    27   15   20 ar
    28   15   16 ar
    29   16   17 ar
    30   16   49 1
    31   17   18 ar
    32   17   50 1
    33   18   19 ar
    34   18   51 1
    35   19   20 ar
    36   20   52 1
    37   21   22 2
    38   21   23 am
    39   23   24 1
    40   23   53 1
    41   24   29 ar
    42   24   25 ar
    43   25   26 ar
    44   25   54 1
    45   26   27 ar
    46   26   36 1
    47   27   28 ar
    48   27   55 1
    49   28   29 ar
    50   28   30 1
    51   29   56 1
    52   30   34 1
    53   30   31 1
    54   31   32 2
    55   31   57 1
    56   32   33 1
    57   32   35 1
    58   33   34 2
    59   34   58 1
    60   35   59 1
    61   35   60 1
    62   35   61 1
    63   36   37 1
    64   36   38 1
    65   36   39 1
@<TRIPOS>MOLECULE
ZINC12410091
   32    34     0     0     0
SMALL
USER_CHARGES

@<TRIPOS>ATOM
      1 C1         -1.1178    0.9648   -0.0829 C.3       1 <0>        -0.0893
      2 C2         -0.2110   -0.2369   -0.0149 C.2       1 <0>        -0.0965
      3 C3          0.2945   -0.9575   -1.0985 C.2       1 <0>        -0.2107
      4 C4          1.0666   -1.9603   -0.6105 C.2       1 <0>         0.0646
      5 N1          1.0661   -1.8976    0.7449 N.pl3     1 <0>        -0.5091
      6 H1          1.5402   -2.4998    1.3395 H         1 <0>         0.4188
      7 C5          0.2839   -0.8320    1.1355 C.2       1 <0>        -0.0205
      8 C6          0.0313   -0.4237    2.4614 C.2       1 <0>         0.0819
      9 C7         -0.0507   -1.3643    3.4702 C.2       1 <0>        -0.2071
     10 C8         -0.1650   -1.1166    4.9246 C.ar      1 <0>        -0.0949
     11 C9         -0.2226    0.0414    5.6934 C.ar      1 <0>        -0.0678
     12 C10        -0.3314   -0.0533    7.0660 C.ar      1 <0>        -0.1377
     13 C11        -0.3826   -1.2965    7.6746 C.ar      1 <0>        -0.0864
     14 C12        -0.3261   -2.4512    6.9211 C.ar      1 <0>        -0.1351
     15 C13        -0.2169   -2.3764    5.5367 C.ar      1 <0>         0.1361
     16 N2         -0.1424   -3.3615    4.5598 N.am      1 <0>        -0.6521
     17 C14        -0.0496   -2.8262    3.3306 C.2       1 <0>         0.5558
     18 O1          0.0255   -3.4453    2.2841 O.2       1 <0>        -0.5142
     19 C15         1.8050   -2.9793   -1.4395 C.3       1 <0>        -0.0930
     20 H2         -0.5157    1.8720   -0.1329 H         1 <0>         0.0696
     21 H3         -1.7460    0.8961   -0.9710 H         1 <0>         0.0689
     22 H4         -1.7478    0.9953    0.8062 H         1 <0>         0.0623
     23 H5          0.1040   -0.7529   -2.1417 H         1 <0>         0.1407
     24 H6         -0.0981    0.6243    2.6883 H         1 <0>         0.1527
     25 H7         -0.1820    1.0104    5.2182 H         1 <0>         0.1289
     26 H8         -0.3765    0.8433    7.6664 H         1 <0>         0.1307
     27 H9         -0.4670   -1.3628    8.7493 H         1 <0>         0.1317
     28 H10        -0.3669   -3.4147    7.4073 H         1 <0>         0.1271
     29 H11        -0.1589   -4.3141    4.7415 H         1 <0>         0.4170
     30 H12         2.8038   -2.6073   -1.6677 H         1 <0>         0.0754
     31 H13         1.8835   -3.9129   -0.8824 H         1 <0>         0.0673
     32 H14         1.2618   -3.1548   -2.3681 H         1 <0>         0.0848
@<TRIPOS>BOND
     1    1    2 1
     2    1   20 1
     3    1   21 1
     4    1   22 1
     5    2    7 2
     6    2    3 1
     7    3    4 2
     8    3   23 1
     9    4    5 1
    10    4   19 1
    11    5    6 1
    12    5    7 1
    13    7    8 1
    14    8    9 2
    15    8   24 1
    16    9   17 1
    17    9   10 1
    18   10   15 ar
    19   10   11 ar
    20   11   12 ar
    21   11   25 1
    22   12   13 ar
    23   12   26 1
    24   13   14 ar
    25   13   27 1
    26   14   15 ar
    27   14   28 1
    28   15   16 1
    29   16   17 am
    30   16   29 1
    31   17   18 2
    32   19   30 1
    33   19   31 1
    34   19   32 1
@<TRIPOS>MOLECULE
ZINC03073318
   36    38     0     0     0
SMALL
USER_CHARGES
[5-(2-amino-6-oxo-1H-purin-9-yl)-3,4-dihydroxy-tetrahydrofuran-2-yl]methoxyphosphonic acid
@<TRIPOS>ATOM
      1 C1          0.9744    6.9648   -3.8387 C.2       1 <0>         0.2513
      2 N1          0.5772    7.6381   -4.8786 N.2       1 <0>        -0.4307
      3 C2          0.1547    8.8642   -4.4847 C.2       1 <0>        -0.1225
      4 C3         -0.3656    9.9916   -5.1624 C.2       1 <0>         0.5936
      5 O1         -0.5143    9.9795   -6.3724 O.2       1 <0>        -0.5138
      6 N2         -0.6941   11.0823   -4.4352 N.am      1 <0>        -0.6417
      7 H1         -1.0637   11.8917   -4.8916 H         1 <0>         0.4264
      8 C4         -0.5241   11.0847   -3.0828 C.2       1 <0>         0.5848
      9 N3         -0.0414   10.0439   -2.4415 N.2       1 <0>        -0.5397
     10 C5          0.3055    8.9288   -3.0949 C.2       1 <0>         0.2828
     11 N4          0.8196    7.7196   -2.7122 N.pl3     1 <0>        -0.4408
     12 C6          1.1494    7.3121   -1.3442 C.3       1 <0>         0.3009
     13 H2          0.4479    7.7555   -0.6374 H         1 <0>         0.1183
     14 C7          2.5979    7.7205   -0.9958 C.3       1 <0>         0.0362
     15 H3          3.1947    7.8216   -1.9023 H         1 <0>         0.0856
     16 C8          3.1201    6.5512   -0.1314 C.3       1 <0>         0.0480
     17 H4          3.3866    6.9025    0.8655 H         1 <0>         0.0904
     18 C9          1.9253    5.5746   -0.0597 C.3       1 <0>         0.0880
     19 H5          1.3437    5.7498    0.8454 H         1 <0>         0.0988
     20 O2          1.1346    5.8724   -1.2310 O.3       1 <0>        -0.3300
     21 C10         2.4176    4.1267   -0.1033 C.3       1 <0>         0.1468
     22 O3          1.3018    3.2407    0.0070 O.3       1 <0>        -0.7567
     23 P1          1.4507    1.6376   -0.0030 P.3       1 <0>         2.1339
     24 O4          2.1794    1.2174   -1.2207 O.2       1 <0>        -1.1633
     25 O5          4.2410    5.9258   -0.7595 O.3       1 <0>        -0.5308
     26 O6          2.6088    8.9390   -0.2492 O.3       1 <0>        -0.5444
     27 N5         -0.8665   12.2063   -2.3702 N.pl3     1 <0>        -0.7477
     28 H6          1.3650    5.9582   -3.8628 H         1 <0>         0.2324
     29 H7          3.1042    3.9512    0.7249 H         1 <0>         0.0551
     30 H8          2.9328    3.9463   -1.0468 H         1 <0>         0.0565
     31 H9          5.0198    6.4946   -0.8309 H         1 <0>         0.3712
     32 H10         3.4937    9.2419   -0.0037 H         1 <0>         0.3810
     33 H11        -0.3256   12.9835   -2.6918 H         1 <0>         0.3672
     34 H12        -0.7513   12.2231   -1.4072 H         1 <0>         0.3936
     35 O7         -0.0110    0.9628    0.0073 O.3       1 <0>        -1.1793
     36 O8          2.2685    1.1664    1.3013 O.3       1 <0>        -1.2015
@<TRIPOS>BOND
     1    1   11 1
     2    1    2 2
     3    1   28 1
     4    2    3 1
     5    3   10 2
     6    3    4 1
     7    4    5 2
     8    4    6 am
     9    6    7 1
    10    6    8 1
    11    8    9 2
    12    8   27 1
    13    9   10 1
    14   10   11 1
    15   11   12 1
    16   12   13 1
    17   12   20 1
    18   12   14 1
    19   14   15 1
    20   14   16 1
    21   14   26 1
    22   16   17 1
    23   16   18 1
    24   16   25 1
    25   18   19 1
    26   18   20 1
    27   18   21 1
    28   21   22 1
    29   21   29 1
    30   21   30 1
    31   22   23 1
    32   23   24 2
    33   23   35 1
    34   23   36 1
    35   25   31 1
    36   26   32 1
    37   27   33 1
    38   27   34 1
@<TRIPOS>MOLECULE
ZINC03869963
   36    38     0     0     0
SMALL
USER_CHARGES
[5-(2-amino-6-oxo-3H-purin-9-yl)-3,4-dihydroxy-tetrahydrofuran-2-yl]methoxyphosphonic acid
@<TRIPOS>ATOM
      1 C1         -0.0164    1.3597    0.0095 C.2       1 <0>         0.2684
      2 N1          1.2047    1.8120    0.0003 N.2       1 <0>        -0.4412
      3 C2          2.0649    0.7674   -0.0135 C.2       1 <0>        -0.1140
      4 C3          1.3053   -0.3962   -0.0125 C.2       1 <0>         0.2620
      5 N2          0.0021   -0.0041    0.0020 N.pl3     1 <0>        -0.4212
      6 C4         -1.1676   -0.8861    0.0084 C.3       1 <0>         0.2980
      7 H1         -0.9648   -1.7798    0.5985 H         1 <0>         0.1173
      8 C5         -1.5580   -1.2722   -1.4355 C.3       1 <0>         0.0360
      9 H2         -1.1622   -2.2559   -1.6880 H         1 <0>         0.0835
     10 C6         -3.1044   -1.2973   -1.4105 C.3       1 <0>         0.0457
     11 H3         -3.4726   -2.2942   -1.6527 H         1 <0>         0.0845
     12 C7         -3.4628   -0.9270    0.0458 C.3       1 <0>         0.0863
     13 H4         -3.6143   -1.8270    0.6417 H         1 <0>         0.0964
     14 O1         -2.3198   -0.1894    0.5309 O.3       1 <0>        -0.3319
     15 C8         -4.7160   -0.0500    0.0794 C.3       1 <0>         0.1483
     16 O2         -5.0545    0.2455    1.4359 O.3       1 <0>        -0.7573
     17 P1         -6.3222    1.1490    1.8466 P.3       1 <0>         2.1346
     18 O3         -6.2396    2.4567    1.1583 O.2       1 <0>        -1.1635
     19 O4         -3.6400   -0.3328   -2.3187 O.3       1 <0>        -0.5195
     20 O5         -1.0886   -0.2896   -2.3608 O.3       1 <0>        -0.5300
     21 N3          1.9486   -1.6071   -0.0251 N.2       1 <0>        -0.5488
     22 H5          5.0568   -0.6912   -0.0496 H         1 <0>         0.4270
     23 C9          3.3058   -1.6676   -0.0383 C.2       1 <0>         0.5697
     24 N4          4.0619   -0.5909   -0.0397 N.am      1 <0>        -0.6180
     25 C10         3.5254    0.6393   -0.0281 C.2       1 <0>         0.5887
     26 O6          4.2383    1.6306   -0.0292 O.2       1 <0>        -0.5090
     27 N5          3.9099   -2.8963   -0.0506 N.pl3     1 <0>        -0.7487
     28 H6         -0.9070    1.9706    0.0213 H         1 <0>         0.2278
     29 H7         -4.5240    0.8789   -0.4578 H         1 <0>         0.0567
     30 H8         -5.5428   -0.5794   -0.3943 H         1 <0>         0.0533
     31 H9         -3.4447   -0.5165   -3.2478 H         1 <0>         0.3664
     32 H10        -1.3063   -0.4821   -3.2831 H         1 <0>         0.3755
     33 H11         4.4720   -2.9831   -0.8731 H         1 <0>         0.3668
     34 H12         3.3700   -3.7022   -0.0496 H         1 <0>         0.3922
     35 O7         -7.6790    0.3988    1.4126 O.3       1 <0>        -1.2021
     36 O8         -6.3228    1.3803    3.4399 O.3       1 <0>        -1.1799
@<TRIPOS>BOND
     1    1   28 1
     2    1    5 1
     3    1    2 2
     4    2    3 1
     5    3    4 2
     6    3   25 1
     7    4    5 1
     8    4   21 1
     9    5    6 1
    10    6    7 1
    11    6   14 1
    12    6    8 1
    13    8    9 1
    14    8   10 1
    15    8   20 1
    16   10   11 1
    17   10   12 1
    18   10   19 1
    19   12   13 1
    20   12   14 1
    21   12   15 1
    22   15   16 1
    23   15   29 1
    24   15   30 1
    25   16   17 1
    26   17   18 2
    27   17   35 1
    28   17   36 1
    29   19   31 1
    30   20   32 1
    31   21   23 2
    32   22   24 1
    33   23   24 1
    34   23   27 1
    35   24   25 am
    36   25   26 2
    37   27   34 1
    38   27   33 1
@<TRIPOS>MOLECULE
ZINC03869964
   36    38     0     0     0
SMALL
USER_CHARGES
[5-(2-amino-6-oxo-3H-purin-9-yl)-3,4-dihydroxy-tetrahydrofuran-2-yl]methoxyphosphonic acid
@<TRIPOS>ATOM
      1 C1         -3.0711    0.5590    1.4640 C.2       1 <0>         0.2309
      2 N1         -3.5946   -0.4828    2.0442 N.2       1 <0>        -0.4262
      3 C2         -2.6241   -1.1592    2.7014 C.2       1 <0>        -0.1182
      4 C3         -1.4309   -0.4771    2.4967 C.2       1 <0>         0.2634
      5 N2         -1.7311    0.5961    1.7155 N.pl3     1 <0>        -0.4507
      6 C4         -0.7879    1.6099    1.2371 C.3       1 <0>         0.2892
      7 H1         -0.0945    1.8887    2.0306 H         1 <0>         0.1461
      8 C5         -0.0146    1.0868    0.0064 C.3       1 <0>         0.0474
      9 H2         -0.0005   -0.0030   -0.0010 H         1 <0>         0.0785
     10 C6         -0.8145    1.6261   -1.2006 C.3       1 <0>         0.0454
     11 H3         -1.1959    0.8028   -1.8046 H         1 <0>         0.0841
     12 C7         -1.9797    2.4111   -0.5582 C.3       1 <0>         0.0626
     13 H4         -2.8646    1.7797   -0.4792 H         1 <0>         0.0944
     14 O1         -1.5010    2.7726    0.7556 O.3       1 <0>        -0.3077
     15 C8         -2.2926    3.6649   -1.3773 C.3       1 <0>         0.1494
     16 O2         -3.4447    4.3131   -0.8345 O.3       1 <0>        -0.7581
     17 P1         -4.0597    5.6680   -1.4494 P.3       1 <0>         2.1345
     18 O3         -4.3491    5.4702   -2.8873 O.2       1 <0>        -1.1659
     19 O4         -0.0017    2.4949   -1.9921 O.3       1 <0>        -0.5193
     20 O5          1.3176    1.6036   -0.0047 O.3       1 <0>        -0.5316
     21 N3         -0.2829   -0.9656    3.0656 N.2       1 <0>        -0.5469
     22 H5         -1.3861   -3.6006    4.5955 H         1 <0>         0.4281
     23 C9         -0.3119   -2.0975    3.8165 C.2       1 <0>         0.5744
     24 N4         -1.4196   -2.7732    4.0349 N.am      1 <0>        -0.6182
     25 C10        -2.5936   -2.3747    3.5208 C.2       1 <0>         0.5895
     26 O6         -3.6146   -3.0106    3.7314 O.2       1 <0>        -0.5047
     27 N5          0.8562   -2.5524    4.3671 N.pl3     1 <0>        -0.7488
     28 H6         -3.6146    1.2823    0.8743 H         1 <0>         0.2350
     29 H7         -1.4417    4.3451   -1.3400 H         1 <0>         0.0565
     30 H8         -2.4878    3.3836   -2.4121 H         1 <0>         0.0558
     31 H9          0.7785    2.0670   -2.3706 H         1 <0>         0.3664
     32 H10         1.8391    1.3304   -0.7718 H         1 <0>         0.3805
     33 H11         0.7674   -2.5784    5.3628 H         1 <0>         0.3690
     34 H12         1.6834   -2.0684    4.2182 H         1 <0>         0.3935
     35 O7         -5.4210    6.0397   -0.6742 O.3       1 <0>        -1.1790
     36 O8         -2.9987    6.8664   -1.2755 O.3       1 <0>        -1.1993
@<TRIPOS>BOND
     1    1   28 1
     2    1    5 1
     3    1    2 2
     4    2    3 1
     5    3    4 2
     6    3   25 1
     7    4    5 1
     8    4   21 1
     9    5    6 1
    10    6    7 1
    11    6   14 1
    12    6    8 1
    13    8    9 1
    14    8   10 1
    15    8   20 1
    16   10   11 1
    17   10   12 1
    18   10   19 1
    19   12   13 1
    20   12   14 1
    21   12   15 1
    22   15   16 1
    23   15   29 1
    24   15   30 1
    25   16   17 1
    26   17   18 2
    27   17   35 1
    28   17   36 1
    29   19   31 1
    30   20   32 1
    31   21   23 2
    32   22   24 1
    33   23   24 1
    34   23   27 1
    35   24   25 am
    36   25   26 2
    37   27   34 1
    38   27   33 1
@<TRIPOS>MOLECULE
ZINC03869965
   36    38     0     0     0
SMALL
USER_CHARGES
[5-(2-amino-6-oxo-3H-purin-9-yl)-3,4-dihydroxy-tetrahydrofuran-2-yl]methoxyphosphonic acid
@<TRIPOS>ATOM
      1 C1          5.5441   -0.8481    3.7712 C.2       1 <0>         0.2438
      2 N1          6.7319   -1.3564    3.9345 N.2       1 <0>        -0.4345
      3 C2          6.7211   -2.1717    5.0146 C.2       1 <0>        -0.1202
      4 C3          5.4350   -2.1474    5.5404 C.2       1 <0>         0.2751
      5 N2          4.7100   -1.3155    4.7438 N.pl3     1 <0>        -0.4333
      6 C4          3.2935   -0.9785    4.9054 C.3       1 <0>         0.2953
      7 H1          2.7435   -1.8501    5.2602 H         1 <0>         0.1373
      8 C5          3.1419    0.1809    5.9091 C.3       1 <0>         0.0418
      9 H2          2.4816   -0.1046    6.7280 H         1 <0>         0.0910
     10 C6          2.5102    1.3232    5.0768 C.3       1 <0>         0.0456
     11 H3          2.9617    2.2830    5.3278 H         1 <0>         0.0896
     12 C7          2.8685    0.9055    3.6278 C.3       1 <0>         0.0761
     13 H4          3.8880    1.2036    3.3834 H         1 <0>         0.0951
     14 O1          2.7507   -0.5333    3.6494 O.3       1 <0>        -0.3166
     15 C8          1.8781    1.5122    2.6317 C.3       1 <0>         0.1451
     16 O2          2.2685    1.1664    1.3013 O.3       1 <0>        -0.7560
     17 P1          1.4507    1.6376   -0.0030 P.3       1 <0>         2.1337
     18 O3          1.3138    3.1113    0.0062 O.2       1 <0>        -1.1660
     19 O4          1.0936    1.3645    5.2601 O.3       1 <0>        -0.5294
     20 O5          4.4193    0.5766    6.4129 O.3       1 <0>        -0.5407
     21 N3          5.1620   -2.8947    6.6572 N.2       1 <0>        -0.5451
     22 H5          8.0448   -4.2489    7.2536 H         1 <0>         0.4260
     23 C9          6.1352   -3.6383    7.2453 C.2       1 <0>         0.5679
     24 N4          7.3660   -3.6854    6.7828 N.am      1 <0>        -0.6185
     25 C10         7.7293   -2.9927    5.6921 C.2       1 <0>         0.5885
     26 O6          8.8749   -3.0455    5.2728 O.2       1 <0>        -0.5108
     27 N5          5.8232   -4.3666    8.3618 N.pl3     1 <0>        -0.7498
     28 H6          5.2628   -0.1618    2.9861 H         1 <0>         0.2243
     29 H7          1.8736    2.5969    2.7388 H         1 <0>         0.0537
     30 H8          0.8793    1.1234    2.8299 H         1 <0>         0.0565
     31 H9          0.8196    1.6209    6.1513 H         1 <0>         0.3724
     32 H10         4.3891    1.3407    7.0049 H         1 <0>         0.3810
     33 H11         5.9896   -5.3366    8.1844 H         1 <0>         0.3669
     34 H12         4.9214   -4.3451    8.7186 H         1 <0>         0.3915
     35 O7         -0.0110    0.9628    0.0073 O.3       1 <0>        -1.1990
     36 O8          2.2434    1.1806   -1.3277 O.3       1 <0>        -1.1783
@<TRIPOS>BOND
     1    1   28 1
     2    1    5 1
     3    1    2 2
     4    2    3 1
     5    3    4 2
     6    3   25 1
     7    4    5 1
     8    4   21 1
     9    5    6 1
    10    6    7 1
    11    6   14 1
    12    6    8 1
    13    8    9 1
    14    8   10 1
    15    8   20 1
    16   10   11 1
    17   10   12 1
    18   10   19 1
    19   12   13 1
    20   12   14 1
    21   12   15 1
    22   15   16 1
    23   15   29 1
    24   15   30 1
    25   16   17 1
    26   17   18 2
    27   17   35 1
    28   17   36 1
    29   19   31 1
    30   20   32 1
    31   21   23 2
    32   22   24 1
    33   23   24 1
    34   23   27 1
    35   24   25 am
    36   25   26 2
    37   27   34 1
    38   27   33 1
@<TRIPOS>MOLECULE
ZINC22448983
   66    69     0     0     0
SMALL
USER_CHARGES
4-[(2,4-dichloro-5-methoxy-phenyl)amino]-6-methoxy-7-[3-(4-methylpiperazin-1-yl)propoxy]quinoline-3-carbonitrile
@<TRIPOS>ATOM
      1 C1        -10.0137   -6.5102   -1.8158 C.3       1 <0>        -0.0453
      2 N1         -8.6540   -6.0169   -1.5593 N.4       1 <0>        -0.4030
      3 C2         -7.7903   -6.2205   -2.7307 C.3       1 <0>        -0.0001
      4 C3         -6.3670   -5.7678   -2.3965 C.3       1 <0>         0.0245
      5 N2         -6.3862   -4.3530   -1.9994 N.3       1 <0>        -0.5385
      6 C4         -7.2499   -4.1494   -0.8281 C.3       1 <0>         0.0179
      7 C5         -8.6733   -4.6021   -1.1623 C.3       1 <0>         0.0000
      8 C6         -5.0265   -3.8597   -1.7430 C.3       1 <0>         0.0567
      9 C7         -5.0583   -2.3389   -1.5783 C.3       1 <0>        -0.1184
     10 C8         -3.6421   -1.8251   -1.3112 C.3       1 <0>         0.0518
     11 O1         -3.6719   -0.4047   -1.1574 O.3       1 <0>        -0.2957
     12 C9         -2.4875    0.2141   -0.9129 C.ar      1 <0>         0.1552
     13 C10        -1.3345   -0.5326   -0.8253 C.ar      1 <0>        -0.1775
     14 C11        -0.1099    0.1042   -0.5728 C.ar      1 <0>         0.1880
     15 C12        -0.0839    1.5107   -0.4123 C.ar      1 <0>        -0.1309
     16 C13        -1.2740    2.2476   -0.5007 C.ar      1 <0>        -0.1492
     17 C14        -2.4527    1.6062   -0.7522 C.ar      1 <0>         0.1113
     18 O2         -3.6043    2.3237   -0.8425 O.3       1 <0>        -0.3022
     19 C15        -3.5023    3.7385   -0.6693 C.3       1 <0>         0.0181
     20 C16         1.1518    2.1498   -0.1579 C.ar      1 <0>         0.3245
     21 C17         2.2996    1.3468   -0.0768 C.ar      1 <0>        -0.1668
     22 C18         2.1804   -0.0418   -0.2488 C.ar      1 <0>         0.2178
     23 N3          1.0238   -0.6069   -0.4836 N.ar      1 <0>        -0.5049
     24 C19         3.5791    1.9370    0.1785 C.1       1 <0>         0.2512
     25 N4          4.5940    2.4052    0.3811 N.1       1 <0>        -0.4037
     26 N5          1.2264    3.5186    0.0048 N.pl3     1 <0>        -0.6798
     27 C20         2.4372    4.1835   -0.2122 C.ar      1 <0>         0.1811
     28 C21         3.1043    4.7773    0.8508 C.ar      1 <0>        -0.1911
     29 C22         4.3041    5.4350    0.6325 C.ar      1 <0>         0.1715
     30 C23         4.8372    5.4992   -0.6482 C.ar      1 <0>        -0.0467
     31 C24         4.1721    4.9075   -1.7063 C.ar      1 <0>        -0.0516
     32 C25         2.9774    4.2459   -1.4914 C.ar      1 <0>        -0.0699
     33 Cl1         2.1481    3.4984   -2.8208 Cl        1 <0>        -0.0422
     34 Cl2         6.3403    6.3238   -0.9213 Cl        1 <0>        -0.0317
     35 O3          4.9590    6.0176    1.6716 O.3       1 <0>        -0.2942
     36 C26         4.4145    5.8149    2.9772 C.3       1 <0>         0.0202
     37 H1         -9.9701   -7.5691   -2.1104 H         1 <0>         0.1247
     38 H2        -10.4701   -5.9227   -2.6260 H         1 <0>         0.1201
     39 H3        -10.6190   -6.4082   -0.9030 H         1 <0>         0.1247
     40 H4         -7.7832   -7.2870   -3.0001 H         1 <0>         0.1368
     41 H5         -8.1745   -5.6313   -3.5764 H         1 <0>         0.1352
     42 H6         -5.9734   -6.3765   -1.5691 H         1 <0>         0.0623
     43 H7         -5.7253   -5.8927   -3.2811 H         1 <0>         0.1248
     44 H8         -6.8657   -4.7386    0.0176 H         1 <0>         0.0625
     45 H9         -7.2570   -3.0829   -0.5587 H         1 <0>         0.1270
     46 H10        -9.0676   -3.9944   -1.9901 H         1 <0>         0.1353
     47 H11        -9.3157   -4.4781   -0.2780 H         1 <0>         0.1365
     48 H12        -4.6368   -4.3201   -0.8231 H         1 <0>         0.0524
     49 H13        -4.3751   -4.1233   -2.5893 H         1 <0>         0.0947
     50 H14        -5.4480   -1.8786   -2.4982 H         1 <0>         0.0902
     51 H15        -5.7097   -2.0753   -0.7320 H         1 <0>         0.0766
     52 H16        -3.2525   -2.2855   -0.3913 H         1 <0>         0.0692
     53 H17        -2.9907   -2.0887   -2.1575 H         1 <0>         0.0725
     54 H18        -1.3723   -1.6047   -0.9499 H         1 <0>         0.1520
     55 H19        -1.2569    3.3205   -0.3782 H         1 <0>         0.1400
     56 H20        -4.4995    4.1926   -0.7662 H         1 <0>         0.1079
     57 H21        -2.8337    4.1546   -1.4373 H         1 <0>         0.0600
     58 H22        -3.0952    3.9573    0.3289 H         1 <0>         0.0585
     59 H23         3.0649   -0.6582   -0.1860 H         1 <0>         0.1683
     60 H24         0.3333    4.0863    0.3052 H         1 <0>         0.4433
     61 H25         2.6888    4.7264    1.8464 H         1 <0>         0.1497
     62 H26         4.5888    4.9585   -2.7013 H         1 <0>         0.1559
     63 H27         5.0369    6.3367    3.7191 H         1 <0>         0.1117
     64 H28         4.3977    4.7388    3.2044 H         1 <0>         0.0607
     65 H29         3.3898    6.2132    3.0130 H         1 <0>         0.0594
     66 H30        -8.2365   -6.5985   -0.7241 H         1 <0>         0.4406
@<TRIPOS>BOND
     1    1    2 1
     2    1   37 1
     3    1   38 1
     4    1   39 1
     5    2    7 1
     6    2    3 1
     7    2   66 1
     8    3    4 1
     9    3   40 1
    10    3   41 1
    11    4    5 1
    12    4   42 1
    13    4   43 1
    14    5    6 1
    15    5    8 1
    16    6    7 1
    17    6   44 1
    18    6   45 1
    19    7   46 1
    20    7   47 1
    21    8    9 1
    22    8   48 1
    23    8   49 1
    24    9   10 1
    25    9   50 1
    26    9   51 1
    27   10   11 1
    28   10   52 1
    29   10   53 1
    30   11   12 1
    31   12   17 ar
    32   12   13 ar
    33   13   14 ar
    34   13   54 1
    35   14   23 ar
    36   14   15 ar
    37   15   16 ar
    38   15   20 ar
    39   16   17 ar
    40   16   55 1
    41   17   18 1
    42   18   19 1
    43   19   56 1
    44   19   57 1
    45   19   58 1
    46   20   21 ar
    47   20   26 1
    48   21   22 ar
    49   21   24 1
    50   22   23 ar
    51   22   59 1
    52   24   25 3
    53   26   27 1
    54   26   60 1
    55   27   32 ar
    56   27   28 ar
    57   28   29 ar
    58   28   61 1
    59   29   30 ar
    60   29   35 1
    61   30   31 ar
    62   30   34 1
    63   31   32 ar
    64   31   62 1
    65   32   33 1
    66   35   36 1
    67   36   63 1
    68   36   64 1
    69   36   65 1
@<TRIPOS>MOLECULE
ZINC22448983
   66    69     0     0     0
SMALL
USER_CHARGES
4-[(2,4-dichloro-5-methoxy-phenyl)amino]-6-methoxy-7-[3-(4-methylpiperazin-1-yl)propoxy]quinoline-3-carbonitrile
@<TRIPOS>ATOM
      1 C1        -10.0137   -6.5102   -1.8158 C.3       1 <0>         0.0169
      2 N1         -8.6540   -6.0169   -1.5593 N.3       1 <0>        -0.5441
      3 C2         -7.7903   -6.2205   -2.7307 C.3       1 <0>         0.0228
      4 C3         -6.3670   -5.7678   -2.3965 C.3       1 <0>         0.0009
      5 N2         -6.3862   -4.3530   -1.9994 N.4       1 <0>        -0.3998
      6 C4         -7.2499   -4.1494   -0.8281 C.3       1 <0>        -0.0049
      7 C5         -8.6733   -4.6021   -1.1623 C.3       1 <0>         0.0237
      8 C6         -5.0265   -3.8597   -1.7430 C.3       1 <0>        -0.0032
      9 C7         -5.0583   -2.3389   -1.5783 C.3       1 <0>        -0.1498
     10 C8         -3.6421   -1.8251   -1.3112 C.3       1 <0>         0.0546
     11 O1         -3.6719   -0.4047   -1.1574 O.3       1 <0>        -0.2954
     12 C9         -2.4875    0.2141   -0.9129 C.ar      1 <0>         0.1508
     13 C10        -1.3345   -0.5326   -0.8253 C.ar      1 <0>        -0.1739
     14 C11        -0.1099    0.1042   -0.5728 C.ar      1 <0>         0.1865
     15 C12        -0.0839    1.5107   -0.4123 C.ar      1 <0>        -0.1289
     16 C13        -1.2740    2.2476   -0.5007 C.ar      1 <0>        -0.1461
     17 C14        -2.4527    1.6062   -0.7522 C.ar      1 <0>         0.1109
     18 O2         -3.6043    2.3237   -0.8425 O.3       1 <0>        -0.3036
     19 C15        -3.5023    3.7385   -0.6693 C.3       1 <0>         0.0176
     20 C16         1.1518    2.1498   -0.1579 C.ar      1 <0>         0.3244
     21 C17         2.2996    1.3468   -0.0768 C.ar      1 <0>        -0.1637
     22 C18         2.1804   -0.0418   -0.2488 C.ar      1 <0>         0.2201
     23 N3          1.0238   -0.6069   -0.4836 N.ar      1 <0>        -0.5059
     24 C19         3.5791    1.9370    0.1785 C.1       1 <0>         0.2491
     25 N4          4.5940    2.4052    0.3811 N.1       1 <0>        -0.4000
     26 N5          1.2264    3.5186    0.0048 N.pl3     1 <0>        -0.6785
     27 C20         2.4372    4.1835   -0.2122 C.ar      1 <0>         0.1791
     28 C21         3.1043    4.7773    0.8508 C.ar      1 <0>        -0.1908
     29 C22         4.3041    5.4350    0.6325 C.ar      1 <0>         0.1720
     30 C23         4.8372    5.4992   -0.6482 C.ar      1 <0>        -0.0462
     31 C24         4.1721    4.9075   -1.7063 C.ar      1 <0>        -0.0515
     32 C25         2.9774    4.2459   -1.4914 C.ar      1 <0>        -0.0696
     33 Cl1         2.1481    3.4984   -2.8208 Cl        1 <0>        -0.0433
     34 Cl2         6.3403    6.3238   -0.9213 Cl        1 <0>        -0.0302
     35 O3          4.9590    6.0176    1.6716 O.3       1 <0>        -0.2936
     36 C26         4.4145    5.8149    2.9772 C.3       1 <0>         0.0200
     37 H1         -9.9701   -7.5691   -2.1104 H         1 <0>         0.0846
     38 H2        -10.4701   -5.9227   -2.6260 H         1 <0>         0.0401
     39 H3        -10.6190   -6.4082   -0.9030 H         1 <0>         0.0850
     40 H4         -7.7832   -7.2870   -3.0001 H         1 <0>         0.1245
     41 H5         -8.1745   -5.6313   -3.5764 H         1 <0>         0.0612
     42 H6         -5.9734   -6.3765   -1.5691 H         1 <0>         0.1366
     43 H7         -5.7253   -5.8927   -3.2811 H         1 <0>         0.1378
     44 H8         -6.8657   -4.7386    0.0176 H         1 <0>         0.1367
     45 H9         -7.2570   -3.0829   -0.5587 H         1 <0>         0.1381
     46 H10        -9.0676   -3.9944   -1.9901 H         1 <0>         0.0613
     47 H11        -9.3157   -4.4781   -0.2780 H         1 <0>         0.1241
     48 H12        -4.6368   -4.3201   -0.8231 H         1 <0>         0.1339
     49 H13        -4.3751   -4.1233   -2.5893 H         1 <0>         0.1372
     50 H14        -5.4480   -1.8786   -2.4982 H         1 <0>         0.1006
     51 H15        -5.7097   -2.0753   -0.7320 H         1 <0>         0.0999
     52 H16        -3.2525   -2.2855   -0.3913 H         1 <0>         0.0789
     53 H17        -2.9907   -2.0887   -2.1575 H         1 <0>         0.0790
     54 H18        -1.3723   -1.6047   -0.9499 H         1 <0>         0.1517
     55 H19        -1.2569    3.3205   -0.3782 H         1 <0>         0.1413
     56 H20        -4.4995    4.1926   -0.7662 H         1 <0>         0.1090
     57 H21        -2.8337    4.1546   -1.4373 H         1 <0>         0.0608
     58 H22        -3.0952    3.9573    0.3289 H         1 <0>         0.0597
     59 H23         3.0649   -0.6582   -0.1860 H         1 <0>         0.1696
     60 H24         0.3333    4.0863    0.3052 H         1 <0>         0.4436
     61 H25         2.6888    4.7264    1.8464 H         1 <0>         0.1501
     62 H26         4.5888    4.9585   -2.7013 H         1 <0>         0.1563
     63 H27         5.0369    6.3367    3.7191 H         1 <0>         0.1123
     64 H28         4.3977    4.7388    3.2044 H         1 <0>         0.0608
     65 H29         3.3898    6.2132    3.0130 H         1 <0>         0.0596
     66 H30        -6.8037   -3.7713   -2.8345 H         1 <0>         0.4393
@<TRIPOS>BOND
     1    1    2 1
     2    1   37 1
     3    1   38 1
     4    1   39 1
     5    2    7 1
     6    2    3 1
     7    3    4 1
     8    3   40 1
     9    3   41 1
    10    4    5 1
    11    4   42 1
    12    4   43 1
    13    5    6 1
    14    5    8 1
    15    5   66 1
    16    6    7 1
    17    6   44 1
    18    6   45 1
    19    7   46 1
    20    7   47 1
    21    8    9 1
    22    8   48 1
    23    8   49 1
    24    9   10 1
    25    9   50 1
    26    9   51 1
    27   10   11 1
    28   10   52 1
    29   10   53 1
    30   11   12 1
    31   12   17 ar
    32   12   13 ar
    33   13   14 ar
    34   13   54 1
    35   14   23 ar
    36   14   15 ar
    37   15   16 ar
    38   15   20 ar
    39   16   17 ar
    40   16   55 1
    41   17   18 1
    42   18   19 1
    43   19   56 1
    44   19   57 1
    45   19   58 1
    46   20   21 ar
    47   20   26 1
    48   21   22 ar
    49   21   24 1
    50   22   23 ar
    51   22   59 1
    52   24   25 3
    53   26   27 1
    54   26   60 1
    55   27   32 ar
    56   27   28 ar
    57   28   29 ar
    58   28   61 1
    59   29   30 ar
    60   29   35 1
    61   30   31 ar
    62   30   34 1
    63   31   32 ar
    64   31   62 1
    65   32   33 1
    66   35   36 1
    67   36   63 1
    68   36   64 1
    69   36   65 1
@<TRIPOS>MOLECULE
ZINC27439698
   59    62     0     0     0
SMALL
USER_CHARGES

@<TRIPOS>ATOM
      1 C1         -0.2063    1.0844    0.8125 C.2       1 <0>        -0.0780
      2 C2         -0.0916   -0.1284    0.2785 C.2       1 <0>        -0.2217
      3 C3          1.1892   -0.8472    0.3546 C.2       1 <0>         0.5464
      4 O1          2.1435   -0.3327    0.9059 O.2       1 <0>        -0.5301
      5 N1          1.3054   -2.0761   -0.1864 N.am      1 <0>        -0.6549
      6 C4          2.5517   -2.7129   -0.2160 C.ar      1 <0>         0.1200
      7 C5          3.7048   -1.9595   -0.1827 C.ar      1 <0>        -0.0579
      8 C6          4.9490   -2.5997   -0.2120 C.ar      1 <0>        -0.1974
      9 C7          5.0154   -4.0138   -0.2753 C.ar      1 <0>         0.2129
     10 C8          3.8313   -4.7603   -0.3083 C.ar      1 <0>        -0.1947
     11 C9          2.6164   -4.1137   -0.2734 C.ar      1 <0>         0.1622
     12 O2          1.4681   -4.8389   -0.3002 O.3       1 <0>        -0.3093
     13 C10         1.5999   -6.2606   -0.3586 C.3       1 <0>         0.0588
     14 C11         0.2106   -6.9010   -0.3813 C.3       1 <0>        -0.1156
     15 C12         0.3517   -8.4232   -0.4438 C.3       1 <0>         0.0578
     16 N2         -0.9822   -9.0382   -0.4657 N.3       1 <0>        -0.5360
     17 C13        -1.6880   -8.8108    0.8038 C.3       1 <0>         0.0125
     18 C14        -3.0921   -9.4148    0.7161 C.3       1 <0>         0.0626
     19 O3         -2.9885  -10.8047    0.3955 O.3       1 <0>        -0.3850
     20 C15        -2.3071  -11.0626   -0.8351 C.3       1 <0>         0.0628
     21 C16        -0.8951  -10.4753   -0.7631 C.3       1 <0>         0.0171
     22 N3          6.2221   -4.6015   -0.3018 N.ar      1 <0>        -0.5452
     23 C17         7.3156   -3.8777   -0.2694 C.ar      1 <0>         0.3493
     24 N4          7.3023   -2.5556   -0.2097 N.ar      1 <0>        -0.5859
     25 C18         6.1642   -1.8746   -0.1796 C.ar      1 <0>         0.4714
     26 N5          6.1650   -0.4957   -0.1182 N.pl3     1 <0>        -0.6328
     27 C19         7.3694    0.2084   -0.2227 C.ar      1 <0>         0.1581
     28 C20         7.5013    1.4536    0.3785 C.ar      1 <0>        -0.1169
     29 C21         8.6911    2.1472    0.2750 C.ar      1 <0>        -0.1176
     30 C22         9.7524    1.6027   -0.4280 C.ar      1 <0>         0.0901
     31 C23         9.6235    0.3609   -1.0292 C.ar      1 <0>        -0.0524
     32 C24         8.4363   -0.3392   -0.9225 C.ar      1 <0>        -0.0856
     33 Cl1        10.9555   -0.3188   -1.9109 Cl        1 <0>        -0.0424
     34 F1         10.9152    2.2833   -0.5284 F         1 <0>        -0.1264
     35 H1          0.6411    1.5413    1.3020 H         1 <0>         0.1166
     36 H2         -1.1456    1.6141    0.7527 H         1 <0>         0.1209
     37 H3         -0.9390   -0.5853   -0.2110 H         1 <0>         0.1323
     38 H4          0.5255   -2.5194   -0.5554 H         1 <0>         0.4201
     39 H5          3.6489   -0.8820   -0.1348 H         1 <0>         0.1596
     40 H6          3.8708   -5.8385   -0.3565 H         1 <0>         0.1517
     41 H7          2.1429   -6.5383   -1.2620 H         1 <0>         0.0720
     42 H8          2.1473   -6.6110    0.5165 H         1 <0>         0.0691
     43 H9         -0.3323   -6.6233    0.5221 H         1 <0>         0.0760
     44 H10        -0.3367   -6.5506   -1.2564 H         1 <0>         0.0860
     45 H11         0.8947   -8.7010   -1.3473 H         1 <0>         0.0821
     46 H12         0.8990   -8.7736    0.4312 H         1 <0>         0.0409
     47 H13        -1.1377   -9.2854    1.6162 H         1 <0>         0.0448
     48 H14        -1.7636   -7.7398    0.9914 H         1 <0>         0.0895
     49 H15        -3.5986   -9.2990    1.6743 H         1 <0>         0.0993
     50 H16        -3.6604   -8.9035   -0.0609 H         1 <0>         0.0609
     51 H17        -2.2459  -12.1385   -0.9988 H         1 <0>         0.1001
     52 H18        -2.8525  -10.5991   -1.6572 H         1 <0>         0.0612
     53 H19        -0.3918  -10.6192   -1.7193 H         1 <0>         0.0886
     54 H20        -0.3321  -10.9764    0.0243 H         1 <0>         0.0452
     55 H21         8.2696   -4.3834   -0.2921 H         1 <0>         0.1993
     56 H22         5.3306   -0.0149   -0.0027 H         1 <0>         0.4275
     57 H23         6.6738    1.8794    0.9265 H         1 <0>         0.1431
     58 H24         8.7936    3.1154    0.7424 H         1 <0>         0.1506
     59 H25         8.3373   -1.3092   -1.3869 H         1 <0>         0.1663
@<TRIPOS>BOND
     1    1    2 2
     2    1   35 1
     3    1   36 1
     4    2    3 1
     5    2   37 1
     6    3    4 2
     7    3    5 am
     8    5    6 1
     9    5   38 1
    10    6   11 ar
    11    6    7 ar
    12    7    8 ar
    13    7   39 1
    14    8   25 ar
    15    8    9 ar
    16    9   10 ar
    17    9   22 ar
    18   10   11 ar
    19   10   40 1
    20   11   12 1
    21   12   13 1
    22   13   14 1
    23   13   41 1
    24   13   42 1
    25   14   15 1
    26   14   43 1
    27   14   44 1
    28   15   16 1
    29   15   45 1
    30   15   46 1
    31   16   21 1
    32   16   17 1
    33   17   18 1
    34   17   47 1
    35   17   48 1
    36   18   19 1
    37   18   49 1
    38   18   50 1
    39   19   20 1
    40   20   21 1
    41   20   51 1
    42   20   52 1
    43   21   53 1
    44   21   54 1
    45   22   23 ar
    46   23   24 ar
    47   23   55 1
    48   24   25 ar
    49   25   26 1
    50   26   27 1
    51   26   56 1
    52   27   32 ar
    53   27   28 ar
    54   28   29 ar
    55   28   57 1
    56   29   30 ar
    57   29   58 1
    58   30   31 ar
    59   30   34 1
    60   31   32 ar
    61   31   33 1
    62   32   59 1
@<TRIPOS>MOLECULE
ZINC02047503
   45    48     0     0     0
SMALL
USER_CHARGES
6-(2,6-dichlorophenyl)-2-[[3-(hydroxymethyl)phenyl]amino]-8-methyl-pyrido[6,5-d]pyrimidin-7-one
@<TRIPOS>ATOM
      1 C1          0.0685    1.0902    0.1116 C.3       1 <0>         0.0699
      2 N1         -0.4262    1.5833    1.3993 N.am      1 <0>        -0.5062
      3 C2         -0.5386    2.9342    1.6113 C.ar      1 <0>         0.4668
      4 C3         -1.0182    3.4258    2.8448 C.ar      1 <0>        -0.2772
      5 C4         -1.3770    2.5290    3.8769 C.2       1 <0>         0.0314
      6 C5         -1.2566    1.1828    3.6580 C.2       1 <0>        -0.1643
      7 C6         -0.7609    0.7061    2.3650 C.2       1 <0>         0.5577
      8 O1         -0.6511   -0.4900    2.1618 O.2       1 <0>        -0.5027
      9 C7         -1.6241    0.2171    4.7198 C.ar      1 <0>        -0.0102
     10 C8         -0.6661   -0.2109    5.6397 C.ar      1 <0>        -0.0065
     11 C9         -1.0165   -1.1073    6.6304 C.ar      1 <0>        -0.1064
     12 C10        -2.3111   -1.5889    6.7051 C.ar      1 <0>        -0.0874
     13 C11        -3.2642   -1.1726    5.7932 C.ar      1 <0>        -0.1064
     14 C12        -2.9282   -0.2726    4.8008 C.ar      1 <0>        -0.0064
     15 Cl1        -4.1255    0.2477    3.6566 Cl        1 <0>        -0.0501
     16 Cl2         0.9610    0.3864    5.5428 Cl        1 <0>        -0.0503
     17 C13        -1.1231    4.8140    3.0188 C.ar      1 <0>         0.2643
     18 N2         -0.7739    5.6039    2.0208 N.ar      1 <0>        -0.5677
     19 C14        -0.3311    5.1056    0.8717 C.ar      1 <0>         0.6091
     20 N3         -0.2145    3.8035    0.6608 N.ar      1 <0>        -0.5948
     21 N4          0.0210    5.9779   -0.1404 N.pl3     1 <0>        -0.6255
     22 C15        -0.1997    7.3500    0.0111 C.ar      1 <0>         0.1535
     23 C16        -1.3058    7.8032    0.7190 C.ar      1 <0>        -0.1019
     24 C17        -1.5179    9.1592    0.8714 C.ar      1 <0>        -0.1022
     25 C18        -0.6364   10.0658    0.3112 C.ar      1 <0>        -0.1107
     26 C19         0.4624    9.6181   -0.3988 C.ar      1 <0>        -0.0740
     27 C20         0.6833    8.2631   -0.5504 C.ar      1 <0>        -0.1226
     28 C21         1.4197   10.6097   -1.0082 C.3       1 <0>         0.1166
     29 O2          0.9930   10.9310   -2.3336 O.3       1 <0>        -0.5676
     30 H1          0.0950    0.0006    0.1256 H         1 <0>         0.1008
     31 H2          1.0728    1.4758   -0.0636 H         1 <0>         0.0801
     32 H3         -0.5942    1.4272   -0.6855 H         1 <0>         0.0804
     33 H4         -1.7410    2.9000    4.8236 H         1 <0>         0.1507
     34 H5         -0.2771   -1.4360    7.3457 H         1 <0>         0.1438
     35 H6         -2.5787   -2.2934    7.4788 H         1 <0>         0.1454
     36 H7         -4.2732   -1.5525    5.8570 H         1 <0>         0.1438
     37 H8         -1.4817    5.2275    3.9498 H         1 <0>         0.1884
     38 H9          0.4212    5.6382   -0.9561 H         1 <0>         0.4268
     39 H10        -1.9968    7.0958    1.1532 H         1 <0>         0.1360
     40 H11        -2.3754    9.5121    1.4250 H         1 <0>         0.1294
     41 H12        -0.8068   11.1258    0.4283 H         1 <0>         0.1250
     42 H13         1.5416    7.9141   -1.1054 H         1 <0>         0.1259
     43 H14         1.4384   11.5159   -0.4028 H         1 <0>         0.0579
     44 H15         2.4189   10.1755   -1.0434 H         1 <0>         0.0551
     45 H16         1.5640   11.5657   -2.7877 H         1 <0>         0.3824
@<TRIPOS>BOND
     1    1    2 1
     2    1   30 1
     3    1   31 1
     4    1   32 1
     5    2    7 am
     6    2    3 1
     7    3   20 ar
     8    3    4 ar
     9    4    5 1
    10    4   17 ar
    11    5    6 2
    12    5   33 1
    13    6    7 1
    14    6    9 1
    15    7    8 2
    16    9   14 ar
    17    9   10 ar
    18   10   11 ar
    19   10   16 1
    20   11   12 ar
    21   11   34 1
    22   12   13 ar
    23   12   35 1
    24   13   14 ar
    25   13   36 1
    26   14   15 1
    27   17   18 ar
    28   17   37 1
    29   18   19 ar
    30   19   20 ar
    31   19   21 1
    32   21   22 1
    33   21   38 1
    34   22   27 ar
    35   22   23 ar
    36   23   24 ar
    37   23   39 1
    38   24   25 ar
    39   24   40 1
    40   25   26 ar
    41   25   41 1
    42   26   27 ar
    43   26   28 1
    44   27   42 1
    45   28   29 1
    46   28   43 1
    47   28   44 1
    48   29   45 1
@<TRIPOS>MOLECULE
ZINC34554182
   44    47     0     0     0
SMALL
USER_CHARGES

@<TRIPOS>ATOM
      1 C1          1.8111    0.7722    3.4630 C.ar      1 <0>        -0.0678
      2 C2          2.8666    1.2571    2.7152 C.ar      1 <0>        -0.1306
      3 C3          2.6317    1.8253    1.4701 C.ar      1 <0>         0.1844
      4 C4          1.3353    1.9047    0.9794 C.ar      1 <0>        -0.1813
      5 C5          0.2820    1.4178    1.7320 C.ar      1 <0>         0.1229
      6 C6          0.5208    0.8517    2.9737 C.ar      1 <0>        -0.1635
      7 F1         -0.9802    1.4946    1.2564 F         1 <0>        -0.1328
      8 N1          3.6996    2.3173    0.7115 N.am      1 <0>        -0.6756
      9 C7          4.9060    1.7203    0.7795 C.2       1 <0>         0.7065
     10 O1          5.0436    0.6994    1.4256 O.2       1 <0>        -0.5454
     11 N2          5.9599    2.2547    0.1313 N.am      1 <0>        -0.6833
     12 C8          7.1840    1.5797    0.1116 C.ar      1 <0>         0.1925
     13 C9          7.2096    0.1900    0.0968 C.ar      1 <0>        -0.1108
     14 C10         8.4148   -0.4782    0.0774 C.ar      1 <0>        -0.0626
     15 C11         9.6102    0.2419    0.0726 C.ar      1 <0>        -0.1016
     16 C12         9.5813    1.6370    0.0875 C.ar      1 <0>        -0.1074
     17 C13         8.3731    2.2997    0.1012 C.ar      1 <0>        -0.1421
     18 C14        10.9065   -0.4729    0.0522 C.ar      1 <0>         0.0925
     19 C15        11.1626   -1.4959    0.9462 C.ar      1 <0>        -0.1460
     20 C16        12.3771   -2.1759    0.9385 C.ar      1 <0>         0.0138
     21 C17        13.3731   -1.8830    0.0659 C.ar      1 <0>        -0.1618
     22 C18        13.2111   -0.8553   -0.8879 C.ar      1 <0>         0.2423
     23 C19        11.9399   -0.1163   -0.9170 C.ar      1 <0>        -0.2389
     24 C20        12.0492    0.8160   -1.9390 C.2       1 <0>         0.5278
     25 N3         13.2639    0.6699   -2.4965 N.pl3     1 <0>        -0.4399
     26 N4         13.9690   -0.3469   -1.8427 N.pl3     1 <0>        -0.4221
     27 H1         13.6042    1.1968   -3.2364 H         1 <0>         0.4688
     28 N5         11.0798    1.7328   -2.3176 N.pl3     1 <0>        -0.7908
     29 H2          1.9948    0.3263    4.4293 H         1 <0>         0.1402
     30 H3          3.8742    1.1946    3.0990 H         1 <0>         0.1424
     31 H4          1.1495    2.3464    0.0115 H         1 <0>         0.1397
     32 H5         -0.3025    0.4716    3.5602 H         1 <0>         0.1407
     33 H6          3.5717    3.0882    0.1368 H         1 <0>         0.4129
     34 H7          5.8691    3.1077   -0.3215 H         1 <0>         0.4142
     35 H8          6.2842   -0.3668    0.1008 H         1 <0>         0.1494
     36 H9          8.4341   -1.5580    0.0662 H         1 <0>         0.1396
     37 H10        10.5049    2.1969    0.0843 H         1 <0>         0.1325
     38 H11         8.3500    3.3795    0.1080 H         1 <0>         0.1392
     39 H12        10.4056   -1.7726    1.6651 H         1 <0>         0.1520
     40 H13        12.5325   -2.9680    1.6560 H         1 <0>         0.1563
     41 H14        14.2976   -2.4402    0.1014 H         1 <0>         0.1545
     42 H15        10.2298    1.7603   -1.8512 H         1 <0>         0.4417
     43 H16        11.2520    2.3466   -3.0487 H         1 <0>         0.4242
     44 H17        14.8674   -0.6391   -2.0628 H         1 <0>         0.4733
@<TRIPOS>BOND
     1    1    6 ar
     2    1    2 ar
     3    1   29 1
     4    2    3 ar
     5    2   30 1
     6    3    4 ar
     7    3    8 1
     8    4    5 ar
     9    4   31 1
    10    5    6 ar
    11    5    7 1
    12    6   32 1
    13    8    9 am
    14    8   33 1
    15    9   10 2
    16    9   11 am
    17   11   12 1
    18   11   34 1
    19   12   17 ar
    20   12   13 ar
    21   13   14 ar
    22   13   35 1
    23   14   15 ar
    24   14   36 1
    25   15   16 ar
    26   15   18 1
    27   16   17 ar
    28   16   37 1
    29   17   38 1
    30   18   23 ar
    31   18   19 ar
    32   19   20 ar
    33   19   39 1
    34   20   21 ar
    35   20   40 1
    36   21   22 ar
    37   21   41 1
    38   22   23 ar
    39   22   26 2
    40   23   24 2
    41   24   28 1
    42   24   25 1
    43   25   27 1
    44   25   26 1
    45   26   44 1
    46   28   42 1
    47   28   43 1
@<TRIPOS>MOLECULE
ZINC34554182
   43    46     0     0     0
SMALL
USER_CHARGES

@<TRIPOS>ATOM
      1 C1          1.8111    0.7722    3.4630 C.ar      1 <0>        -0.0681
      2 C2          2.8666    1.2571    2.7152 C.ar      1 <0>        -0.1307
      3 C3          2.6317    1.8253    1.4701 C.ar      1 <0>         0.1917
      4 C4          1.3353    1.9047    0.9794 C.ar      1 <0>        -0.1840
      5 C5          0.2820    1.4178    1.7320 C.ar      1 <0>         0.1204
      6 C6          0.5208    0.8517    2.9737 C.ar      1 <0>        -0.1678
      7 F1         -0.9802    1.4946    1.2564 F         1 <0>        -0.1355
      8 N1          3.6996    2.3173    0.7115 N.am      1 <0>        -0.6803
      9 C7          4.9060    1.7203    0.7795 C.2       1 <0>         0.7051
     10 O1          5.0436    0.6994    1.4256 O.2       1 <0>        -0.5471
     11 N2          5.9599    2.2547    0.1313 N.am      1 <0>        -0.6799
     12 C8          7.1840    1.5797    0.1116 C.ar      1 <0>         0.1639
     13 C9          7.2096    0.1900    0.0968 C.ar      1 <0>        -0.1121
     14 C10         8.4148   -0.4782    0.0774 C.ar      1 <0>        -0.0794
     15 C11         9.6102    0.2419    0.0726 C.ar      1 <0>        -0.0584
     16 C12         9.5813    1.6370    0.0875 C.ar      1 <0>        -0.1050
     17 C13         8.3731    2.2997    0.1012 C.ar      1 <0>        -0.1418
     18 C14        10.9065   -0.4729    0.0522 C.ar      1 <0>         0.0442
     19 C15        11.1626   -1.4959    0.9462 C.ar      1 <0>        -0.1601
     20 C16        12.3771   -2.1759    0.9385 C.ar      1 <0>        -0.0620
     21 C17        13.3731   -1.8830    0.0659 C.ar      1 <0>        -0.1162
     22 C18        13.2111   -0.8553   -0.8879 C.ar      1 <0>         0.1401
     23 C19        11.9399   -0.1163   -0.9170 C.ar      1 <0>        -0.2596
     24 C20        12.0492    0.8160   -1.9390 C.2       1 <0>         0.3988
     25 N3         13.2639    0.6699   -2.4965 N.pl3     1 <0>        -0.4664
     26 N4         13.9690   -0.3469   -1.8427 N.2       1 <0>        -0.3184
     27 N5         11.0798    1.7328   -2.3176 N.pl3     1 <0>        -0.8468
     28 H1          1.9948    0.3263    4.4293 H         1 <0>         0.1390
     29 H2          3.8742    1.1946    3.0990 H         1 <0>         0.1438
     30 H3          1.1495    2.3464    0.0115 H         1 <0>         0.1387
     31 H4         -0.3025    0.4716    3.5602 H         1 <0>         0.1383
     32 H5          3.5717    3.0882    0.1368 H         1 <0>         0.4113
     33 H6          5.8691    3.1077   -0.3215 H         1 <0>         0.4100
     34 H7          6.2842   -0.3668    0.1008 H         1 <0>         0.1405
     35 H8          8.4341   -1.5580    0.0662 H         1 <0>         0.1333
     36 H9         10.5049    2.1969    0.0843 H         1 <0>         0.1321
     37 H10         8.3500    3.3795    0.1080 H         1 <0>         0.1305
     38 H11        10.4056   -1.7726    1.6651 H         1 <0>         0.1242
     39 H12        12.5325   -2.9680    1.6560 H         1 <0>         0.1265
     40 H13        14.2976   -2.4402    0.1014 H         1 <0>         0.1271
     41 H14        10.2298    1.7603   -1.8512 H         1 <0>         0.4196
     42 H15        11.2520    2.3466   -3.0487 H         1 <0>         0.4016
     43 H16        13.6042    1.1968   -3.2364 H         1 <0>         0.4387
@<TRIPOS>BOND
     1    1    6 ar
     2    1    2 ar
     3    1   28 1
     4    2    3 ar
     5    2   29 1
     6    3    4 ar
     7    3    8 1
     8    4    5 ar
     9    4   30 1
    10    5    6 ar
    11    5    7 1
    12    6   31 1
    13    8    9 am
    14    8   32 1
    15    9   10 2
    16    9   11 am
    17   11   12 1
    18   11   33 1
    19   12   17 ar
    20   12   13 ar
    21   13   14 ar
    22   13   34 1
    23   14   15 ar
    24   14   35 1
    25   15   16 ar
    26   15   18 1
    27   16   17 ar
    28   16   36 1
    29   17   37 1
    30   18   23 ar
    31   18   19 ar
    32   19   20 ar
    33   19   38 1
    34   20   21 ar
    35   20   39 1
    36   21   22 ar
    37   21   40 1
    38   22   23 ar
    39   22   26 2
    40   23   24 2
    41   24   27 1
    42   24   25 1
    43   25   43 1
    44   25   26 1
    45   27   41 1
    46   27   42 1
@<TRIPOS>MOLECULE
ZINC35323259
   47    50     0     0     0
SMALL
USER_CHARGES

@<TRIPOS>ATOM
      1 C1         -1.7183    2.0600    0.6589 C.3       1 <0>        -0.1166
      2 C2         -1.9818    0.5826    0.5215 C.ar      1 <0>        -0.1091
      3 C3         -2.7220    0.1084   -0.5441 C.ar      1 <0>        -0.1017
      4 C4         -2.9642   -1.2469   -0.6709 C.ar      1 <0>        -0.1244
      5 C5         -2.4662   -2.1321    0.2678 C.ar      1 <0>        -0.1068
      6 C6         -1.7251   -1.6645    1.3351 C.ar      1 <0>        -0.1166
      7 C7         -1.4760   -0.3041    1.4627 C.ar      1 <0>         0.1482
      8 N1         -0.7210    0.1724    2.5402 N.am      1 <0>        -0.6729
      9 C8         -0.7824   -0.4504    3.7338 C.2       1 <0>         0.7043
     10 O1         -1.4277   -1.4740    3.8529 O.2       1 <0>        -0.5481
     11 N2         -0.1285    0.0613    4.7954 N.am      1 <0>        -0.6852
     12 C9         -0.1031   -0.6393    6.0049 C.ar      1 <0>         0.1946
     13 C10        -0.0765   -2.0291    6.0011 C.ar      1 <0>        -0.1107
     14 C11        -0.0514   -2.7225    7.1918 C.ar      1 <0>        -0.0625
     15 C12        -0.0527   -2.0280    8.4023 C.ar      1 <0>        -0.1028
     16 C13        -0.0795   -0.6327    8.4030 C.ar      1 <0>        -0.1073
     17 C14        -0.0988    0.0554    7.2090 C.ar      1 <0>        -0.1430
     18 C15        -0.0263   -2.7699    9.6831 C.ar      1 <0>         0.0934
     19 C16        -0.9115   -3.8056    9.9173 C.ar      1 <0>        -0.1465
     20 C17        -0.8974   -4.5118   11.1167 C.ar      1 <0>         0.0139
     21 C18        -0.0267   -4.2333   12.1185 C.ar      1 <0>        -0.1621
     22 C19         0.9180   -3.1941   11.9786 C.ar      1 <0>         0.2422
     23 C20         0.9399   -2.4270   10.7239 C.ar      1 <0>        -0.2390
     24 C21         1.9539   -1.4886   10.8532 C.2       1 <0>         0.5280
     25 N3          2.5129   -1.6560   12.0645 N.pl3     1 <0>        -0.4401
     26 N4          1.8690   -2.6942   12.7470 N.pl3     1 <0>        -0.4223
     27 H1          3.2484   -1.1302   12.4160 H         1 <0>         0.4687
     28 N5          2.3241   -0.5477    9.9040 N.pl3     1 <0>        -0.7907
     29 H2         -0.7968    2.3149    0.1355 H         1 <0>         0.0729
     30 H3         -2.5482    2.6188    0.2265 H         1 <0>         0.0747
     31 H4         -1.6193    2.3148    1.7141 H         1 <0>         0.0602
     32 H5         -3.1122    0.7972   -1.2788 H         1 <0>         0.1288
     33 H6         -3.5437   -1.6150   -1.5046 H         1 <0>         0.1265
     34 H7         -2.6574   -3.1902    0.1661 H         1 <0>         0.1274
     35 H8         -1.3368   -2.3563    2.0679 H         1 <0>         0.1421
     36 H9         -0.1534    0.9510    2.4281 H         1 <0>         0.4096
     37 H10         0.3244    0.9158    4.7203 H         1 <0>         0.4129
     38 H11        -0.0758   -2.5661    5.0640 H         1 <0>         0.1484
     39 H12        -0.0311   -3.8023    7.1883 H         1 <0>         0.1393
     40 H13        -0.0809   -0.0925    9.3382 H         1 <0>         0.1322
     41 H14        -0.1147    1.1353    7.2089 H         1 <0>         0.1387
     42 H15        -1.6285   -4.0718    9.1547 H         1 <0>         0.1520
     43 H16        -1.6081   -5.3131   11.2551 H         1 <0>         0.1562
     44 H17        -0.0567   -4.8110   13.0305 H         1 <0>         0.1543
     45 H18         1.8571   -0.5057    9.0548 H         1 <0>         0.4418
     46 H19         3.0501    0.0684   10.0892 H         1 <0>         0.4241
     47 H20         2.0920   -3.0040   13.6388 H         1 <0>         0.4732
@<TRIPOS>BOND
     1    1    2 1
     2    1   29 1
     3    1   30 1
     4    1   31 1
     5    2    7 ar
     6    2    3 ar
     7    3    4 ar
     8    3   32 1
     9    4    5 ar
    10    4   33 1
    11    5    6 ar
    12    5   34 1
    13    6    7 ar
    14    6   35 1
    15    7    8 1
    16    8    9 am
    17    8   36 1
    18    9   10 2
    19    9   11 am
    20   11   12 1
    21   11   37 1
    22   12   17 ar
    23   12   13 ar
    24   13   14 ar
    25   13   38 1
    26   14   15 ar
    27   14   39 1
    28   15   16 ar
    29   15   18 1
    30   16   17 ar
    31   16   40 1
    32   17   41 1
    33   18   23 ar
    34   18   19 ar
    35   19   20 ar
    36   19   42 1
    37   20   21 ar
    38   20   43 1
    39   21   22 ar
    40   21   44 1
    41   22   23 ar
    42   22   26 2
    43   23   24 2
    44   24   28 1
    45   24   25 1
    46   25   27 1
    47   25   26 1
    48   26   47 1
    49   28   45 1
    50   28   46 1
@<TRIPOS>MOLECULE
ZINC35323259
   46    49     0     0     0
SMALL
USER_CHARGES

@<TRIPOS>ATOM
      1 C1         -1.6717    1.8675    0.5794 C.3       1 <0>        -0.1155
      2 C2         -1.6448    0.3714    0.4009 C.ar      1 <0>        -0.1115
      3 C3         -2.1958   -0.2000   -0.7296 C.ar      1 <0>        -0.1034
      4 C4         -2.1715   -1.5726   -0.8942 C.ar      1 <0>        -0.1286
      5 C5         -1.5960   -2.3778    0.0718 C.ar      1 <0>        -0.1071
      6 C6         -1.0431   -1.8127    1.2040 C.ar      1 <0>        -0.1148
      7 C7         -1.0612   -0.4338    1.3698 C.ar      1 <0>         0.1553
      8 N1         -0.4970    0.1423    2.5135 N.am      1 <0>        -0.6782
      9 C8         -0.5679   -0.4996    3.6964 C.2       1 <0>         0.7035
     10 O1         -1.0481   -1.6151    3.7549 O.2       1 <0>        -0.5497
     11 N2         -0.1065    0.0949    4.8145 N.am      1 <0>        -0.6793
     12 C9         -0.0835   -0.6094    6.0222 C.ar      1 <0>         0.1705
     13 C10         0.0332   -1.9944    6.0154 C.ar      1 <0>        -0.1225
     14 C11         0.0558   -2.6912    7.2044 C.ar      1 <0>        -0.0762
     15 C12        -0.0382   -2.0051    8.4154 C.ar      1 <0>        -0.0723
     16 C13        -0.1547   -0.6149    8.4193 C.ar      1 <0>        -0.0893
     17 C14        -0.1715    0.0773    7.2275 C.ar      1 <0>        -0.1485
     18 C15        -0.0147   -2.7513    9.6948 C.ar      1 <0>         0.0388
     19 C16         1.0461   -3.5948    9.9938 C.ar      1 <0>        -0.1558
     20 C17         1.0688   -4.2935   11.1909 C.ar      1 <0>        -0.0589
     21 C18         0.0441   -4.1653   12.1021 C.ar      1 <0>        -0.1532
     22 C19        -1.0339   -3.3258   11.8291 C.ar      1 <0>         0.1541
     23 C20        -1.0655   -2.6066   10.6207 C.ar      1 <0>        -0.1856
     24 C21        -2.3006   -1.8253   10.6384 C.2       1 <0>         0.3653
     25 N3         -2.9131   -2.0770   11.7654 N.2       1 <0>        -0.3216
     26 N4         -2.1740   -2.9970   12.5160 N.pl3     1 <0>        -0.5094
     27 N5         -2.7464   -0.9639    9.6318 N.pl3     1 <0>        -0.8360
     28 H1         -0.7742    2.3021    0.1393 H         1 <0>         0.0715
     29 H2         -2.5532    2.2766    0.0857 H         1 <0>         0.0725
     30 H3         -1.7072    2.1060    1.6424 H         1 <0>         0.0617
     31 H4         -2.6463    0.4260   -1.4856 H         1 <0>         0.1264
     32 H5         -2.6033   -2.0169   -1.7788 H         1 <0>         0.1240
     33 H6         -1.5792   -3.4496   -0.0593 H         1 <0>         0.1260
     34 H7         -0.5941   -2.4420    1.9582 H         1 <0>         0.1414
     35 H8         -0.0550    1.0038    2.4549 H         1 <0>         0.4083
     36 H9          0.2095    1.0114    4.7814 H         1 <0>         0.4097
     37 H10         0.1059   -2.5251    5.0776 H         1 <0>         0.1474
     38 H11         0.1457   -3.7675    7.1985 H         1 <0>         0.1311
     39 H12        -0.2279   -0.0813    9.3554 H         1 <0>         0.1314
     40 H13        -0.2573    1.1539    7.2300 H         1 <0>         0.1304
     41 H14         1.8577   -3.7076    9.2902 H         1 <0>         0.1294
     42 H15         1.9001   -4.9467   11.4115 H         1 <0>         0.1326
     43 H16         0.0759   -4.7169   13.0301 H         1 <0>         0.1279
     44 H17        -2.2603   -0.9037    8.7945 H         1 <0>         0.4120
     45 H18        -3.5417   -0.4263    9.7705 H         1 <0>         0.4049
     46 H19        -2.4226   -3.3391   13.3890 H         1 <0>         0.4411
@<TRIPOS>BOND
     1    1    2 1
     2    1   28 1
     3    1   29 1
     4    1   30 1
     5    2    7 ar
     6    2    3 ar
     7    3    4 ar
     8    3   31 1
     9    4    5 ar
    10    4   32 1
    11    5    6 ar
    12    5   33 1
    13    6    7 ar
    14    6   34 1
    15    7    8 1
    16    8    9 am
    17    8   35 1
    18    9   10 2
    19    9   11 am
    20   11   12 1
    21   11   36 1
    22   12   17 ar
    23   12   13 ar
    24   13   14 ar
    25   13   37 1
    26   14   15 ar
    27   14   38 1
    28   15   16 ar
    29   15   18 1
    30   16   17 ar
    31   16   39 1
    32   17   40 1
    33   18   23 ar
    34   18   19 ar
    35   19   20 ar
    36   19   41 1
    37   20   21 ar
    38   20   42 1
    39   21   22 ar
    40   21   43 1
    41   22   23 ar
    42   22   26 1
    43   23   24 1
    44   24   27 1
    45   24   25 2
    46   25   26 1
    47   26   46 1
    48   27   44 1
    49   27   45 1
@<TRIPOS>MOLECULE
ZINC16052569
   50    53     0     0     0
SMALL
USER_CHARGES

@<TRIPOS>ATOM
      1 C1         -0.0184    1.5028    0.0103 C.3       1 <0>        -0.0807
      2 C2          0.0021   -0.0041    0.0020 C.2       1 <0>         0.1088
      3 C3          0.0083   -0.8581   -1.1820 C.ar      1 <0>        -0.1763
      4 C4         -0.0019   -0.6082   -2.5573 C.ar      1 <0>        -0.0083
      5 C5          0.0079   -1.6738   -3.4431 C.ar      1 <0>        -0.1061
      6 C6          0.0279   -2.9891   -2.9631 C.ar      1 <0>        -0.0534
      7 C7          0.0380   -3.2410   -1.6234 C.ar      1 <0>        -0.1371
      8 C8          0.0285   -2.1860   -0.7124 C.ar      1 <0>         0.1440
      9 N1          0.0337   -2.1193    0.6566 N.pl3     1 <0>        -0.5045
     10 H1          0.0468   -2.8812    1.2569 H         1 <0>         0.4444
     11 N2          0.0230   -0.7772    1.0497 N.2       1 <0>        -0.2435
     12 C9         -0.0034   -1.4202   -4.9053 C.ar      1 <0>        -0.0271
     13 C10         0.0004   -2.4846   -5.8096 C.ar      1 <0>        -0.1014
     14 C11        -0.0110   -2.1940   -7.1677 C.ar      1 <0>         0.0698
     15 C12        -0.0257   -0.8671   -7.5756 C.ar      1 <0>         0.0161
     16 N3         -0.0289    0.1132   -6.6940 N.ar      1 <0>        -0.4368
     17 C13        -0.0238   -0.1167   -5.3969 C.ar      1 <0>         0.0812
     18 O1         -0.0074   -3.1961   -8.0859 O.3       1 <0>        -0.3231
     19 C14        -0.0198   -2.8144   -9.4629 C.3       1 <0>         0.0274
     20 C15        -0.0136   -4.0682  -10.3397 C.3       1 <0>         0.0437
     21 H2          0.8359   -4.6958  -10.0703 H         1 <0>         0.1553
     22 C16         0.0989   -3.6615  -11.8104 C.3       1 <0>        -0.0972
     23 C17         0.2286   -4.8962  -12.6646 C.ar      1 <0>        -0.1303
     24 C18         1.4792   -5.4136  -12.9461 C.ar      1 <0>        -0.1030
     25 C19         1.5982   -6.5462  -13.7296 C.ar      1 <0>        -0.1053
     26 C20         0.4666   -7.1617  -14.2312 C.ar      1 <0>        -0.1014
     27 C21        -0.7840   -6.6448  -13.9490 C.ar      1 <0>        -0.1075
     28 C22        -0.9032   -5.5147  -13.1619 C.ar      1 <0>        -0.1401
     29 N4         -1.2605   -4.8167  -10.1327 N.4       1 <0>        -0.6365
     30 H3          1.0042    1.8801    0.0026 H         1 <0>         0.0878
     31 H4         -0.5455    1.8639   -0.8728 H         1 <0>         0.0842
     32 H5         -0.5286    1.8543    0.9071 H         1 <0>         0.0843
     33 H6         -0.0177    0.4067   -2.9264 H         1 <0>         0.1366
     34 H7          0.0350   -3.8127   -3.6617 H         1 <0>         0.1316
     35 H8          0.0531   -4.2604   -1.2670 H         1 <0>         0.1332
     36 H9          0.0123   -3.5071   -5.4619 H         1 <0>         0.1476
     37 H10        -0.0343   -0.6345   -8.6302 H         1 <0>         0.1565
     38 H11        -0.0314    0.7142   -4.7071 H         1 <0>         0.1670
     39 H12        -0.9167   -2.2306   -9.6700 H         1 <0>         0.0927
     40 H13         0.8631   -2.2138   -9.6814 H         1 <0>         0.1143
     41 H14        -0.7936   -3.1088  -12.1038 H         1 <0>         0.1038
     42 H15         0.9777   -3.0313  -11.9469 H         1 <0>         0.1255
     43 H16         2.3632   -4.9328  -12.5542 H         1 <0>         0.1308
     44 H17         2.5752   -6.9501  -13.9502 H         1 <0>         0.1335
     45 H18         0.5596   -8.0462  -14.8440 H         1 <0>         0.1330
     46 H19        -1.6681   -7.1255  -14.3411 H         1 <0>         0.1326
     47 H20        -1.8805   -5.1130  -12.9382 H         1 <0>         0.1228
     48 H21        -1.2564   -5.6436  -10.7110 H         1 <0>         0.4365
     49 H22        -1.3347   -5.0850   -9.1628 H         1 <0>         0.4422
     50 H23        -2.0469   -4.2358  -10.3821 H         1 <0>         0.4324
@<TRIPOS>BOND
     1    1    2 1
     2    1   30 1
     3    1   31 1
     4    1   32 1
     5    2   11 2
     6    2    3 1
     7    3    8 ar
     8    3    4 ar
     9    4    5 ar
    10    4   33 1
    11    5    6 ar
    12    5   12 1
    13    6    7 ar
    14    6   34 1
    15    7    8 ar
    16    7   35 1
    17    8    9 1
    18    9   10 1
    19    9   11 1
    20   12   17 ar
    21   12   13 ar
    22   13   14 ar
    23   13   36 1
    24   14   15 ar
    25   14   18 1
    26   15   16 ar
    27   15   37 1
    28   16   17 ar
    29   17   38 1
    30   18   19 1
    31   19   20 1
    32   19   39 1
    33   19   40 1
    34   20   21 1
    35   20   22 1
    36   20   29 1
    37   22   23 1
    38   22   41 1
    39   22   42 1
    40   23   28 ar
    41   23   24 ar
    42   24   25 ar
    43   24   43 1
    44   25   26 ar
    45   25   44 1
    46   26   27 ar
    47   26   45 1
    48   27   28 ar
    49   27   46 1
    50   28   47 1
    51   29   48 1
    52   29   49 1
    53   29   50 1
@<TRIPOS>MOLECULE
ZINC06718723
   66    70     0     0     0
SMALL
USER_CHARGES
N-[3-(2-methoxy-2-phenyl-acetyl)-3,6,7-triazabicyclo[3.3.0]octa-7,9-dien-8-yl]-4-(4-methylpiperazin-1-yl)-benzamide
@<TRIPOS>ATOM
      1 C1          1.1558   -2.3183    1.2595 C.3       1 <0>        -0.0410
      2 C2          0.9823   -1.8889   -1.1176 C.3       1 <0>         0.0017
      3 C3          0.2156   -1.0925   -2.1760 C.3       1 <0>         0.0172
      4 N1          0.3983    0.3450   -1.9314 N.pl3     1 <0>        -0.4879
      5 C4         -0.0890    0.7150   -0.5952 C.3       1 <0>         0.0240
      6 C5          0.6778   -0.0814    0.4632 C.3       1 <0>         0.0014
      7 C6         -0.2262    1.1016   -2.9168 C.ar      1 <0>         0.1171
      8 C7         -0.9021    0.4673   -3.9555 C.ar      1 <0>        -0.1703
      9 C8         -1.5254    1.2132   -4.9296 C.ar      1 <0>        -0.0557
     10 C9         -1.4706    2.6093   -4.8809 C.ar      1 <0>        -0.1394
     11 C10        -0.7865    3.2432   -3.8393 C.ar      1 <0>        -0.0271
     12 C11        -0.1695    2.4917   -2.8657 C.ar      1 <0>        -0.1357
     13 C12        -2.1335    3.4119   -5.9259 C.2       1 <0>         0.5511
     14 O1         -2.0854    4.6262   -5.8820 O.2       1 <0>        -0.4789
     15 N2         -2.7926    2.7993   -6.9293 N.am      1 <0>        -0.6348
     16 C13        -3.4223    3.5616   -7.9218 C.2       1 <0>         0.3339
     17 C14        -4.1411    3.0562   -9.0204 C.2       1 <0>        -0.2838
     18 C15        -4.5895    4.1057   -9.7400 C.2       1 <0>         0.0781
     19 N3         -4.1745    5.2373   -9.1268 N.pl3     1 <0>        -0.4408
     20 H1         -4.3540    6.1718   -9.4341 H         1 <0>         0.4547
     21 N4         -3.4495    4.8713   -7.9863 N.2       1 <0>        -0.2469
     22 C16        -5.3666    3.6009  -10.9294 C.3       1 <0>         0.1723
     23 N5         -5.3544    2.1345  -10.8740 N.am      1 <0>        -0.6108
     24 C17        -4.5861    1.7737   -9.6769 C.3       1 <0>         0.1946
     25 C18        -5.9338    1.2878  -11.7480 C.2       1 <0>         0.5509
     26 O2         -5.7715    0.0915  -11.6318 O.2       1 <0>        -0.4985
     27 C19        -6.7834    1.8276  -12.8695 C.3       1 <0>         0.1225
     28 H2         -7.5012    2.5436  -12.4694 H         1 <0>         0.0950
     29 C20        -5.9023    2.5122  -13.8825 C.ar      1 <0>        -0.1245
     30 C21        -5.1414    1.7597  -14.7575 C.ar      1 <0>        -0.0827
     31 C22        -4.3365    2.3877  -15.6895 C.ar      1 <0>        -0.1181
     32 C23        -4.2853    3.7682  -15.7402 C.ar      1 <0>        -0.1071
     33 C24        -5.0426    4.5207  -14.8620 C.ar      1 <0>        -0.1205
     34 C25        -5.8508    3.8927  -13.9329 C.ar      1 <0>        -0.1134
     35 O3         -7.4835    0.7514  -13.4972 O.3       1 <0>        -0.3511
     36 C26        -8.7453    1.1252  -14.0539 C.3       1 <0>         0.0270
     37 H3          2.2318   -2.1485    1.2201 H         1 <0>         0.1249
     38 H4          0.7771   -2.0242    2.2384 H         1 <0>         0.1237
     39 H5          0.9484   -3.3752    1.0921 H         1 <0>         0.1236
     40 H6          0.8246   -2.9552   -1.2798 H         1 <0>         0.1394
     41 H7          2.0461   -1.6632   -1.1925 H         1 <0>         0.1411
     42 H8          0.5953   -1.3440   -3.1663 H         1 <0>         0.1318
     43 H9         -0.8447   -1.3391   -2.1193 H         1 <0>         0.0745
     44 H10         0.0688    1.7813   -0.4330 H         1 <0>         0.1307
     45 H11        -1.1527    0.4893   -0.5207 H         1 <0>         0.0727
     46 H12         1.7380    0.1652    0.4065 H         1 <0>         0.1415
     47 H13         0.2983    0.1704    1.4535 H         1 <0>         0.1395
     48 H14        -0.9409   -0.6113   -3.9946 H         1 <0>         0.1361
     49 H15        -2.0533    0.7206   -5.7327 H         1 <0>         0.1339
     50 H16        -0.7428    4.3215   -3.7987 H         1 <0>         0.1475
     51 H17         0.3591    2.9807   -2.0608 H         1 <0>         0.1377
     52 H18        -2.8310    1.8307   -6.9643 H         1 <0>         0.4200
     53 H19        -4.8943    3.9403  -11.8513 H         1 <0>         0.1019
     54 H20        -6.3933    3.9643  -10.8842 H         1 <0>         0.0943
     55 H21        -3.7159    1.1817   -9.9601 H         1 <0>         0.0792
     56 H22        -5.2131    1.2048   -8.9904 H         1 <0>         0.0792
     57 H23        -5.1783    0.6812  -14.7152 H         1 <0>         0.1304
     58 H24        -3.7451    1.7999  -16.3759 H         1 <0>         0.1272
     59 H25        -3.6539    4.2589  -16.4662 H         1 <0>         0.1260
     60 H26        -5.0026    5.5992  -14.9016 H         1 <0>         0.1273
     61 H27        -6.4422    4.4805  -13.2465 H         1 <0>         0.1243
     62 H28        -9.3904    1.5117  -13.2649 H         1 <0>         0.0465
     63 H29        -8.5949    1.8955  -14.8103 H         1 <0>         0.0480
     64 H30        -9.2132    0.2534  -14.5113 H         1 <0>         0.0967
     65 N6          0.4679   -1.5242    0.2191 N.4       1 <0>        -0.4004
     66 H31        -0.5381   -1.7261    0.2561 H         1 <0>         0.4278
@<TRIPOS>BOND
     1    1   37 1
     2    1   38 1
     3    1   39 1
     4    1   65 1
     5    2    3 1
     6    2   40 1
     7    2   41 1
     8    2   65 1
     9    3    4 1
    10    3   42 1
    11    3   43 1
    12    4    5 1
    13    4    7 1
    14    5    6 1
    15    5   44 1
    16    5   45 1
    17    6   46 1
    18    6   47 1
    19    6   65 1
    20    7   12 ar
    21    7    8 ar
    22    8    9 ar
    23    8   48 1
    24    9   10 ar
    25    9   49 1
    26   10   11 ar
    27   10   13 1
    28   11   12 ar
    29   11   50 1
    30   12   51 1
    31   13   14 2
    32   13   15 am
    33   15   16 1
    34   15   52 1
    35   16   21 2
    36   16   17 1
    37   17   24 1
    38   17   18 2
    39   18   19 1
    40   18   22 1
    41   19   20 1
    42   19   21 1
    43   22   23 1
    44   22   53 1
    45   22   54 1
    46   23   24 1
    47   23   25 am
    48   24   55 1
    49   24   56 1
    50   25   26 2
    51   25   27 1
    52   27   28 1
    53   27   29 1
    54   27   35 1
    55   29   34 ar
    56   29   30 ar
    57   30   31 ar
    58   30   57 1
    59   31   32 ar
    60   31   58 1
    61   32   33 ar
    62   32   59 1
    63   33   34 ar
    64   33   60 1
    65   34   61 1
    66   35   36 1
    67   36   62 1
    68   36   63 1
    69   36   64 1
    70   65   66 1
@<TRIPOS>MOLECULE
ZINC05387628
   28    31     0     0     0
SMALL
USER_CHARGES

@<TRIPOS>ATOM
      1 C1         -0.0167    1.3790    0.0096 C.ar      1 <0>        -0.1062
      2 C2          1.1686    2.0920    0.0021 C.ar      1 <0>        -0.1212
      3 C3          2.3774    1.4260   -0.0130 C.ar      1 <0>        -0.0859
      4 C4          2.4023    0.0328   -0.0207 C.ar      1 <0>        -0.0282
      5 C5          1.2051   -0.6804   -0.0131 C.ar      1 <0>        -0.0880
      6 C6          0.0021   -0.0041    0.0020 C.ar      1 <0>        -0.1191
      7 C7          3.6985   -0.6887   -0.0375 C.2       1 <0>         0.1620
      8 C8          3.9676   -1.9172    0.6064 C.2       1 <0>        -0.0526
      9 C9          5.2862   -2.2350    0.3397 C.2       1 <0>         0.0466
     10 C10         5.5400   -3.5131    1.0187 C.ar      1 <0>        -0.1120
     11 C11         6.6507   -4.3465    1.1341 C.ar      1 <0>        -0.0589
     12 C12         6.5578   -5.5106    1.8655 C.ar      1 <0>        -0.1396
     13 C13         5.3649   -5.8527    2.4841 C.ar      1 <0>        -0.0732
     14 C14         4.2589   -5.0364    2.3774 C.ar      1 <0>        -0.1165
     15 C15         4.3318   -3.8579    1.6449 C.ar      1 <0>         0.1046
     16 O1          3.4293   -2.8904    1.3768 O.3       1 <0>        -0.1733
     17 N1          5.8008   -1.2376   -0.4374 N.pl3     1 <0>        -0.4440
     18 H1          6.7072   -1.1918   -0.7798 H         1 <0>         0.4495
     19 N2          4.7885   -0.2951   -0.6588 N.2       1 <0>        -0.2315
     20 H2         -0.9603    1.9042    0.0260 H         1 <0>         0.1266
     21 H3          1.1482    3.1718    0.0078 H         1 <0>         0.1287
     22 H4          3.3023    1.9837   -0.0192 H         1 <0>         0.1289
     23 H5          1.2186   -1.7603   -0.0194 H         1 <0>         0.1267
     24 H6         -0.9264   -0.5557    0.0079 H         1 <0>         0.1290
     25 H7          7.5801   -4.0814    0.6521 H         1 <0>         0.1298
     26 H8          7.4168   -6.1589    1.9569 H         1 <0>         0.1358
     27 H9          5.3014   -6.7675    3.0547 H         1 <0>         0.1415
     28 H10         3.3350   -5.3134    2.8633 H         1 <0>         0.1402
@<TRIPOS>BOND
     1    1    6 ar
     2    1    2 ar
     3    1   20 1
     4    2    3 ar
     5    2   21 1
     6    3    4 ar
     7    3   22 1
     8    4    5 ar
     9    4    7 1
    10    5    6 ar
    11    5   23 1
    12    6   24 1
    13    7   19 2
    14    7    8 1
    15    8   16 1
    16    8    9 2
    17    9   10 1
    18    9   17 1
    19   10   15 ar
    20   10   11 ar
    21   11   12 ar
    22   11   25 1
    23   12   13 ar
    24   12   26 1
    25   13   14 ar
    26   13   27 1
    27   14   15 ar
    28   14   28 1
    29   15   16 1
    30   17   18 1
    31   17   19 1
@<TRIPOS>MOLECULE
ZINC03966300
   50    52     0     0     0
SMALL
USER_CHARGES
3-[2-chloro-4-(6,7-dimethoxyquinazolin-4-yl)oxy-phenyl]-1-propyl-urea
@<TRIPOS>ATOM
      1 C1         -1.9322    4.3018    1.7532 C.3       1 <0>        -0.1506
      2 C2         -0.7747    3.5591    1.0827 C.3       1 <0>        -0.1365
      3 C3         -0.9855    2.0505    1.2260 C.3       1 <0>         0.1345
      4 N1          0.1227    1.3393    0.5840 N.am      1 <0>        -0.7389
      5 C4          0.1498   -0.0082    0.5855 C.2       1 <0>         0.7064
      6 O1         -0.7432   -0.6336    1.1240 O.2       1 <0>        -0.5684
      7 N2          1.1665   -0.6625   -0.0100 N.am      1 <0>        -0.6836
      8 C5          1.2442   -2.0597    0.0716 C.ar      1 <0>         0.1882
      9 C6          0.0831   -2.8207    0.0770 C.ar      1 <0>        -0.0952
     10 C7          0.1600   -4.1970    0.1574 C.ar      1 <0>        -0.0779
     11 C8          1.3975   -4.8202    0.2328 C.ar      1 <0>         0.0790
     12 C9          2.5586   -4.0612    0.2275 C.ar      1 <0>        -0.0836
     13 C10         2.4834   -2.6840    0.1413 C.ar      1 <0>        -0.0565
     14 Cl1         3.9364   -1.7341    0.1274 Cl        1 <0>        -0.0535
     15 O2          1.4720   -6.1754    0.3124 O.3       1 <0>        -0.2316
     16 C11         1.2385   -6.8915   -0.8116 C.ar      1 <0>         0.3977
     17 C12         1.4048   -8.2945   -0.8251 C.ar      1 <0>        -0.1530
     18 C13         1.8030   -9.0063    0.3144 C.ar      1 <0>        -0.1376
     19 C14         1.9421  -10.3631    0.2460 C.ar      1 <0>         0.1108
     20 C15         1.6855  -11.0507   -0.9490 C.ar      1 <0>         0.1699
     21 C16         1.2904  -10.3805   -2.0729 C.ar      1 <0>        -0.1875
     22 C17         1.1395   -8.9887   -2.0320 C.ar      1 <0>         0.1979
     23 N3          0.7537   -8.2859   -3.1077 N.ar      1 <0>        -0.5243
     24 C18         0.6210   -6.9829   -3.0370 C.ar      1 <0>         0.3380
     25 N4          0.8531   -6.2950   -1.9299 N.ar      1 <0>        -0.5745
     26 O3          1.8310  -12.4007   -0.9901 O.3       1 <0>        -0.2965
     27 C19         1.5548  -13.0455   -2.2351 C.3       1 <0>         0.0194
     28 O4          2.3335  -11.0552    1.3491 O.3       1 <0>        -0.2999
     29 C20         2.5799  -10.2987    2.5360 C.3       1 <0>         0.0213
     30 H1         -1.7820    5.3765    1.6511 H         1 <0>         0.0618
     31 H2         -2.8704    4.0190    1.2758 H         1 <0>         0.0591
     32 H3         -1.9688    4.0388    2.8104 H         1 <0>         0.0591
     33 H4          0.1635    3.8418    1.5601 H         1 <0>         0.0697
     34 H5         -0.7381    3.8220    0.0255 H         1 <0>         0.0697
     35 H6         -1.9238    1.7677    0.7486 H         1 <0>         0.0703
     36 H7         -1.0221    1.7875    2.2832 H         1 <0>         0.0704
     37 H8          0.8351    1.8382    0.1544 H         1 <0>         0.3995
     38 H9          1.8445   -0.1665   -0.4950 H         1 <0>         0.4108
     39 H10        -0.8803   -2.3362    0.0180 H         1 <0>         0.1597
     40 H11        -0.7434   -4.7887    0.1620 H         1 <0>         0.1381
     41 H12         3.5215   -4.5468    0.2858 H         1 <0>         0.1456
     42 H13         2.0028   -8.4851    1.2389 H         1 <0>         0.1540
     43 H14         1.0953  -10.9212   -2.9872 H         1 <0>         0.1584
     44 H15         0.3088   -6.4474   -3.9214 H         1 <0>         0.2011
     45 H16         0.5209  -12.8535   -2.5222 H         1 <0>         0.0626
     46 H17         2.2233  -12.6553   -3.0025 H         1 <0>         0.0626
     47 H18         1.7093  -14.1193   -2.1303 H         1 <0>         0.1079
     48 H19         1.6704   -9.7733    2.8274 H         1 <0>         0.0598
     49 H20         2.8842  -10.9706    3.3385 H         1 <0>         0.1066
     50 H21         3.3730   -9.5751    2.3476 H         1 <0>         0.0595
@<TRIPOS>BOND
     1    1    2 1
     2    1   30 1
     3    1   31 1
     4    1   32 1
     5    2    3 1
     6    2   33 1
     7    2   34 1
     8    3    4 1
     9    3   35 1
    10    3   36 1
    11    4    5 am
    12    4   37 1
    13    5    6 2
    14    5    7 am
    15    7    8 1
    16    7   38 1
    17    8   13 ar
    18    8    9 ar
    19    9   10 ar
    20    9   39 1
    21   10   11 ar
    22   10   40 1
    23   11   12 ar
    24   11   15 1
    25   12   13 ar
    26   12   41 1
    27   13   14 1
    28   15   16 1
    29   16   25 ar
    30   16   17 ar
    31   17   22 ar
    32   17   18 ar
    33   18   19 ar
    34   18   42 1
    35   19   20 ar
    36   19   28 1
    37   20   21 ar
    38   20   26 1
    39   21   22 ar
    40   21   43 1
    41   22   23 ar
    42   23   24 ar
    43   24   25 ar
    44   24   44 1
    45   26   27 1
    46   27   45 1
    47   27   46 1
    48   27   47 1
    49   28   29 1
    50   29   48 1
    51   29   49 1
    52   29   50 1
@<TRIPOS>MOLECULE
ZINC53214756
   71    77     0     0     0
SMALL
USER_CHARGES

@<TRIPOS>ATOM
      1 C1          0.5182    1.2656    0.0086 C.3       1 <0>        -0.1155
      2 C2          0.2506   -0.2166    0.0604 C.ar      1 <0>        -0.0497
      3 C3          0.2481   -0.9597   -1.1037 C.ar      1 <0>        -0.1186
      4 C4          0.0026   -2.3198   -1.0570 C.ar      1 <0>        -0.0884
      5 C5         -0.2415   -2.9401    0.1545 C.ar      1 <0>        -0.1186
      6 C6         -0.2408   -2.2025    1.3222 C.ar      1 <0>        -0.0496
      7 C7          0.0119   -0.8376    1.2794 C.ar      1 <0>         0.1132
      8 N1          0.0195   -0.0880    2.4621 N.am      1 <0>        -0.4628
      9 C8          1.1754    0.0671    3.1395 C.2       1 <0>         0.5876
     10 O1          2.2055   -0.4366    2.7329 O.2       1 <0>        -0.4766
     11 C9          1.1651    0.8564    4.3771 C.ar      1 <0>        -0.3314
     12 C10         2.3164    1.0650    5.1361 C.ar      1 <0>         0.2960
     13 N2          2.2205    1.7893    6.2384 N.ar      1 <0>        -0.5681
     14 C11         1.0592    2.3086    6.6198 C.ar      1 <0>         0.6153
     15 N3         -0.0593    2.1343    5.9278 N.ar      1 <0>        -0.5809
     16 C12        -0.0503    1.4225    4.8116 C.ar      1 <0>         0.4906
     17 N4         -1.1953    1.2203    4.0642 N.pl3     1 <0>        -0.4382
     18 C13        -1.1579    0.4842    2.9105 C.2       1 <0>         0.5183
     19 N5         -2.3621    0.4426    2.3823 N.2       1 <0>        -0.4645
     20 C14        -3.2306    1.1446    3.1528 C.ar      1 <0>         0.0828
     21 C15        -2.5030    1.6464    4.2441 C.ar      1 <0>         0.0493
     22 C16        -3.1402    2.4112    5.2088 C.ar      1 <0>        -0.0820
     23 C17        -4.4924    2.6647    5.1012 C.ar      1 <0>        -0.1037
     24 C18        -5.2191    2.1593    4.0338 C.ar      1 <0>        -0.1042
     25 C19        -4.5978    1.4166    3.0545 C.ar      1 <0>        -0.0679
     26 N6          1.0141    3.0568    7.7788 N.pl3     1 <0>        -0.6227
     27 C20         2.1976    3.3550    8.4664 C.ar      1 <0>         0.1197
     28 C21         3.3516    3.6665    7.7596 C.ar      1 <0>        -0.0547
     29 C22         4.5180    3.9609    8.4372 C.ar      1 <0>        -0.1652
     30 C23         4.5370    3.9455    9.8258 C.ar      1 <0>         0.1889
     31 C24         3.3829    3.6340   10.5327 C.ar      1 <0>        -0.1650
     32 C25         2.2152    3.3448    9.8549 C.ar      1 <0>        -0.0878
     33 N7          5.7192    4.2434   10.5127 N.pl3     1 <0>        -0.6448
     34 C26         5.7951    4.1201   11.9766 C.3       1 <0>         0.0998
     35 C27         7.0337    3.2905   12.3307 C.3       1 <0>        -0.0233
     36 N8          8.2199    3.8949   11.7112 N.4       1 <0>        -0.3839
     37 C28         8.1071    3.8319   10.2485 C.3       1 <0>        -0.0234
     38 C29         6.9233    4.6829    9.7908 C.3       1 <0>         0.0984
     39 C30         9.4200    3.1642   12.1398 C.3       1 <0>        -0.0472
     40 C31        -0.5079   -2.8791    2.6420 C.3       1 <0>        -0.1156
     41 H1          1.5892    1.4449    0.1025 H         1 <0>         0.0752
     42 H2          0.1648    1.6656   -0.9418 H         1 <0>         0.0779
     43 H3         -0.0059    1.7582    0.8276 H         1 <0>         0.0553
     44 H4          0.4377   -0.4780   -2.0516 H         1 <0>         0.1329
     45 H5          0.0011   -2.8987   -1.9688 H         1 <0>         0.1325
     46 H6         -0.4333   -4.0024    0.1877 H         1 <0>         0.1329
     47 H7          3.2634    0.6449    4.8311 H         1 <0>         0.1986
     48 H8         -2.5798    2.8074    6.0427 H         1 <0>         0.1350
     49 H9         -4.9880    3.2604    5.8535 H         1 <0>         0.1380
     50 H10        -6.2769    2.3646    3.9605 H         1 <0>         0.1394
     51 H11        -5.1692    1.0284    2.2243 H         1 <0>         0.1404
     52 H12         0.1630    3.3761    8.1171 H         1 <0>         0.4293
     53 H13         3.3369    3.6781    6.6797 H         1 <0>         0.1348
     54 H14         5.4156    4.2027    7.8875 H         1 <0>         0.1280
     55 H15         3.3977    3.6218   11.6125 H         1 <0>         0.1290
     56 H16         1.3165    3.1070   10.4046 H         1 <0>         0.1330
     57 H17         5.8776    5.1107   12.4239 H         1 <0>         0.0880
     58 H18         4.9008    3.6203   12.3489 H         1 <0>         0.1262
     59 H19         7.1599    3.2695   13.4132 H         1 <0>         0.1409
     60 H20         6.9082    2.2734   11.9595 H         1 <0>         0.1326
     61 H21         9.0242    4.2099    9.7966 H         1 <0>         0.1415
     62 H22         7.9491    2.7984    9.9403 H         1 <0>         0.1328
     63 H23         6.7746    4.5550    8.7185 H         1 <0>         0.1273
     64 H24         7.1217    5.7313   10.0135 H         1 <0>         0.0878
     65 H25         9.3399    2.1216   11.8321 H         1 <0>         0.1218
     66 H26        10.3013    3.6119   11.6806 H         1 <0>         0.1253
     67 H27         9.5093    3.2170   13.2249 H         1 <0>         0.1251
     68 H28         0.4336   -3.2206    3.0723 H         1 <0>         0.0751
     69 H29        -0.9835   -2.1730    3.3226 H         1 <0>         0.0555
     70 H30        -1.1669   -3.7331    2.4857 H         1 <0>         0.0778
     71 H31         8.2947    4.8587   12.0003 H         1 <0>         0.4247
@<TRIPOS>BOND
     1    1    2 1
     2    1   41 1
     3    1   42 1
     4    1   43 1
     5    2    7 ar
     6    2    3 ar
     7    3    4 ar
     8    3   44 1
     9    4    5 ar
    10    4   45 1
    11    5    6 ar
    12    5   46 1
    13    6    7 ar
    14    6   40 1
    15    7    8 1
    16    8   18 1
    17    8    9 am
    18    9   10 2
    19    9   11 1
    20   11   16 ar
    21   11   12 ar
    22   12   13 ar
    23   12   47 1
    24   13   14 ar
    25   14   15 ar
    26   14   26 1
    27   15   16 ar
    28   16   17 1
    29   17   21 1
    30   17   18 1
    31   18   19 2
    32   19   20 1
    33   20   25 ar
    34   20   21 ar
    35   21   22 ar
    36   22   23 ar
    37   22   48 1
    38   23   24 ar
    39   23   49 1
    40   24   25 ar
    41   24   50 1
    42   25   51 1
    43   26   27 1
    44   26   52 1
    45   27   32 ar
    46   27   28 ar
    47   28   29 ar
    48   28   53 1
    49   29   30 ar
    50   29   54 1
    51   30   31 ar
    52   30   33 1
    53   31   32 ar
    54   31   55 1
    55   32   56 1
    56   33   38 1
    57   33   34 1
    58   34   35 1
    59   34   57 1
    60   34   58 1
    61   35   36 1
    62   35   59 1
    63   35   60 1
    64   36   37 1
    65   36   39 1
    66   36   71 1
    67   37   38 1
    68   37   61 1
    69   37   62 1
    70   38   63 1
    71   38   64 1
    72   39   65 1
    73   39   66 1
    74   39   67 1
    75   40   68 1
    76   40   69 1
    77   40   70 1
@<TRIPOS>MOLECULE
ZINC53214756
   72    78     0     0     0
SMALL
USER_CHARGES

@<TRIPOS>ATOM
      1 C1          0.4332    1.8459   -0.0966 C.3       1 <0>        -0.1154
      2 C2          0.2320    0.3535   -0.1552 C.ar      1 <0>        -0.0494
      3 C3          0.2374   -0.2975   -1.3733 C.ar      1 <0>        -0.1170
      4 C4          0.0529   -1.6668   -1.4279 C.ar      1 <0>        -0.0843
      5 C5         -0.1376   -2.3888   -0.2640 C.ar      1 <0>        -0.1169
      6 C6         -0.1441   -1.7437    0.9572 C.ar      1 <0>        -0.0493
      7 C7          0.0466   -0.3694    1.0159 C.ar      1 <0>         0.1062
      8 N1          0.0458    0.2869    2.2529 N.am      1 <0>        -0.4581
      9 C8          1.2077    0.4423    2.9199 C.2       1 <0>         0.5837
     10 O1          2.2504    0.0192    2.4575 O.2       1 <0>        -0.4684
     11 C9          1.1882    1.1328    4.2153 C.ar      1 <0>        -0.3093
     12 C10         2.3447    1.3349    4.9680 C.ar      1 <0>         0.2949
     13 N2          2.2398    1.9671    6.1250 N.ar      1 <0>        -0.5762
     14 C11         1.0649    2.4016    6.5657 C.ar      1 <0>         0.6033
     15 N3         -0.0588    2.2303    5.8818 N.ar      1 <0>        -0.5679
     16 C12        -0.0417    1.6073    4.7137 C.ar      1 <0>         0.4949
     17 N4         -1.1920    1.4109    3.9729 N.pl3     1 <0>        -0.4383
     18 C13        -1.1461    0.7687    2.7648 C.2       1 <0>         0.5148
     19 N5         -2.3580    0.7132    2.2558 N.2       1 <0>        -0.4542
     20 C14        -3.2403    1.3137    3.0934 C.ar      1 <0>         0.0841
     21 C15        -2.5132    1.7616    4.2083 C.ar      1 <0>         0.0453
     22 C16        -3.1633    2.4198    5.2406 C.ar      1 <0>        -0.0844
     23 C17        -4.5274    2.6186    5.1767 C.ar      1 <0>        -0.0994
     24 C18        -5.2533    2.1637    4.0862 C.ar      1 <0>        -0.1007
     25 C19        -4.6199    1.5297    3.0403 C.ar      1 <0>        -0.0629
     26 N6          1.0109    3.0553    7.7807 N.pl3     1 <0>        -0.6267
     27 C20         2.1918    3.3530    8.4676 C.ar      1 <0>         0.2440
     28 C21         3.3467    3.6671    7.7627 C.ar      1 <0>        -0.0966
     29 C22         4.5113    3.9611    8.4442 C.ar      1 <0>        -0.0517
     30 C23         4.5287    3.9425    9.8268 C.ar      1 <0>        -0.1063
     31 C24         3.3807    3.6297   10.5316 C.ar      1 <0>        -0.0594
     32 C25         2.2112    3.3408    9.8564 C.ar      1 <0>        -0.1283
     33 N7          5.7094    4.2401   10.5136 N.4       1 <0>        -0.3154
     34 C26         6.1000    3.0885   11.3378 C.3       1 <0>        -0.0320
     35 C27         7.3923    3.4142   12.0894 C.3       1 <0>        -0.0299
     36 N8          7.1755    4.5831   12.9524 N.4       1 <0>        -0.3958
     37 C28         6.7848    5.7346   12.1282 C.3       1 <0>        -0.0299
     38 C29         5.4926    5.4089   11.3766 C.3       1 <0>        -0.0317
     39 C30         8.4162    4.8958   13.6741 C.3       1 <0>        -0.0515
     40 C31        -0.3524   -2.5311    2.2252 C.3       1 <0>        -0.1155
     41 H1          1.4971    2.0659   -0.0081 H         1 <0>         0.0749
     42 H2          0.0425    2.3012   -1.0067 H         1 <0>         0.0799
     43 H3         -0.0945    2.2500    0.7673 H         1 <0>         0.0533
     44 H4          0.3856    0.2636   -2.2841 H         1 <0>         0.1349
     45 H5          0.0572   -2.1735   -2.3817 H         1 <0>         0.1350
     46 H6         -0.2818   -3.4581   -0.3099 H         1 <0>         0.1349
     47 H7          3.3029    0.9834    4.6148 H         1 <0>         0.2058
     48 H8         -2.6037    2.7758    6.0929 H         1 <0>         0.1328
     49 H9         -5.0331    3.1315    5.9815 H         1 <0>         0.1400
     50 H10        -6.3205    2.3246    4.0480 H         1 <0>         0.1431
     51 H11        -5.1908    1.1813    2.1923 H         1 <0>         0.1441
     52 H12         0.1537    3.3081    8.1578 H         1 <0>         0.4399
     53 H13         3.3340    3.6811    6.6828 H         1 <0>         0.1649
     54 H14         5.4096    4.2054    7.8967 H         1 <0>         0.1526
     55 H15         3.3978    3.6153   11.6114 H         1 <0>         0.1443
     56 H16         1.3138    3.1009   10.4075 H         1 <0>         0.1574
     57 H17         5.3084    2.8693   12.0543 H         1 <0>         0.1525
     58 H18         6.2609    2.2213   10.6974 H         1 <0>         0.1780
     59 H19         7.6821    2.5598   12.7010 H         1 <0>         0.1778
     60 H20         8.1839    3.6335   11.3729 H         1 <0>         0.1555
     61 H21         6.6240    6.6019   12.7686 H         1 <0>         0.1777
     62 H22         7.5765    5.9538   11.4118 H         1 <0>         0.1554
     63 H23         5.2028    6.2633   10.7651 H         1 <0>         0.1776
     64 H24         4.7010    5.1897   12.0931 H         1 <0>         0.1526
     65 H25         9.2078    5.1150   12.9576 H         1 <0>         0.1316
     66 H26         8.2553    5.7631   14.3145 H         1 <0>         0.1380
     67 H27         8.7060    4.0414   14.2856 H         1 <0>         0.1380
     68 H28         0.6124   -2.8612    2.6104 H         1 <0>         0.0749
     69 H29        -0.8438   -1.9018    2.9671 H         1 <0>         0.0535
     70 H30        -0.9763   -3.3998    2.0150 H         1 <0>         0.0799
     71 H31         6.4426    4.3801   13.6157 H         1 <0>         0.4359
     72 H32         6.4422    4.4430    9.8504 H         1 <0>         0.4352
@<TRIPOS>BOND
     1    1    2 1
     2    1   41 1
     3    1   42 1
     4    1   43 1
     5    2    7 ar
     6    2    3 ar
     7    3    4 ar
     8    3   44 1
     9    4    5 ar
    10    4   45 1
    11    5    6 ar
    12    5   46 1
    13    6    7 ar
    14    6   40 1
    15    7    8 1
    16    8   18 1
    17    8    9 am
    18    9   10 2
    19    9   11 1
    20   11   16 ar
    21   11   12 ar
    22   12   13 ar
    23   12   47 1
    24   13   14 ar
    25   14   15 ar
    26   14   26 1
    27   15   16 ar
    28   16   17 1
    29   17   21 1
    30   17   18 1
    31   18   19 2
    32   19   20 1
    33   20   25 ar
    34   20   21 ar
    35   21   22 ar
    36   22   23 ar
    37   22   48 1
    38   23   24 ar
    39   23   49 1
    40   24   25 ar
    41   24   50 1
    42   25   51 1
    43   26   27 1
    44   26   52 1
    45   27   32 ar
    46   27   28 ar
    47   28   29 ar
    48   28   53 1
    49   29   30 ar
    50   29   54 1
    51   30   31 ar
    52   30   33 1
    53   31   32 ar
    54   31   55 1
    55   32   56 1
    56   33   38 1
    57   33   34 1
    58   33   72 1
    59   34   35 1
    60   34   57 1
    61   34   58 1
    62   35   36 1
    63   35   59 1
    64   35   60 1
    65   36   37 1
    66   36   39 1
    67   36   71 1
    68   37   38 1
    69   37   61 1
    70   37   62 1
    71   38   63 1
    72   38   64 1
    73   39   65 1
    74   39   66 1
    75   39   67 1
    76   40   68 1
    77   40   69 1
    78   40   70 1
@<TRIPOS>MOLECULE
ZINC43129461
   71    74     0     0     0
SMALL
USER_CHARGES

@<TRIPOS>ATOM
      1 C1          0.1412    1.0958    0.0245 C.3       1 <0>        -0.1877
      2 C2          0.0343   -0.4072    0.2899 C.3       1 <0>        -0.0130
      3 N1         -1.3805   -0.7840    0.4090 N.4       1 <0>        -0.3814
      4 C3         -1.4799   -2.1981    0.7943 C.3       1 <0>        -0.0136
      5 C4         -0.8912   -2.3880    2.1937 C.3       1 <0>        -0.1480
      6 C5         -0.9947   -3.8608    2.5950 C.3       1 <0>         0.0597
      7 O1         -0.4449   -4.0381    3.9021 O.3       1 <0>        -0.3038
      8 C6         -0.4591   -5.2969    4.4113 C.ar      1 <0>         0.1781
      9 C7         -0.9923   -6.3430    3.6529 C.ar      1 <0>        -0.2017
     10 C8         -1.0190   -7.6149    4.1393 C.ar      1 <0>        -0.0296
     11 C9         -0.5067   -7.8812    5.4148 C.ar      1 <0>        -0.2176
     12 C10         0.0360   -6.8274    6.1915 C.ar      1 <0>         0.2265
     13 C11         0.0576   -5.5295    5.6681 C.ar      1 <0>        -0.1532
     14 N2          0.5211   -7.1085    7.4106 N.ar      1 <0>        -0.5472
     15 C12         0.4917   -8.3369    7.8711 C.ar      1 <0>         0.3522
     16 N3         -0.0047   -9.3517    7.1826 N.ar      1 <0>        -0.5832
     17 C13        -0.5099   -9.1841    5.9669 C.ar      1 <0>         0.4869
     18 N4         -1.0246  -10.2512    5.2605 N.pl3     1 <0>        -0.6010
     19 C14        -1.0183  -11.5330    5.8248 C.2       1 <0>         0.3061
     20 C15        -0.5270  -11.8723    7.0959 C.2       1 <0>        -0.2334
     21 C16        -0.7020  -13.2023    7.2669 C.2       1 <0>         0.0995
     22 N5         -1.2813  -13.6907    6.1499 N.pl3     1 <0>        -0.4600
     23 H1         -1.5240  -14.6165    5.9920 H         1 <0>         0.4395
     24 N6         -1.4756  -12.6260    5.2606 N.2       1 <0>        -0.3132
     25 C17        -0.3179  -13.9980    8.4876 C.3       1 <0>        -0.0736
     26 C18        -1.4253  -13.9203    9.5069 C.2       1 <0>         0.5124
     27 O2         -2.4277  -13.2816    9.2656 O.2       1 <0>        -0.4954
     28 N7         -1.3017  -14.5605   10.6864 N.am      1 <0>        -0.6738
     29 C19        -2.2814  -14.4046   11.6731 C.ar      1 <0>         0.1731
     30 C20        -1.9205  -14.3798   13.0142 C.ar      1 <0>        -0.1549
     31 C21        -2.8887  -14.2254   13.9867 C.ar      1 <0>        -0.0711
     32 C22        -4.2176  -14.0957   13.6276 C.ar      1 <0>        -0.1683
     33 C23        -4.5819  -14.1198   12.2917 C.ar      1 <0>         0.1190
     34 C24        -3.6151  -14.2686   11.3132 C.ar      1 <0>        -0.1590
     35 F1         -5.8812  -13.9933   11.9436 F         1 <0>        -0.1348
     36 C25        -2.0520   -0.5798   -0.8814 C.3       1 <0>        -0.0107
     37 C26        -3.5536   -0.8245   -0.7194 C.3       1 <0>         0.0927
     38 O3         -4.1052    0.1612    0.1558 O.3       1 <0>        -0.7578
     39 P1         -5.6390    0.1400    0.6447 P.3       1 <0>         2.1017
     40 O4         -6.5846    0.1017   -0.6038 O.2       1 <0>        -1.1721
     41 O5         -5.8881   -1.1299    1.5277 O.3       1 <0>        -1.1714
     42 O6         -5.9368    1.4276    1.4860 O.3       1 <0>        -1.1488
     43 H2          1.1901    1.3923    0.0315 H         1 <0>         0.0965
     44 H3         -0.2947    1.3249   -0.9479 H         1 <0>         0.0817
     45 H4         -0.3956    1.6409    0.8008 H         1 <0>         0.0844
     46 H5          0.4880   -0.9552   -0.5360 H         1 <0>         0.1221
     47 H6          0.5544   -0.6504    1.2165 H         1 <0>         0.1246
     48 H7         -2.5268   -2.5014    0.7963 H         1 <0>         0.1454
     49 H8         -0.9260   -2.8087    0.0813 H         1 <0>         0.1270
     50 H9          0.1557   -2.0846    2.1918 H         1 <0>         0.0937
     51 H10        -1.4451   -1.7773    2.9068 H         1 <0>         0.1060
     52 H11        -2.0417   -4.1641    2.5970 H         1 <0>         0.0850
     53 H12        -0.4409   -4.4714    1.8820 H         1 <0>         0.0737
     54 H13        -1.3884   -6.1401    2.6689 H         1 <0>         0.1410
     55 H14        -1.4340   -8.4146    3.5438 H         1 <0>         0.1329
     56 H15         0.4717   -4.7162    6.2456 H         1 <0>         0.1504
     57 H16         0.8909   -8.5281    8.8563 H         1 <0>         0.1983
     58 H17        -1.3909  -10.1139    4.3729 H         1 <0>         0.4265
     59 H18        -0.0875  -11.1918    7.8102 H         1 <0>         0.1855
     60 H19        -0.1551  -15.0386    8.2067 H         1 <0>         0.1119
     61 H20         0.5980  -13.5893    8.9144 H         1 <0>         0.1297
     62 H21        -0.5335  -15.1293   10.8513 H         1 <0>         0.4154
     63 H22        -0.8830  -14.4817   13.2963 H         1 <0>         0.1340
     64 H23        -2.6076  -14.2062   15.0293 H         1 <0>         0.1384
     65 H24        -4.9729  -13.9757   14.3902 H         1 <0>         0.1374
     66 H25        -3.8982  -14.2834   10.2710 H         1 <0>         0.1503
     67 H26        -1.8850    0.4427   -1.2201 H         1 <0>         0.1337
     68 H27        -1.6475   -1.2764   -1.6158 H         1 <0>         0.1254
     69 H28        -4.0395   -0.7589   -1.6929 H         1 <0>         0.0845
     70 H29        -3.7166   -1.8165   -0.2981 H         1 <0>         0.0571
     71 H30        -1.8229   -0.2118    1.1126 H         1 <0>         0.4394
@<TRIPOS>BOND
     1    1    2 1
     2    1   43 1
     3    1   44 1
     4    1   45 1
     5    2    3 1
     6    2   46 1
     7    2   47 1
     8    3    4 1
     9    3   36 1
    10    3   71 1
    11    4    5 1
    12    4   48 1
    13    4   49 1
    14    5    6 1
    15    5   50 1
    16    5   51 1
    17    6    7 1
    18    6   52 1
    19    6   53 1
    20    7    8 1
    21    8   13 ar
    22    8    9 ar
    23    9   10 ar
    24    9   54 1
    25   10   11 ar
    26   10   55 1
    27   11   17 ar
    28   11   12 ar
    29   12   13 ar
    30   12   14 ar
    31   13   56 1
    32   14   15 ar
    33   15   16 ar
    34   15   57 1
    35   16   17 ar
    36   17   18 1
    37   18   19 1
    38   18   58 1
    39   19   24 2
    40   19   20 1
    41   20   21 2
    42   20   59 1
    43   21   22 1
    44   21   25 1
    45   22   23 1
    46   22   24 1
    47   25   26 1
    48   25   60 1
    49   25   61 1
    50   26   27 2
    51   26   28 am
    52   28   29 1
    53   28   62 1
    54   29   34 ar
    55   29   30 ar
    56   30   31 ar
    57   30   63 1
    58   31   32 ar
    59   31   64 1
    60   32   33 ar
    61   32   65 1
    62   33   34 ar
    63   33   35 1
    64   34   66 1
    65   36   37 1
    66   36   67 1
    67   36   68 1
    68   37   38 1
    69   37   69 1
    70   37   70 1
    71   38   39 1
    72   39   40 2
    73   39   41 1
    74   39   42 1
@<TRIPOS>MOLECULE
ZINC43129461
   73    76     0     0     0
SMALL
USER_CHARGES

@<TRIPOS>ATOM
      1 C1          0.1409    1.0918    0.0251 C.3       1 <0>        -0.1892
      2 C2          0.0339   -0.4112    0.2906 C.3       1 <0>        -0.0152
      3 N1         -1.3809   -0.7879    0.4099 N.4       1 <0>        -0.3842
      4 C3         -1.4803   -2.2020    0.7953 C.3       1 <0>        -0.0158
      5 C4         -0.8914   -2.3919    2.1946 C.3       1 <0>        -0.1503
      6 C5         -0.9949   -3.8647    2.5959 C.3       1 <0>         0.0579
      7 O1         -0.4450   -4.0420    3.9029 O.3       1 <0>        -0.2993
      8 C6         -0.4592   -5.3008    4.4121 C.ar      1 <0>         0.1817
      9 C7         -0.9925   -6.3469    3.6538 C.ar      1 <0>        -0.1818
     10 C8         -1.0193   -7.6187    4.1402 C.ar      1 <0>        -0.0436
     11 C9         -0.5068   -7.8851    5.4157 C.ar      1 <0>        -0.1976
     12 C10         0.0362   -6.8313    6.1923 C.ar      1 <0>         0.2239
     13 C11         0.0578   -5.5334    5.6688 C.ar      1 <0>        -0.1405
     14 N2          0.5214   -7.1125    7.4113 N.ar      1 <0>        -0.5107
     15 C12         0.4920   -8.3409    7.8718 C.ar      1 <0>         0.3510
     16 N3         -0.0046   -9.3556    7.1834 N.ar      1 <0>        -0.5709
     17 C13        -0.5099   -9.1879    5.9677 C.ar      1 <0>         0.4598
     18 N4         -1.0249  -10.2553    5.2612 N.pl3     1 <0>        -0.6021
     19 C14        -1.0187  -11.5304    5.8226 C.2       1 <0>         0.4560
     20 C15        -0.5390  -11.8669    7.0517 C.2       1 <0>        -0.2320
     21 C16        -0.7243  -13.2413    7.2224 C.2       1 <0>         0.2582
     22 N5         -1.2916  -13.7195    6.1448 N.pl3     1 <0>        -0.3700
     23 N6         -1.4952  -12.6642    5.2465 N.pl3     1 <0>        -0.4476
     24 C17        -0.3360  -14.0381    8.4412 C.3       1 <0>        -0.1008
     25 C18        -1.4386  -13.9586    9.4655 C.2       1 <0>         0.5174
     26 O2         -2.4410  -13.3180    9.2291 O.2       1 <0>        -0.5061
     27 N7         -1.3107  -14.5994   10.6443 N.am      1 <0>        -0.6579
     28 C19        -2.2856  -14.4419   11.6355 C.ar      1 <0>         0.1577
     29 C20        -1.9185  -14.4182   12.9750 C.ar      1 <0>        -0.1459
     30 C21        -2.8820  -14.2623   13.9520 C.ar      1 <0>        -0.0677
     31 C22        -4.2123  -14.1302   13.5990 C.ar      1 <0>        -0.1573
     32 C23        -4.5828  -14.1533   12.2647 C.ar      1 <0>         0.1189
     33 C24        -3.6207  -14.3035   11.2818 C.ar      1 <0>        -0.1569
     34 F1         -5.8834  -14.0244   11.9227 F         1 <0>        -0.1323
     35 C25        -2.0526   -0.5836   -0.8804 C.3       1 <0>        -0.0130
     36 C26        -3.5541   -0.8283   -0.7182 C.3       1 <0>         0.1008
     37 O3         -4.1055    0.1575    0.1571 O.3       1 <0>        -0.7650
     38 P1         -5.6393    0.1364    0.6462 P.3       1 <0>         2.2015
     39 O4         -6.5720    0.0987   -0.5849 O.2       1 <0>        -1.0927
     40 O5         -5.8849   -1.1160    1.5170 O.3       1 <0>        -1.0945
     41 O6         -5.9451    1.4596    1.5109 O.3       1 <0>        -0.8978
     42 H1          1.1898    1.3882    0.0319 H         1 <0>         0.1035
     43 H2         -0.2951    1.3210   -0.9472 H         1 <0>         0.0827
     44 H3         -0.3958    1.6370    0.8015 H         1 <0>         0.0823
     45 H4          0.4874   -0.9592   -0.5353 H         1 <0>         0.1283
     46 H5          0.5541   -0.6544    1.2171 H         1 <0>         0.1288
     47 H6         -2.5272   -2.5053    0.7974 H         1 <0>         0.1420
     48 H7         -0.9266   -2.8127    0.0821 H         1 <0>         0.1333
     49 H8          0.1555   -2.0886    2.1924 H         1 <0>         0.0995
     50 H9         -1.4451   -1.7812    2.9077 H         1 <0>         0.1051
     51 H10        -2.0419   -4.1679    2.5981 H         1 <0>         0.0848
     52 H11        -0.4412   -4.4754    1.8828 H         1 <0>         0.0778
     53 H12        -1.3888   -6.1439    2.6698 H         1 <0>         0.1468
     54 H13        -1.4344   -8.4184    3.5448 H         1 <0>         0.1339
     55 H14         0.4720   -4.7201    6.2463 H         1 <0>         0.1595
     56 H15         0.8913   -8.5321    8.8569 H         1 <0>         0.2128
     57 H16        -1.3914  -10.1180    4.3736 H         1 <0>         0.4383
     58 H17        -0.0939  -11.1915    7.7674 H         1 <0>         0.2299
     59 H18        -0.1764  -15.0788    8.1593 H         1 <0>         0.1396
     60 H19         0.5826  -13.6311    8.8639 H         1 <0>         0.1633
     61 H20        -0.5428  -15.1696   10.8056 H         1 <0>         0.4210
     62 H21        -0.8799  -14.5220   13.2523 H         1 <0>         0.1376
     63 H22        -2.5961  -14.2439   14.9933 H         1 <0>         0.1439
     64 H23        -4.9639  -14.0091   14.3651 H         1 <0>         0.1423
     65 H24        -3.9087  -14.3175   10.2410 H         1 <0>         0.1477
     66 H25        -1.8856    0.4389   -1.2191 H         1 <0>         0.1423
     67 H26        -1.6482   -1.2803   -1.6148 H         1 <0>         0.1408
     68 H27        -4.0402   -0.7626   -1.6916 H         1 <0>         0.1052
     69 H28        -3.7172   -1.8203   -0.2969 H         1 <0>         0.0749
     70 H29        -6.8531    1.5139    1.8391 H         1 <0>         0.4246
     71 H30        -1.8231   -0.2157    1.1136 H         1 <0>         0.4343
     72 H31        -1.9019  -12.7316    4.3685 H         1 <0>         0.4711
     73 H32        -1.5334  -14.6468    5.9949 H         1 <0>         0.4758
@<TRIPOS>BOND
     1    1    2 1
     2    1   42 1
     3    1   43 1
     4    1   44 1
     5    2    3 1
     6    2   45 1
     7    2   46 1
     8    3    4 1
     9    3   35 1
    10    3   71 1
    11    4    5 1
    12    4   47 1
    13    4   48 1
    14    5    6 1
    15    5   49 1
    16    5   50 1
    17    6    7 1
    18    6   51 1
    19    6   52 1
    20    7    8 1
    21    8   13 ar
    22    8    9 ar
    23    9   10 ar
    24    9   53 1
    25   10   11 ar
    26   10   54 1
    27   11   17 ar
    28   11   12 ar
    29   12   13 ar
    30   12   14 ar
    31   13   55 1
    32   14   15 ar
    33   15   16 ar
    34   15   56 1
    35   16   17 ar
    36   17   18 1
    37   18   19 1
    38   18   57 1
    39   19   20 2
    40   19   23 1
    41   20   58 1
    42   20   21 1
    43   21   24 1
    44   21   22 2
    45   22   23 1
    46   22   73 1
    47   23   72 1
    48   24   25 1
    49   24   59 1
    50   24   60 1
    51   25   26 2
    52   25   27 am
    53   27   28 1
    54   27   61 1
    55   28   33 ar
    56   28   29 ar
    57   29   30 ar
    58   29   62 1
    59   30   31 ar
    60   30   63 1
    61   31   32 ar
    62   31   64 1
    63   32   33 ar
    64   32   34 1
    65   33   65 1
    66   35   36 1
    67   35   66 1
    68   35   67 1
    69   36   37 1
    70   36   68 1
    71   36   69 1
    72   37   38 1
    73   38   39 2
    74   38   40 1
    75   38   41 1
    76   41   70 1
@<TRIPOS>MOLECULE
ZINC21288966
   49    52     0     0     0
SMALL
USER_CHARGES
2-(2-chlorophenyl)-5,7-dihydroxy-8-[(3S,4R)-3-hydroxy-1-methyl-4-piperidyl]chromen-4-one
@<TRIPOS>ATOM
      1 C1          6.0895   -0.0238    5.9621 C.3       1 <0>        -0.0460
      2 N1          6.1756    1.0472    4.9603 N.4       1 <0>        -0.3934
      3 C2          5.9739    0.5180    3.6055 C.3       1 <0>        -0.0028
      4 C3          6.2126    1.6289    2.5802 C.3       1 <0>        -0.1464
      5 C4          5.2418    2.7821    2.8491 C.3       1 <0>        -0.0180
      6 H1          4.2050    2.4431    2.7074 H         1 <0>         0.1039
      7 C5          5.4391    3.2830    4.2825 C.3       1 <0>         0.1015
      8 H2          4.7709    4.1271    4.5084 H         1 <0>         0.0941
      9 C6          5.2218    2.1236    5.2574 C.3       1 <0>        -0.0361
     10 O1          6.7669    3.7898    4.4323 O.3       1 <0>        -0.5639
     11 C7          5.5132    3.9050    1.8814 C.ar      1 <0>        -0.2158
     12 C8          6.8017    4.3949    1.7322 C.ar      1 <0>         0.2946
     13 C9          7.0678    5.4304    0.8434 C.ar      1 <0>        -0.3049
     14 C10         6.0448    5.9841    0.0956 C.ar      1 <0>         0.3111
     15 C11         4.7411    5.4942    0.2412 C.ar      1 <0>        -0.3649
     16 C12         4.4748    4.4470    1.1407 C.ar      1 <0>         0.2362
     17 O2          3.2147    3.9814    1.2730 O.3       1 <0>        -0.2171
     18 C13         2.1871    4.4838    0.5705 C.2       1 <0>         0.1982
     19 C14         2.3394    5.4926   -0.3277 C.2       1 <0>        -0.2780
     20 C15         3.6225    6.0546   -0.5353 C.2       1 <0>         0.4382
     21 O3          3.7953    6.9641   -1.3304 O.2       1 <0>        -0.4786
     22 C16         0.8407    3.9147    0.7769 C.ar      1 <0>        -0.0680
     23 C17         0.6478    2.5322    0.7263 C.ar      1 <0>        -0.0708
     24 C18        -0.6124    2.0073    0.9205 C.ar      1 <0>        -0.1159
     25 C19        -1.6867    2.8467    1.1599 C.ar      1 <0>        -0.0780
     26 C20        -1.5036    4.2164    1.2169 C.ar      1 <0>        -0.1066
     27 C21        -0.2472    4.7566    1.0243 C.ar      1 <0>        -0.0057
     28 Cl1        -0.0199    6.4765    1.0889 Cl        1 <0>        -0.0424
     29 O4          6.3024    6.9947   -0.7728 O.3       1 <0>        -0.4999
     30 O5          7.8133    3.8585    2.4614 O.3       1 <0>        -0.4665
     31 H3          6.8128   -0.8151    5.7159 H         1 <0>         0.1242
     32 H4          5.0728   -0.4438    5.9634 H         1 <0>         0.1169
     33 H5          6.3184    0.3856    6.9571 H         1 <0>         0.1225
     34 H6          6.6809   -0.3050    3.4243 H         1 <0>         0.1308
     35 H7          4.9438    0.1448    3.5072 H         1 <0>         0.1211
     36 H8          7.2477    1.9910    2.6662 H         1 <0>         0.1216
     37 H9          6.0450    1.2349    1.5669 H         1 <0>         0.1057
     38 H10         4.1951    1.7434    5.1512 H         1 <0>         0.1298
     39 H11         5.3771    2.4772    6.2874 H         1 <0>         0.1312
     40 H12         7.0946    4.1958    5.4007 H         1 <0>         0.4106
     41 H13         8.0758    5.8030    0.7365 H         1 <0>         0.1471
     42 H14         1.4871    5.8659   -0.8759 H         1 <0>         0.1670
     43 H15         1.4839    1.8757    0.5352 H         1 <0>         0.1384
     44 H16        -0.7625    0.9385    0.8812 H         1 <0>         0.1407
     45 H17        -2.6721    2.4298    1.3071 H         1 <0>         0.1438
     46 H18        -2.3456    4.8651    1.4082 H         1 <0>         0.1476
     47 H19         5.4855    7.4321   -1.3656 H         1 <0>         0.4556
     48 H20         8.8375    4.2431    2.3473 H         1 <0>         0.4397
     49 H21         7.1882    1.4744    5.0059 H         1 <0>         0.4481
@<TRIPOS>BOND
     1    1    2 1
     2    1   31 1
     3    1   32 1
     4    1   33 1
     5    2    9 1
     6    2    3 1
     7    2   49 1
     8    3    4 1
     9    3   34 1
    10    3   35 1
    11    4    5 1
    12    4   36 1
    13    4   37 1
    14    5    6 1
    15    5    7 1
    16    5   11 1
    17    7    8 1
    18    7    9 1
    19    7   10 1
    20    9   38 1
    21    9   39 1
    22   10   40 1
    23   11   16 ar
    24   11   12 ar
    25   12   13 ar
    26   12   30 1
    27   13   14 ar
    28   13   41 1
    29   14   15 ar
    30   14   29 1
    31   15   20 1
    32   15   16 ar
    33   16   17 1
    34   17   18 1
    35   18   19 2
    36   18   22 1
    37   19   20 1
    38   19   42 1
    39   20   21 2
    40   22   27 ar
    41   22   23 ar
    42   23   24 ar
    43   23   43 1
    44   24   25 ar
    45   24   44 1
    46   25   26 ar
    47   25   45 1
    48   26   27 ar
    49   26   46 1
    50   27   28 1
    51   29   47 1
    52   30   48 1
@<TRIPOS>MOLECULE
ZINC00155806
   36    39     0     0     0
SMALL
USER_CHARGES

@<TRIPOS>ATOM
      1 C1         -0.0168    1.3847    0.0097 C.ar      1 <0>        -0.0734
      2 C2          1.1616    2.1028    0.0023 C.ar      1 <0>        -0.1509
      3 C3          2.3808    1.4427   -0.0114 C.ar      1 <0>         0.1127
      4 C4          2.4085    0.0532   -0.0117 C.ar      1 <0>         0.0607
      5 C5          1.2174   -0.6637   -0.0015 C.ar      1 <0>         0.1096
      6 C6          0.0021   -0.0041    0.0020 C.ar      1 <0>        -0.1291
      7 C7         -1.3116   -0.7345   -0.0163 C.3       1 <0>         0.0091
      8 H1         -1.9318   -0.4037    0.8168 H         1 <0>         0.1097
      9 C8         -2.0129   -0.4571   -1.3205 C.ar      1 <0>        -0.0779
     10 C9         -2.6959    0.6838   -1.7124 C.ar      1 <0>        -0.1043
     11 C10        -3.2557    0.6821   -2.9862 C.ar      1 <0>         0.0796
     12 C11        -3.1345   -0.4159   -3.8281 C.ar      1 <0>         0.0844
     13 C12        -2.4489   -1.5604   -3.4334 C.ar      1 <0>        -0.1119
     14 C13        -1.8915   -1.5584   -2.1635 C.ar      1 <0>        -0.0767
     15 C14        -1.1086   -2.6429   -1.4764 C.3       1 <0>        -0.1092
     16 C15        -1.1367   -2.2593    0.0349 C.3       1 <0>         0.1052
     17 C16         0.1665   -2.6533    0.7137 C.3       1 <0>         0.0380
     18 O1          1.2602   -2.0251    0.0116 O.3       1 <0>        -0.2900
     19 O2         -2.2545   -2.8668    0.6855 O.3       1 <0>        -0.5371
     20 O3         -3.6985   -0.3715   -5.0648 O.3       1 <0>        -0.4881
     21 O4         -3.9361    1.7784   -3.4157 O.3       1 <0>        -0.4873
     22 O5          3.5998   -0.6047   -0.0226 O.3       1 <0>        -0.4731
     23 O6          3.5420    2.1503   -0.0247 O.3       1 <0>        -0.4824
     24 H2         -0.9619    1.9071    0.0260 H         1 <0>         0.1342
     25 H3          1.1341    3.1825    0.0068 H         1 <0>         0.1393
     26 H4         -2.7898    1.5371   -1.0570 H         1 <0>         0.1407
     27 H5         -2.3551   -2.4142   -4.0881 H         1 <0>         0.1413
     28 H6         -1.5859   -3.6108   -1.6293 H         1 <0>         0.0896
     29 H7         -0.0828   -2.6620   -1.8446 H         1 <0>         0.1013
     30 H8          0.1476   -2.3287    1.7541 H         1 <0>         0.0810
     31 H9          0.2860   -3.7359    0.6715 H         1 <0>         0.1177
     32 H10        -2.1981   -3.8303    0.7466 H         1 <0>         0.3851
     33 H11        -3.1135   -0.0237   -5.7517 H         1 <0>         0.3880
     34 H12        -3.3848    2.4308   -3.8691 H         1 <0>         0.3873
     35 H13         3.9521   -0.7949    0.8577 H         1 <0>         0.3853
     36 H14         3.8879    2.3553    0.8547 H         1 <0>         0.3918
@<TRIPOS>BOND
     1    1    6 ar
     2    1    2 ar
     3    1   24 1
     4    2    3 ar
     5    2   25 1
     6    3    4 ar
     7    3   23 1
     8    4    5 ar
     9    4   22 1
    10    5   18 1
    11    5    6 ar
    12    6    7 1
    13    7    8 1
    14    7   16 1
    15    7    9 1
    16    9   14 ar
    17    9   10 ar
    18   10   11 ar
    19   10   26 1
    20   11   12 ar
    21   11   21 1
    22   12   13 ar
    23   12   20 1
    24   13   14 ar
    25   13   27 1
    26   14   15 1
    27   15   16 1
    28   15   28 1
    29   15   29 1
    30   16   17 1
    31   16   19 1
    32   17   18 1
    33   17   30 1
    34   17   31 1
    35   19   32 1
    36   20   33 1
    37   21   34 1
    38   22   35 1
    39   23   36 1
