@<TRIPOS>MOLECULE
ZINC00410207
   26    28     0     0     0
SMALL
USER_CHARGES
3-(2-iodophenyl)-4-oxa-2-azabicyclo[4.4.0]deca-2,7,9,11-tetraen-5-one
@<TRIPOS>ATOM
      1 C1          0.0282    4.1301    0.0249 C.ar      1 <0>        -0.1304
      2 C2         -1.1806    3.4467    0.0323 C.ar      1 <0>        -0.0668
      3 C3         -1.2131    2.0699    0.0305 C.ar      1 <0>        -0.0969
      4 C4         -0.0163    1.3506    0.0095 C.ar      1 <0>         0.1556
      5 C5          1.2126    2.0500    0.0015 C.ar      1 <0>        -0.2269
      6 C6          1.2228    3.4425    0.0093 C.ar      1 <0>        -0.0331
      7 C7          2.4534    1.2611   -0.0141 C.2       1 <0>         0.5287
      8 O1          3.5441    1.7994   -0.0216 O.2       1 <0>        -0.4356
      9 O2          2.3353   -0.0854   -0.0202 O.3       1 <0>        -0.3043
     10 C8          1.1256   -0.6706   -0.0123 C.2       1 <0>         0.3971
     11 N1          0.0021   -0.0041    0.0020 N.2       1 <0>        -0.4880
     12 C9          1.0629   -2.1460   -0.0196 C.ar      1 <0>        -0.0426
     13 C10         2.2396   -2.8981   -0.0348 C.ar      1 <0>        -0.0671
     14 C11         2.1737   -4.2756   -0.0417 C.ar      1 <0>        -0.1100
     15 C12         0.9454   -4.9133   -0.0334 C.ar      1 <0>        -0.0808
     16 C13        -0.2243   -4.1753   -0.0183 C.ar      1 <0>        -0.0920
     17 C14        -0.1735   -2.7958   -0.0055 C.ar      1 <0>        -0.0571
     18 I1         -1.9462   -1.6798    0.0262 I         1 <0>         0.0205
     19 H1          0.0324    5.2101    0.0310 H         1 <0>         0.1393
     20 H2         -2.1070    4.0018    0.0441 H         1 <0>         0.1400
     21 H3         -2.1592    1.5492    0.0407 H         1 <0>         0.1417
     22 H4          2.1597    3.9797    0.0036 H         1 <0>         0.1425
     23 H5          3.1989   -2.4021   -0.0417 H         1 <0>         0.1440
     24 H6          3.0830   -4.8582   -0.0531 H         1 <0>         0.1405
     25 H7          0.9000   -5.9924   -0.0384 H         1 <0>         0.1401
     26 H8         -1.1795   -4.6793   -0.0123 H         1 <0>         0.1414
@<TRIPOS>BOND
     1    1    6 ar
     2    1    2 ar
     3    1   19 1
     4    2    3 ar
     5    2   20 1
     6    3    4 ar
     7    3   21 1
     8    4   11 1
     9    4    5 ar
    10    5    6 ar
    11    5    7 1
    12    6   22 1
    13    7    8 2
    14    7    9 1
    15    9   10 1
    16   10   11 2
    17   10   12 1
    18   12   17 ar
    19   12   13 ar
    20   13   14 ar
    21   13   23 1
    22   14   15 ar
    23   14   24 1
    24   15   16 ar
    25   15   25 1
    26   16   17 ar
    27   16   26 1
    28   17   18 1
@<TRIPOS>MOLECULE
ZINC03778392
   49    52     0     0     0
SMALL
USER_CHARGES
(6-amidino-2-naphthyl) 4-(4,5-dihydro-1H-imidazol-2-ylamino)benzoate
@<TRIPOS>ATOM
      1 C1          6.7793    2.0604   -3.5073 C.ar      1 <0>        -0.0034
      2 C2          5.8742    1.0705   -3.8148 C.ar      1 <0>        -0.1339
      3 C3          4.5223    1.3764   -3.9418 C.ar      1 <0>         0.1718
      4 C4          4.0818    2.6848   -3.7646 C.ar      1 <0>        -0.2022
      5 C5          4.9807    3.6788   -3.4517 C.ar      1 <0>        -0.0129
      6 C6          6.3396    3.3750   -3.3228 C.ar      1 <0>        -0.1277
      7 C7          7.3062    4.4380   -2.9929 C.2       1 <0>         0.5084
      8 O1          8.4867    4.1723   -2.8808 O.2       1 <0>        -0.4673
      9 O2          6.8806    5.7044   -2.8154 O.3       1 <0>        -0.2880
     10 C8          7.8330    6.6536   -2.6208 C.ar      1 <0>         0.1249
     11 C9          8.7272    6.9579   -3.6527 C.ar      1 <0>        -0.1157
     12 C10         9.6870    7.9062   -3.4875 C.ar      1 <0>        -0.0687
     13 C11         9.7953    8.5880   -2.2616 C.ar      1 <0>        -0.0652
     14 C12        10.7803    9.5671   -2.0639 C.ar      1 <0>        -0.0147
     15 C13        10.8590   10.2182   -0.8453 C.ar      1 <0>        -0.1474
     16 C14         9.9619    9.9055    0.1908 C.ar      1 <0>        -0.0859
     17 C15         9.0024    8.9609    0.0189 C.ar      1 <0>        -0.0780
     18 C16         8.8958    8.2811   -1.2087 C.ar      1 <0>        -0.0006
     19 C17         7.9109    7.3008   -1.4087 C.ar      1 <0>        -0.1097
     20 C18        11.8957   11.2522   -0.6314 C.cat     1 <0>         0.5982
     21 N1         11.9791   11.9041    0.5800 N.pl3     1 <0>        -0.7768
     22 N2          3.6088    0.3718   -4.2528 N.pl3     1 <0>        -0.6321
     23 C19         2.2925    0.4944   -3.8666 C.cat     1 <0>         0.7162
     24 C20         0.4249    1.3158   -2.8800 C.3       1 <0>         0.0664
     25 C21         0.0419    0.0445   -3.6635 C.3       1 <0>         0.0824
     26 N3          1.3220   -0.3920   -4.2458 N.pl3     1 <0>        -0.6815
     27 H1          7.8281    1.8222   -3.4082 H         1 <0>         0.1607
     28 H2          6.2131    0.0551   -3.9574 H         1 <0>         0.1561
     29 H3          3.0327    2.9194   -3.8682 H         1 <0>         0.1479
     30 H4          4.6377    4.6929   -3.3100 H         1 <0>         0.1591
     31 H5          8.6515    6.4350   -4.5945 H         1 <0>         0.1417
     32 H6         10.3676    8.1332   -4.2947 H         1 <0>         0.1498
     33 H7         11.4717    9.8113   -2.8569 H         1 <0>         0.1444
     34 H8         10.0376   10.4230    1.1356 H         1 <0>         0.1399
     35 H9          8.3201    8.7317    0.8240 H         1 <0>         0.1525
     36 H10         7.2186    7.0565   -0.6166 H         1 <0>         0.1524
     37 H11        13.4438   12.2095   -1.5444 H         1 <0>         0.4467
     38 H12        11.3583   11.6850    1.2924 H         1 <0>         0.4437
     39 H13        12.6586   12.5819    0.7203 H         1 <0>         0.4329
     40 H14         3.8998   -0.4140   -4.7413 H         1 <0>         0.4478
     41 H15         0.2217    1.1897   -1.8165 H         1 <0>         0.1269
     42 H16        -0.1123    2.1799   -3.2707 H         1 <0>         0.1273
     43 H17        -0.6784    0.2763   -4.4480 H         1 <0>         0.1239
     44 H18        -0.3531   -0.7157   -2.9897 H         1 <0>         0.1231
     45 H19         1.4538   -1.1726   -4.8063 H         1 <0>         0.4568
     46 N4         12.7126   11.5050   -1.6430 N.pl3     1 <0>        -0.7603
     47 H20        12.6098   10.9919   -2.5264 H         1 <0>         0.4588
     48 N5          1.8710    1.4602   -3.1139 N.pl3     1 <0>        -0.6593
     49 H21         2.4576    2.2137   -2.7367 H         1 <0>         0.4710
@<TRIPOS>BOND
     1    1    6 ar
     2    1    2 ar
     3    1   27 1
     4    2    3 ar
     5    2   28 1
     6    3    4 ar
     7    3   22 1
     8    4    5 ar
     9    4   29 1
    10    5    6 ar
    11    5   30 1
    12    6    7 1
    13    7    8 2
    14    7    9 1
    15    9   10 1
    16   10   19 ar
    17   10   11 ar
    18   11   12 ar
    19   11   31 1
    20   12   13 ar
    21   12   32 1
    22   13   18 ar
    23   13   14 ar
    24   14   15 ar
    25   14   33 1
    26   15   16 ar
    27   15   20 1
    28   16   17 ar
    29   16   34 1
    30   17   18 ar
    31   17   35 1
    32   18   19 ar
    33   19   36 1
    34   20   21 1
    35   20   46 2
    36   21   38 1
    37   21   39 1
    38   22   23 1
    39   22   40 1
    40   23   26 1
    41   23   48 2
    42   24   25 1
    43   24   41 1
    44   24   42 1
    45   24   48 1
    46   25   26 1
    47   25   43 1
    48   25   44 1
    49   26   45 1
    50   37   46 1
    51   46   47 1
    52   48   49 1
@<TRIPOS>MOLECULE
ZINC00001763
   45    47     0     0     0
SMALL
USER_CHARGES

@<TRIPOS>ATOM
      1 C1          0.4307    0.2502    2.0676 C.ar      1 <0>        -0.0153
      2 C2          1.6219    0.9331    2.1617 C.ar      1 <0>        -0.1193
      3 C3          2.6604    0.6489    1.2801 C.ar      1 <0>         0.1435
      4 C4          2.4990   -0.3267    0.3008 C.ar      1 <0>        -0.1724
      5 C5          1.3106   -1.0136    0.2008 C.ar      1 <0>        -0.0246
      6 C6          0.2649   -0.7307    1.0849 C.ar      1 <0>        -0.1135
      7 C7         -1.0096   -1.4644    0.9809 C.2       1 <0>         0.5087
      8 O1         -1.9176   -1.2170    1.7498 O.2       1 <0>        -0.4667
      9 O2         -1.1677   -2.4095    0.0332 O.3       1 <0>        -0.2923
     10 C8         -2.3923   -2.9828   -0.0978 C.ar      1 <0>         0.1259
     11 C9         -3.4217   -2.2783   -0.7313 C.ar      1 <0>        -0.1152
     12 C10        -4.6566   -2.8272   -0.8764 C.ar      1 <0>        -0.0682
     13 C11        -4.9108   -4.1213   -0.3857 C.ar      1 <0>        -0.0654
     14 C12        -6.1763   -4.7102   -0.5232 C.ar      1 <0>        -0.0099
     15 C13        -6.3918   -5.9856   -0.0291 C.ar      1 <0>        -0.1471
     16 C14        -5.3542   -6.6900    0.6072 C.ar      1 <0>        -0.0871
     17 C15        -4.1234   -6.1364    0.7499 C.ar      1 <0>        -0.0773
     18 C16        -3.8721   -4.8419    0.2575 C.ar      1 <0>        -0.0011
     19 C17        -2.6050   -4.2525    0.3893 C.ar      1 <0>        -0.1091
     20 C18        -7.7236   -6.6117   -0.1711 C.cat     1 <0>         0.5988
     21 N1         -7.9368   -7.8384    0.3023 N.pl3     1 <0>        -0.7582
     22 N2         -8.7104   -5.9491   -0.7725 N.pl3     1 <0>        -0.7622
     23 N3          3.8650    1.3431    1.3778 N.pl3     1 <0>        -0.6394
     24 C19         5.0543    0.6734    1.2516 C.cat     1 <0>         0.7482
     25 N4          6.2001    1.3513    1.2200 N.pl3     1 <0>        -0.7807
     26 N5          5.0638   -0.6552    1.1604 N.pl3     1 <0>        -0.7908
     27 H1         -0.3734    0.4685    2.7547 H         1 <0>         0.1604
     28 H2          1.7507    1.6909    2.9204 H         1 <0>         0.1556
     29 H3          3.3071   -0.5447   -0.3817 H         1 <0>         0.1475
     30 H4          1.1857   -1.7701   -0.5598 H         1 <0>         0.1596
     31 H5         -3.2326   -1.2847   -1.1100 H         1 <0>         0.1435
     32 H6         -5.4416   -2.2709   -1.3671 H         1 <0>         0.1506
     33 H7         -6.9764   -4.1730   -1.0105 H         1 <0>         0.1463
     34 H8         -5.5392   -7.6838    0.9873 H         1 <0>         0.1398
     35 H9         -3.3365   -6.6892    1.2415 H         1 <0>         0.1528
     36 H10        -1.8032   -4.7903    0.8733 H         1 <0>         0.1514
     37 H11        -7.2183   -8.3209    0.7403 H         1 <0>         0.4450
     38 H12        -8.5551   -5.0558   -1.1173 H         1 <0>         0.4433
     39 H13        -9.5841   -6.3598   -0.8657 H         1 <0>         0.4357
     40 H14         3.8617    2.3003    1.5351 H         1 <0>         0.4483
     41 H15         6.1931    2.3190    1.2864 H         1 <0>         0.4449
     42 H16         4.2274   -1.1445    1.1178 H         1 <0>         0.4412
     43 H17         5.9073   -1.1336    1.1367 H         1 <0>         0.4432
     44 H18        -8.8106   -8.2492    0.2091 H         1 <0>         0.4352
     45 H19         7.0417    0.8773    1.1307 H         1 <0>         0.4465
@<TRIPOS>BOND
     1    1    6 ar
     2    1    2 ar
     3    1   27 1
     4    2    3 ar
     5    2   28 1
     6    3    4 ar
     7    3   23 1
     8    4    5 ar
     9    4   29 1
    10    5    6 ar
    11    5   30 1
    12    6    7 1
    13    7    8 2
    14    7    9 1
    15    9   10 1
    16   10   19 ar
    17   10   11 ar
    18   11   12 ar
    19   11   31 1
    20   12   13 ar
    21   12   32 1
    22   13   18 ar
    23   13   14 ar
    24   14   15 ar
    25   14   33 1
    26   15   16 ar
    27   15   20 1
    28   16   17 ar
    29   16   34 1
    30   17   18 ar
    31   17   35 1
    32   18   19 ar
    33   19   36 1
    34   20   21 2
    35   20   22 1
    36   21   37 1
    37   21   44 1
    38   22   38 1
    39   22   39 1
    40   23   24 1
    41   23   40 1
    42   24   25 2
    43   24   26 1
    44   25   41 1
    45   25   45 1
    46   26   42 1
    47   26   43 1
@<TRIPOS>MOLECULE
ZINC28238972
   64    68     0     0     0
SMALL
USER_CHARGES
2-(6-chloro-2-naphthyl)-N-[4-[2-(dimethylaminomethyl)phenyl]-2-fluoro-phenyl]-5-methyl-pyrazole-3-carboxamide
@<TRIPOS>ATOM
      1 C1         -3.6431   -2.1162   -0.1598 C.3       1 <0>        -0.0824
      2 C2         -3.3094   -0.7584    0.4022 C.2       1 <0>         0.0771
      3 C3         -4.1654    0.0386    1.1577 C.2       1 <0>        -0.1543
      4 C4         -3.4867    1.1981    1.4773 C.2       1 <0>         0.0109
      5 N1         -2.2393    1.0983    0.9206 N.pl3     1 <0>        -0.3191
      6 N2         -2.1685   -0.1313    0.2541 N.2       1 <0>        -0.2405
      7 C5         -1.2209    2.0554    0.9988 C.ar      1 <0>         0.1440
      8 C6         -0.6009    2.5045   -0.1734 C.ar      1 <0>        -0.1065
      9 C7          0.3906    3.4330   -0.1273 C.ar      1 <0>        -0.0670
     10 C8          0.8053    3.9547    1.1108 C.ar      1 <0>        -0.0375
     11 C9          1.8275    4.9158    1.1882 C.ar      1 <0>        -0.0899
     12 C10         2.2058    5.4019    2.4031 C.ar      1 <0>        -0.0212
     13 C11         1.5930    4.9598    3.5755 C.ar      1 <0>        -0.0972
     14 C12         0.6000    4.0303    3.5387 C.ar      1 <0>        -0.0808
     15 C13         0.1866    3.5018    2.3031 C.ar      1 <0>        -0.0339
     16 C14        -0.8389    2.5452    2.2279 C.ar      1 <0>        -0.1200
     17 Cl1         3.4687    6.5895    2.4936 Cl        1 <0>        -0.0534
     18 C15        -4.0051    2.3261    2.2652 C.2       1 <0>         0.5985
     19 O1         -5.0754    2.2289    2.8353 O.2       1 <0>        -0.4950
     20 N3         -3.2945    3.4677    2.3559 N.am      1 <0>        -0.6836
     21 C16        -3.7381    4.5035    3.1842 C.ar      1 <0>         0.1444
     22 C17        -5.0568    4.5261    3.6212 C.ar      1 <0>        -0.1264
     23 C18        -5.4951    5.5431    4.4426 C.ar      1 <0>        -0.1019
     24 C19        -4.6178    6.5562    4.8262 C.ar      1 <0>        -0.0901
     25 C20        -3.2963    6.5363    4.3830 C.ar      1 <0>        -0.1208
     26 C21        -2.8595    5.5134    3.5653 C.ar      1 <0>         0.0701
     27 F1         -1.5791    5.4929    3.1346 F         1 <0>        -0.1200
     28 C22        -5.0897    7.6540    5.7053 C.ar      1 <0>        -0.0281
     29 C23        -4.9594    8.9808    5.2989 C.ar      1 <0>        -0.0958
     30 C24        -5.4001    9.9979    6.1207 C.ar      1 <0>        -0.0846
     31 C25        -5.9709    9.7026    7.3459 C.ar      1 <0>        -0.1079
     32 C26        -6.1032    8.3878    7.7541 C.ar      1 <0>        -0.0854
     33 C27        -5.6702    7.3622    6.9380 C.ar      1 <0>        -0.1420
     34 C28        -5.8207    5.9298    7.3815 C.3       1 <0>         0.0376
     35 N4         -4.4927    5.3489    7.6200 N.4       1 <0>        -0.4035
     36 C29        -3.8304    5.9994    8.7585 C.3       1 <0>        -0.0492
     37 C30        -4.5819    3.8967    7.8225 C.3       1 <0>        -0.0506
     38 H1         -4.6704   -2.3883    0.1243 H         1 <0>         0.0874
     39 H2         -2.9417   -2.8620    0.2424 H         1 <0>         0.0850
     40 H3         -3.5609   -2.0894   -1.2564 H         1 <0>         0.0856
     41 H4         -5.1782   -0.2058    1.4423 H         1 <0>         0.1711
     42 H5         -0.9146    2.1074   -1.1275 H         1 <0>         0.1445
     43 H6          0.8595    3.7692   -1.0402 H         1 <0>         0.1503
     44 H7          2.3106    5.2676    0.2887 H         1 <0>         0.1471
     45 H8          1.9116    5.3607    4.5264 H         1 <0>         0.1390
     46 H9          0.1346    3.6968    4.4545 H         1 <0>         0.1347
     47 H10        -1.3215    2.1932    3.1277 H         1 <0>         0.1393
     48 H11        -2.3656    3.5847    1.7784 H         1 <0>         0.4414
     49 H12        -5.7381    3.7440    3.3204 H         1 <0>         0.1878
     50 H13        -6.5194    5.5574    4.7849 H         1 <0>         0.1414
     51 H14        -2.6149    7.3201    4.6793 H         1 <0>         0.1499
     52 H15        -4.5146    9.2125    4.3424 H         1 <0>         0.1364
     53 H16        -5.2996   11.0264    5.8068 H         1 <0>         0.1382
     54 H17        -6.3148   10.5017    7.9858 H         1 <0>         0.1376
     55 H18        -6.5499    8.1630    8.7114 H         1 <0>         0.1353
     56 H19        -6.4090    5.8934    8.3103 H         1 <0>         0.1370
     57 H20        -6.3367    5.3556    6.5979 H         1 <0>         0.1397
     58 H21        -2.8403    5.5462    8.9145 H         1 <0>         0.1233
     59 H22        -4.4415    5.8659    9.6633 H         1 <0>         0.1218
     60 H23        -3.7135    7.0731    8.5501 H         1 <0>         0.1228
     61 H24        -3.5757    3.4886    7.9985 H         1 <0>         0.1244
     62 H25        -5.0164    3.4277    6.9274 H         1 <0>         0.1242
     63 H26        -5.2204    3.6865    8.6932 H         1 <0>         0.1238
     64 H27        -3.8796    5.5282    6.7245 H         1 <0>         0.4369
@<TRIPOS>BOND
     1    1    2 1
     2    1   38 1
     3    1   39 1
     4    1   40 1
     5    2    6 2
     6    2    3 1
     7    3    4 2
     8    3   41 1
     9    4    5 1
    10    4   18 1
    11    5    6 1
    12    5    7 1
    13    7   16 ar
    14    7    8 ar
    15    8    9 ar
    16    8   42 1
    17    9   10 ar
    18    9   43 1
    19   10   15 ar
    20   10   11 ar
    21   11   12 ar
    22   11   44 1
    23   12   13 ar
    24   12   17 1
    25   13   14 ar
    26   13   45 1
    27   14   15 ar
    28   14   46 1
    29   15   16 ar
    30   16   47 1
    31   18   19 2
    32   18   20 am
    33   20   21 1
    34   20   48 1
    35   21   26 ar
    36   21   22 ar
    37   22   23 ar
    38   22   49 1
    39   23   24 ar
    40   23   50 1
    41   24   25 ar
    42   24   28 1
    43   25   26 ar
    44   25   51 1
    45   26   27 1
    46   28   33 ar
    47   28   29 ar
    48   29   30 ar
    49   29   52 1
    50   30   31 ar
    51   30   53 1
    52   31   32 ar
    53   31   54 1
    54   32   33 ar
    55   32   55 1
    56   33   34 1
    57   34   35 1
    58   34   56 1
    59   34   57 1
    60   35   36 1
    61   35   37 1
    62   35   64 1
    63   36   58 1
    64   36   59 1
    65   36   60 1
    66   37   61 1
    67   37   62 1
    68   37   63 1
@<TRIPOS>MOLECULE
ZINC13741968
   38    39     0     0     0
SMALL
USER_CHARGES
2-[4-(4-guanidinobenzoyl)oxyphenyl]acetic acid
@<TRIPOS>ATOM
      1 C1         -1.2389   -4.4036    0.9218 C.ar      1 <0>        -0.1022
      2 C2         -2.5779   -4.7369    0.8561 C.ar      1 <0>        -0.1072
      3 C3         -3.4594   -3.9276    0.1540 C.ar      1 <0>         0.0421
      4 C4         -2.9941   -2.7825   -0.4764 C.ar      1 <0>        -0.1111
      5 C5         -1.6550   -2.4511   -0.4036 C.ar      1 <0>        -0.1014
      6 C6         -0.7787   -3.2592    0.2971 C.ar      1 <0>        -0.0095
      7 C7          0.6816   -2.8952    0.3749 C.3       1 <0>        -0.1382
      8 C8          0.9183   -2.0224    1.5804 C.2       1 <0>         0.4662
      9 O1         -0.0042   -1.7261    2.3022 O.co2     1 <0>        -0.6318
     10 O2         -4.7764   -4.2555    0.0842 O.3       1 <0>        -0.2805
     11 C9         -5.2106   -4.8024   -1.0685 C.2       1 <0>         0.4878
     12 O3         -4.4291   -5.0059   -1.9766 O.2       1 <0>        -0.4712
     13 C10        -6.6333   -5.1537   -1.2277 C.ar      1 <0>        -0.0987
     14 C11        -7.5329   -4.9255   -0.1817 C.ar      1 <0>        -0.0268
     15 C12        -8.8616   -5.2489   -0.3361 C.ar      1 <0>        -0.1742
     16 C13        -9.3081   -5.8141   -1.5271 C.ar      1 <0>         0.1282
     17 C14        -8.4145   -6.0480   -2.5683 C.ar      1 <0>        -0.1250
     18 C15        -7.0855   -5.7212   -2.4231 C.ar      1 <0>        -0.0214
     19 N1        -10.6525   -6.1460   -1.6776 N.pl3     1 <0>        -0.6336
     20 C16       -11.6251   -5.3558   -1.1062 C.cat     1 <0>         0.7438
     21 N2        -11.2777   -4.1796   -0.4847 N.pl3     1 <0>        -0.8043
     22 H1         -0.5517   -5.0355    1.4647 H         1 <0>         0.1298
     23 H2         -2.9377   -5.6287    1.3476 H         1 <0>         0.1249
     24 H3         -3.6783   -2.1507   -1.0231 H         1 <0>         0.1205
     25 H4         -1.2923   -1.5598   -0.8940 H         1 <0>         0.1283
     26 H5          0.9700   -2.3551   -0.5269 H         1 <0>         0.0809
     27 H6          1.2783   -3.8033    0.4610 H         1 <0>         0.0813
     28 H7         -7.1862   -4.4918    0.7446 H         1 <0>         0.1608
     29 H8         -9.5578   -5.0683    0.4694 H         1 <0>         0.1462
     30 H9         -8.7644   -6.4860   -3.4913 H         1 <0>         0.1494
     31 H10        -6.3928   -5.9027   -3.2315 H         1 <0>         0.1587
     32 H11       -10.9038   -6.9337   -2.1849 H         1 <0>         0.4439
     33 H12       -13.6318   -5.2343   -0.7815 H         1 <0>         0.4555
     34 H13       -10.3798   -3.8261   -0.5827 H         1 <0>         0.4447
     35 H14       -11.9306   -3.7033    0.0518 H         1 <0>         0.4389
     36 O4          2.1549   -1.5784    1.8552 O.co2     1 <0>        -0.7645
     37 N3        -12.8758   -5.7845   -1.1895 N.pl3     1 <0>        -0.7884
     38 H15       -13.0843   -6.6705   -1.6645 H         1 <0>         0.4583
@<TRIPOS>BOND
     1    1    6 ar
     2    1    2 ar
     3    1   22 1
     4    2    3 ar
     5    2   23 1
     6    3    4 ar
     7    3   10 1
     8    4    5 ar
     9    4   24 1
    10    5    6 ar
    11    5   25 1
    12    6    7 1
    13    7    8 1
    14    7   26 1
    15    7   27 1
    16    8    9 2
    17    8   36 1
    18   10   11 1
    19   11   12 2
    20   11   13 1
    21   13   18 ar
    22   13   14 ar
    23   14   15 ar
    24   14   28 1
    25   15   16 ar
    26   15   29 1
    27   16   17 ar
    28   16   19 1
    29   17   18 ar
    30   17   30 1
    31   18   31 1
    32   19   20 1
    33   19   32 1
    34   20   21 1
    35   20   37 2
    36   21   34 1
    37   21   35 1
    38   33   37 1
    39   37   38 1
@<TRIPOS>MOLECULE
ZINC00601247
   52    53     0     0     0
SMALL
USER_CHARGES

@<TRIPOS>ATOM
      1 C1          5.0455    0.2133   -1.6879 C.3       1 <0>         0.0890
      2 N1          4.6453   -1.1958   -1.7083 N.am      1 <0>        -0.6189
      3 C2          5.4053   -2.1617   -2.5056 C.3       1 <0>         0.0700
      4 C3          3.5779   -1.6036   -0.9936 C.2       1 <0>         0.5130
      5 O1          2.9487   -0.8040   -0.3336 O.2       1 <0>        -0.5118
      6 C4          3.1662   -3.0532   -1.0146 C.3       1 <0>         0.0503
      7 O2          2.0165   -3.2339   -0.1854 O.3       1 <0>        -0.3280
      8 C5          1.5199   -4.4776   -0.0949 C.2       1 <0>         0.4641
      9 O3          2.0439   -5.3829   -0.6996 O.2       1 <0>        -0.4958
     10 C6          0.3086   -4.7449    0.7610 C.3       1 <0>        -0.0748
     11 C7         -0.0428   -6.2086    0.6911 C.ar      1 <0>        -0.0674
     12 C8         -0.9109   -6.6642   -0.2839 C.ar      1 <0>        -0.0846
     13 C9         -1.2350   -8.0054   -0.3499 C.ar      1 <0>        -0.1157
     14 C10        -0.6883   -8.8957    0.5631 C.ar      1 <0>         0.0812
     15 C11         0.1828   -8.4361    1.5402 C.ar      1 <0>        -0.1103
     16 C12         0.5078   -7.0947    1.5987 C.ar      1 <0>        -0.0849
     17 O4         -1.0059  -10.2157    0.5006 O.3       1 <0>        -0.2888
     18 C13        -0.4043  -10.9672   -0.4426 C.2       1 <0>         0.4984
     19 O5          0.4318  -10.4719   -1.1722 O.2       1 <0>        -0.4682
     20 C14        -0.7606  -12.3903   -0.5891 C.ar      1 <0>        -0.1031
     21 C15        -1.7265  -12.9605    0.2457 C.ar      1 <0>        -0.0283
     22 C16        -2.0566  -14.2893    0.1061 C.ar      1 <0>        -0.1219
     23 C17        -1.4299  -15.0654   -0.8642 C.ar      1 <0>         0.1306
     24 C18        -0.4677  -14.5014   -1.6966 C.ar      1 <0>        -0.1626
     25 C19        -0.1375  -13.1716   -1.5671 C.ar      1 <0>        -0.0218
     26 N2         -1.7663  -16.4108   -1.0025 N.pl3     1 <0>        -0.6340
     27 C20        -1.8698  -16.9667   -2.2512 C.cat     1 <0>         0.7481
     28 N3         -2.0694  -18.2768   -2.3824 N.pl3     1 <0>        -0.7827
     29 N4         -1.7707  -16.1965   -3.3331 N.pl3     1 <0>        -0.7940
     30 H1          5.9225    0.3511   -2.3204 H         1 <0>         0.0807
     31 H2          4.2274    0.8288   -2.0620 H         1 <0>         0.0652
     32 H3          5.2844    0.5084   -0.6662 H         1 <0>         0.0653
     33 H4          6.2041   -2.5862   -1.8975 H         1 <0>         0.0636
     34 H5          4.7414   -2.9584   -2.8410 H         1 <0>         0.0726
     35 H6          5.8360   -1.6590   -3.3716 H         1 <0>         0.0810
     36 H7          2.9273   -3.3482   -2.0363 H         1 <0>         0.1002
     37 H8          3.9843   -3.6687   -0.6405 H         1 <0>         0.1004
     38 H9          0.5262   -4.4723    1.7938 H         1 <0>         0.1245
     39 H10        -0.5308   -4.1519    0.3979 H         1 <0>         0.1241
     40 H11        -1.3361   -5.9708   -0.9944 H         1 <0>         0.1349
     41 H12        -1.9136   -8.3607   -1.1113 H         1 <0>         0.1306
     42 H13         0.6097   -9.1271    2.2521 H         1 <0>         0.1351
     43 H14         1.1892   -6.7371    2.3564 H         1 <0>         0.1364
     44 H15        -2.2128  -12.3589    0.9995 H         1 <0>         0.1605
     45 H16        -2.8026  -14.7304    0.7506 H         1 <0>         0.1517
     46 H17         0.0171  -15.1069   -2.4481 H         1 <0>         0.1466
     47 H18         0.6056  -12.7333   -2.2168 H         1 <0>         0.1584
     48 H19        -1.9273  -16.9539   -0.2150 H         1 <0>         0.4462
     49 H20        -2.1416  -18.8377   -1.5943 H         1 <0>         0.4433
     50 H21        -1.8340  -15.2322   -3.2495 H         1 <0>         0.4436
     51 H22        -1.6352  -16.5999   -4.2048 H         1 <0>         0.4428
     52 H23        -2.1426  -18.6701   -3.2660 H         1 <0>         0.4452
@<TRIPOS>BOND
     1    1    2 1
     2    1   30 1
     3    1   31 1
     4    1   32 1
     5    2    3 1
     6    2    4 am
     7    3   33 1
     8    3   34 1
     9    3   35 1
    10    4    5 2
    11    4    6 1
    12    6    7 1
    13    6   36 1
    14    6   37 1
    15    7    8 1
    16    8    9 2
    17    8   10 1
    18   10   11 1
    19   10   38 1
    20   10   39 1
    21   11   16 ar
    22   11   12 ar
    23   12   13 ar
    24   12   40 1
    25   13   14 ar
    26   13   41 1
    27   14   15 ar
    28   14   17 1
    29   15   16 ar
    30   15   42 1
    31   16   43 1
    32   17   18 1
    33   18   19 2
    34   18   20 1
    35   20   25 ar
    36   20   21 ar
    37   21   22 ar
    38   21   44 1
    39   22   23 ar
    40   22   45 1
    41   23   24 ar
    42   23   26 1
    43   24   25 ar
    44   24   46 1
    45   25   47 1
    46   26   27 1
    47   26   48 1
    48   27   28 2
    49   27   29 1
    50   28   49 1
    51   28   52 1
    52   29   50 1
    53   29   51 1
