@<TRIPOS>MOLECULE
ZINC03915682
   58    61     0     0     0
SMALL
USER_CHARGES
[dihydroxy-(hydroxymethyl)-tetramethyl-oxo-BLAHyl] acetate
@<TRIPOS>ATOM
      1 C1          0.9974    3.6575   -1.3140 C.3       1 <0>        -0.1589
      2 C2          1.8259    3.0269   -0.1633 C.3       1 <0>        -0.1228
      3 H1          1.5131    3.5748    0.7220 H         1 <0>         0.0972
      4 C3          3.2878    3.1931   -0.5175 C.3       1 <0>        -0.0688
      5 C4          4.1781    2.2603    0.2525 C.3       1 <0>         0.1123
      6 C5          3.6473    1.1852    1.0666 C.3       1 <0>        -0.1020
      7 H2          4.1874    0.1795    1.0360 H         1 <0>         0.1260
      8 C6          4.3991    2.3460    1.7148 C.3       1 <0>        -0.1292
      9 C7          5.8084    2.0483    2.1984 C.3       1 <0>        -0.1217
     10 C8          3.6454    3.3785    2.5701 C.3       1 <0>        -0.1170
     11 C9          2.1769    1.0993    1.2829 C.3       1 <0>        -0.0254
     12 H3          1.8053    1.7438    2.1256 H         1 <0>         0.1187
     13 C10         1.4719    1.5081   -0.0039 C.3       1 <0>         0.1787
     14 C11        -0.0139    1.1713    0.0085 C.3       1 <0>        -0.0969
     15 H4          0.0021   -0.0041    0.0020 H         1 <0>         0.1161
     16 C12        -0.9307    1.5805   -1.0523 C.2       1 <0>        -0.0777
     17 C13        -2.1091    1.9055   -0.6109 C.2       1 <0>        -0.2115
     18 C14        -2.1174    1.7423    0.9190 C.2       1 <0>         0.3603
     19 O1         -3.1351    1.8027    1.5585 O.2       1 <0>        -0.4215
     20 C15        -0.6798    1.4842    1.3392 C.3       1 <0>         0.1260
     21 C16        -0.5240    0.4032    2.3550 C.3       1 <0>        -0.1000
     22 C17         0.5360   -0.5245    2.0904 C.2       1 <0>        -0.1416
     23 C18         1.6940   -0.3273    1.6098 C.2       1 <0>        -0.0858
     24 C19         0.2471   -2.0234    2.4576 C.3       1 <0>         0.1012
     25 O2          1.3940   -2.8186    2.1505 O.3       1 <0>        -0.5690
     26 O3         -0.2179    2.6813    1.8448 O.3       1 <0>        -0.5247
     27 C20        -3.2801    2.3013   -1.4763 C.3       1 <0>        -0.0966
     28 O4          2.0449    0.8205   -1.1548 O.3       1 <0>        -0.5540
     29 O5          5.3931    1.9049   -0.5751 O.3       1 <0>        -0.3444
     30 C21         5.8795    2.8590   -1.3844 C.2       1 <0>         0.4583
     31 O6          5.3482    3.9433   -1.4273 O.2       1 <0>        -0.5102
     32 C22         7.0882    2.5777   -2.2393 C.3       1 <0>        -0.1504
     33 H5         -0.0653    3.5622   -1.0910 H         1 <0>         0.0658
     34 H6          1.2550    4.7121   -1.4116 H         1 <0>         0.0587
     35 H7          1.2205    3.1411   -2.2476 H         1 <0>         0.0480
     36 H8          3.3640    3.0871   -1.5410 H         1 <0>         0.0828
     37 H9          3.5132    4.2655   -0.1857 H         1 <0>         0.0801
     38 H10         6.2626    2.9630    2.5793 H         1 <0>         0.0606
     39 H11         5.7700    1.3034    2.9932 H         1 <0>         0.0637
     40 H12         6.4035    1.6650    1.3695 H         1 <0>         0.0665
     41 H13         2.8786    3.8615    1.9645 H         1 <0>         0.0665
     42 H14         3.1770    2.8765    3.4167 H         1 <0>         0.0661
     43 H15         4.3464    4.1291    2.9352 H         1 <0>         0.0648
     44 H16        -0.6281    1.6131   -2.1492 H         1 <0>         0.1464
     45 H17        -1.5420   -0.1083    2.4121 H         1 <0>         0.0897
     46 H18        -0.3650    0.8889    3.2728 H         1 <0>         0.0919
     47 H19         2.3511   -1.0976    1.4940 H         1 <0>         0.1276
     48 H20         0.0259   -2.1006    3.5221 H         1 <0>         0.0561
     49 H21        -0.6071   -2.3803    1.8822 H         1 <0>         0.0525
     50 H22         1.2866   -3.7582    2.3522 H         1 <0>         0.3840
     51 H23        -0.6111    2.9279    2.6931 H         1 <0>         0.3867
     52 H24        -4.1578    2.4596   -0.8497 H         1 <0>         0.0690
     53 H25        -3.0432    3.2222   -2.0092 H         1 <0>         0.0723
     54 H26        -3.4851    1.5080   -2.1951 H         1 <0>         0.0715
     55 H27         1.6594    1.0831   -2.0019 H         1 <0>         0.3700
     56 H28         6.7676    2.1800   -3.2022 H         1 <0>         0.1023
     57 H29         7.6459    3.5012   -2.3951 H         1 <0>         0.1008
     58 H30         7.7254    1.8485   -1.7390 H         1 <0>         0.0909
@<TRIPOS>BOND
     1    1    2 1
     2    1   33 1
     3    1   34 1
     4    1   35 1
     5    2    3 1
     6    2   13 1
     7    2    4 1
     8    4    5 1
     9    4   36 1
    10    4   37 1
    11    5    8 1
    12    5    6 1
    13    5   29 1
    14    6    7 1
    15    6    8 1
    16    6   11 1
    17    8    9 1
    18    8   10 1
    19    9   38 1
    20    9   39 1
    21    9   40 1
    22   10   41 1
    23   10   42 1
    24   10   43 1
    25   11   12 1
    26   11   23 1
    27   11   13 1
    28   13   14 1
    29   13   28 1
    30   14   15 1
    31   14   20 1
    32   14   16 1
    33   16   17 2
    34   16   44 1
    35   17   18 1
    36   17   27 1
    37   18   19 2
    38   18   20 1
    39   20   21 1
    40   20   26 1
    41   21   22 1
    42   21   45 1
    43   21   46 1
    44   22   23 2
    45   22   24 1
    46   23   47 1
    47   24   25 1
    48   24   48 1
    49   24   49 1
    50   25   50 1
    51   26   51 1
    52   27   52 1
    53   27   53 1
    54   27   54 1
    55   28   55 1
    56   29   30 1
    57   30   31 2
    58   30   32 1
    59   32   56 1
    60   32   57 1
    61   32   58 1
@<TRIPOS>MOLECULE
ZINC04096162
   76    79     0     0     0
SMALL
USER_CHARGES
[butanoyloxy-dihydroxy-(hydroxymethyl)-tetramethyl-oxo-BLAHyl] butanoate
@<TRIPOS>ATOM
      1 C1         -4.3158   -4.1578    5.3474 C.3       1 <0>        -0.1529
      2 C2         -3.3657   -2.9840    5.5934 C.3       1 <0>        -0.1108
      3 C3         -3.1437   -2.2245    4.2839 C.3       1 <0>        -0.1127
      4 C4         -2.2079   -1.0684    4.5263 C.2       1 <0>         0.4770
      5 O1         -1.7640   -0.8721    5.6328 O.2       1 <0>        -0.5117
      6 O2         -1.8674   -0.2567    3.5128 O.3       1 <0>        -0.3254
      7 C5         -0.9614    0.8370    3.8195 C.3       1 <0>         0.1417
      8 H1         -0.2852    0.4892    4.6158 H         1 <0>         0.0862
      9 C6         -1.7698    2.0121    4.3813 C.3       1 <0>        -0.1169
     10 H2         -2.6720    2.1423    3.7768 H         1 <0>         0.1061
     11 C7         -0.9280    3.2754    4.3387 C.3       1 <0>         0.1895
     12 C8         -0.7874    3.6804    2.8631 C.3       1 <0>        -0.0296
     13 H3         -1.7903    3.7394    2.4520 H         1 <0>         0.1088
     14 C9         -0.1903    5.0408    2.7376 C.2       1 <0>        -0.0972
     15 C10        -0.8307    6.1312    2.9956 C.2       1 <0>        -0.1449
     16 C11        -2.2363    6.2040    3.4704 C.3       1 <0>        -0.1006
     17 C12        -2.6003    5.1937    4.5148 C.3       1 <0>         0.1087
     18 C13        -1.4012    4.4677    5.1058 C.3       1 <0>        -0.0901
     19 H4         -0.5584    5.2014    5.0559 H         1 <0>         0.1183
     20 C14        -1.6847    4.3239    6.5679 C.2       1 <0>        -0.0571
     21 C15        -2.7337    5.0847    6.8934 C.2       1 <0>        -0.2180
     22 C16        -3.2821    5.7889    5.7277 C.2       1 <0>         0.3759
     23 O3         -4.1177    6.6727    5.7346 O.2       1 <0>        -0.4258
     24 C17        -3.2874    5.2023    8.2914 C.3       1 <0>        -0.1021
     25 O4         -3.4960    4.2472    3.9300 O.3       1 <0>        -0.5348
     26 C18        -0.0977    7.4310    2.7979 C.3       1 <0>         0.1108
     27 O5          1.2301    7.1645    2.3420 O.3       1 <0>        -0.5682
     28 C19         0.0052    2.6152    2.1277 C.3       1 <0>        -0.0784
     29 H5          0.9992    2.9261    1.7890 H         1 <0>         0.1223
     30 C20        -0.1276    1.1678    2.6046 C.3       1 <0>         0.0689
     31 C21        -0.7331    1.5822    1.2744 C.3       1 <0>        -0.1040
     32 C22        -0.0127    1.0858    0.0080 C.3       1 <0>        -0.1124
     33 C23        -2.2525    1.6447    1.1457 C.3       1 <0>        -0.1244
     34 O6          1.0975    0.3827    2.5011 O.3       1 <0>        -0.3217
     35 C24         1.0296   -0.9047    2.8751 C.2       1 <0>         0.4546
     36 O7         -0.0141   -1.3633    3.2754 O.2       1 <0>        -0.4924
     37 C25         2.2552   -1.7780    2.7958 C.3       1 <0>        -0.1142
     38 C26         1.9085   -3.1884    3.2769 C.3       1 <0>        -0.1112
     39 C27         3.1528   -4.0750    3.1964 C.3       1 <0>        -0.1531
     40 O8          0.3907    2.9492    4.8055 O.3       1 <0>        -0.5495
     41 C28        -2.1926    1.6409    5.8057 C.3       1 <0>        -0.1519
     42 H6         -3.8800   -4.8290    4.6074 H         1 <0>         0.0561
     43 H7         -4.4740   -4.6989    6.2802 H         1 <0>         0.0596
     44 H8         -5.2703   -3.7816    4.9792 H         1 <0>         0.0556
     45 H9         -2.4112   -3.3602    5.9616 H         1 <0>         0.0703
     46 H10        -3.8015   -2.3128    6.3334 H         1 <0>         0.0685
     47 H11        -4.0982   -1.8483    3.9158 H         1 <0>         0.0972
     48 H12        -2.7079   -2.8958    3.5439 H         1 <0>         0.1026
     49 H13         0.8345    5.1180    2.4135 H         1 <0>         0.1308
     50 H14        -2.8944    6.0607    2.6160 H         1 <0>         0.0970
     51 H15        -2.4080    7.1961    3.8817 H         1 <0>         0.0836
     52 H16        -1.1259    3.7178    7.2691 H         1 <0>         0.1529
     53 H17        -4.1409    5.8803    8.2884 H         1 <0>         0.0698
     54 H18        -3.6052    4.2197    8.6402 H         1 <0>         0.0731
     55 H19        -2.5163    5.5919    8.9560 H         1 <0>         0.0722
     56 H20        -4.2839    4.6439    3.5339 H         1 <0>         0.3848
     57 H21        -0.6219    8.0348    2.0571 H         1 <0>         0.0581
     58 H22        -0.0555    7.9718    3.7434 H         1 <0>         0.0547
     59 H23         1.7617    7.9585    2.1931 H         1 <0>         0.3840
     60 H24         0.0021   -0.0041    0.0020 H         1 <0>         0.0581
     61 H25         1.0099    1.4631    0.0003 H         1 <0>         0.0626
     62 H26        -0.5399    1.4469   -0.8751 H         1 <0>         0.0651
     63 H27        -2.6775    0.6686    1.3797 H         1 <0>         0.0738
     64 H28        -2.6457    2.3880    1.8393 H         1 <0>         0.0667
     65 H29        -2.5197    1.9222    0.1260 H         1 <0>         0.0644
     66 H30         2.6042   -1.8216    1.7641 H         1 <0>         0.1032
     67 H31         3.0398   -1.3613    3.4275 H         1 <0>         0.1030
     68 H32         1.5595   -3.1448    4.3086 H         1 <0>         0.0701
     69 H33         1.1239   -3.6051    2.6453 H         1 <0>         0.0706
     70 H34         3.5018   -4.1186    2.1647 H         1 <0>         0.0567
     71 H35         3.9373   -3.6583    3.8281 H         1 <0>         0.0566
     72 H36         2.9058   -5.0798    3.5392 H         1 <0>         0.0608
     73 H37         0.4236    2.6771    5.7328 H         1 <0>         0.3711
     74 H38        -2.7814    2.4526    6.2331 H         1 <0>         0.0614
     75 H39        -2.7922    0.7310    5.7813 H         1 <0>         0.0735
     76 H40        -1.3053    1.4751    6.4166 H         1 <0>         0.0548
@<TRIPOS>BOND
     1    1    2 1
     2    1   42 1
     3    1   43 1
     4    1   44 1
     5    2    3 1
     6    2   45 1
     7    2   46 1
     8    3    4 1
     9    3   47 1
    10    3   48 1
    11    4    5 2
    12    4    6 1
    13    6    7 1
    14    7    8 1
    15    7   30 1
    16    7    9 1
    17    9   10 1
    18    9   11 1
    19    9   41 1
    20   11   18 1
    21   11   12 1
    22   11   40 1
    23   12   13 1
    24   12   14 1
    25   12   28 1
    26   14   15 2
    27   14   49 1
    28   15   16 1
    29   15   26 1
    30   16   17 1
    31   16   50 1
    32   16   51 1
    33   17   22 1
    34   17   18 1
    35   17   25 1
    36   18   19 1
    37   18   20 1
    38   20   21 2
    39   20   52 1
    40   21   22 1
    41   21   24 1
    42   22   23 2
    43   24   53 1
    44   24   54 1
    45   24   55 1
    46   25   56 1
    47   26   27 1
    48   26   57 1
    49   26   58 1
    50   27   59 1
    51   28   29 1
    52   28   31 1
    53   28   30 1
    54   30   31 1
    55   30   34 1
    56   31   32 1
    57   31   33 1
    58   32   60 1
    59   32   61 1
    60   32   62 1
    61   33   63 1
    62   33   64 1
    63   33   65 1
    64   34   35 1
    65   35   36 2
    66   35   37 1
    67   37   38 1
    68   37   66 1
    69   37   67 1
    70   38   39 1
    71   38   68 1
    72   38   69 1
    73   39   70 1
    74   39   71 1
    75   39   72 1
    76   40   73 1
    77   41   74 1
    78   41   75 1
    79   41   76 1
