@<TRIPOS>MOLECULE
ZINC02043204
   48    50     0     0     0
SMALL
USER_CHARGES

@<TRIPOS>ATOM
      1 C1          2.5162    0.9496    1.4171 C.ar      1 <0>        -0.1558
      2 C2          1.8179    1.8754    0.7027 C.ar      1 <0>        -0.0089
      3 C3          0.8924    1.4496   -0.2625 C.ar      1 <0>        -0.1400
      4 C4          0.1441    2.3570   -1.0300 C.ar      1 <0>         0.1716
      5 N1         -0.7096    1.9109   -1.9214 N.ar      1 <0>        -0.4887
      6 C5         -0.9082    0.6184   -2.1416 C.ar      1 <0>         0.1175
      7 C6         -0.2327   -0.3410   -1.4505 C.ar      1 <0>        -0.1972
      8 C7          0.7007    0.0595   -0.4769 C.ar      1 <0>         0.0581
      9 C8          1.4373   -0.8645    0.2774 C.ar      1 <0>        -0.6935
     10 C9          2.3271   -0.4146    1.2059 C.ar      1 <0>         0.0350
     11 S1          1.2137   -2.5943    0.0269 S.o2      1 <0>         2.6977
     12 O1          2.1244   -3.2517    0.8974 O.2       1 <0>        -0.9448
     13 O2         -0.1865   -2.8329    0.0680 O.2       1 <0>        -0.9312
     14 N2          1.7064   -2.9332   -1.5173 N.pl3     1 <0>        -1.1162
     15 C10         3.1062   -2.7326   -1.9002 C.3       1 <0>         0.0916
     16 C11         3.3893   -3.4769   -3.2066 C.3       1 <0>        -0.0177
     17 N3          4.7929   -3.2757   -3.5905 N.4       1 <0>        -0.5066
     18 C12         5.0647   -3.9903   -4.8449 C.3       1 <0>         0.0395
     19 C13         6.5046   -3.7840   -5.2387 C.2       1 <0>        -0.2534
     20 C14         7.2882   -4.8305   -5.4586 C.2       1 <0>        -0.0124
     21 C15         8.7005   -4.6281   -5.8449 C.ar      1 <0>        -0.0865
     22 C16         9.2134   -3.3367   -5.9733 C.ar      1 <0>        -0.0932
     23 C17        10.5324   -3.1541   -6.3336 C.ar      1 <0>        -0.0930
     24 C18        11.3467   -4.2489   -6.5682 C.ar      1 <0>        -0.0711
     25 C19        10.8435   -5.5324   -6.4424 C.ar      1 <0>        -0.0912
     26 C20         9.5277   -5.7277   -6.0770 C.ar      1 <0>        -0.0822
     27 Br1        13.1533   -3.9899   -7.0630 Br        1 <0>        -0.0276
     28 H1          3.2315    1.2784    2.1565 H         1 <0>         0.1450
     29 H2          1.9750    2.9294    0.8779 H         1 <0>         0.1486
     30 H3          0.2706    3.4199   -0.8866 H         1 <0>         0.1731
     31 H4         -1.6264    0.3180   -2.8902 H         1 <0>         0.1633
     32 H5         -0.4102   -1.3883   -1.6456 H         1 <0>         0.1411
     33 H6          2.8949   -1.1263    1.7868 H         1 <0>         0.1512
     34 H7          1.0683   -3.2645   -2.1683 H         1 <0>         0.4272
     35 H8          3.2957   -1.6683   -2.0399 H         1 <0>         0.0890
     36 H9          3.7565   -3.1173   -1.1145 H         1 <0>         0.1050
     37 H10         3.1998   -4.5411   -3.0669 H         1 <0>         0.1445
     38 H11         2.7390   -3.0921   -3.9922 H         1 <0>         0.1424
     39 H12         4.9683   -2.2905   -3.7199 H         1 <0>         0.4308
     40 H13         4.8752   -5.0546   -4.7051 H         1 <0>         0.1348
     41 H14         4.4144   -3.6056   -5.6305 H         1 <0>         0.1403
     42 H15         6.8982   -2.7835   -5.3419 H         1 <0>         0.1396
     43 H16         6.8946   -5.8309   -5.3555 H         1 <0>         0.1348
     44 H17         8.5789   -2.4819   -5.7913 H         1 <0>         0.1337
     45 H18        10.9305   -2.1552   -6.4334 H         1 <0>         0.1407
     46 H19        11.4834   -6.3826   -6.6269 H         1 <0>         0.1428
     47 H20         9.1374   -6.7295   -5.9748 H         1 <0>         0.1397
     48 H21         5.3949   -3.6319   -2.8633 H         1 <0>         0.4327
@<TRIPOS>BOND
     1    1   10 ar
     2    1    2 ar
     3    1   28 1
     4    2    3 ar
     5    2   29 1
     6    3    8 ar
     7    3    4 ar
     8    4    5 ar
     9    4   30 1
    10    5    6 ar
    11    6    7 ar
    12    6   31 1
    13    7    8 ar
    14    7   32 1
    15    8    9 ar
    16    9   10 ar
    17    9   11 1
    18   10   33 1
    19   11   12 2
    20   11   13 2
    21   11   14 1
    22   14   15 1
    23   14   34 1
    24   15   16 1
    25   15   35 1
    26   15   36 1
    27   16   17 1
    28   16   37 1
    29   16   38 1
    30   17   18 1
    31   17   39 1
    32   17   48 1
    33   18   19 1
    34   18   40 1
    35   18   41 1
    36   19   20 2
    37   19   42 1
    38   20   21 1
    39   20   43 1
    40   21   26 ar
    41   21   22 ar
    42   22   23 ar
    43   22   44 1
    44   23   24 ar
    45   23   45 1
    46   24   25 ar
    47   24   27 1
    48   25   26 ar
    49   25   46 1
    50   26   47 1
@<TRIPOS>MOLECULE
ZINC34371722
   32    35     0     0     0
SMALL
USER_CHARGES

@<TRIPOS>ATOM
      1 C1         -0.0167    1.3786    0.0096 C.ar      1 <0>        -0.0992
      2 C2          1.1696    2.0892    0.0021 C.ar      1 <0>        -0.1009
      3 C3          2.3774    1.4194   -0.0135 C.ar      1 <0>        -0.0868
      4 C4          2.3996    0.0309   -0.0212 C.ar      1 <0>         0.1023
      5 C5          1.2065   -0.6797   -0.0132 C.ar      1 <0>        -0.1019
      6 C6          0.0021   -0.0041    0.0020 C.ar      1 <0>        -0.1064
      7 N1          3.6225   -0.6512   -0.0375 N.pl3     1 <0>        -0.4206
      8 C7          4.1021   -1.4514   -1.0568 C.ar      1 <0>         0.0694
      9 C8          3.6084   -1.8316   -2.2971 C.ar      1 <0>        -0.1075
     10 C9          4.3538   -2.6660   -3.1029 C.ar      1 <0>        -0.0860
     11 C10         5.5934   -3.1281   -2.6823 C.ar      1 <0>        -0.1214
     12 C11         6.0963   -2.7653   -1.4656 C.ar      1 <0>        -0.0553
     13 C12         5.3586   -1.9191   -0.6303 C.ar      1 <0>         0.0508
     14 N2          5.5844   -1.3971    0.5988 N.2       1 <0>        -0.4516
     15 C13         4.5709   -0.6456    0.9523 C.2       1 <0>         0.3285
     16 C14         4.4647    0.0947    2.2285 C.2       1 <0>         0.1298
     17 C15         5.4718    0.1173    3.2969 C.2       1 <0>         0.3642
     18 N3          5.0285    0.8748    4.2620 N.2       1 <0>        -0.3525
     19 O1          3.7551    1.3653    3.8823 O.3       1 <0>         0.0400
     20 N4          3.4597    0.8466    2.5976 N.2       1 <0>        -0.2360
     21 N5          6.6877   -0.5535    3.2826 N.pl3     1 <0>        -0.8022
     22 H1         -0.9598    1.9046    0.0260 H         1 <0>         0.1334
     23 H2          1.1517    3.1690    0.0081 H         1 <0>         0.1352
     24 H3          3.3035    1.9749   -0.0201 H         1 <0>         0.1235
     25 H4          1.2205   -1.7596   -0.0195 H         1 <0>         0.1285
     26 H5         -0.9261   -0.5562    0.0079 H         1 <0>         0.1351
     27 H6          2.6444   -1.4758   -2.6294 H         1 <0>         0.1278
     28 H7          3.9705   -2.9623   -4.0681 H         1 <0>         0.1368
     29 H8          6.1658   -3.7816   -3.3238 H         1 <0>         0.1367
     30 H9          7.0617   -3.1311   -1.1484 H         1 <0>         0.1371
     31 H10         6.9329   -1.0968    2.5174 H         1 <0>         0.4307
     32 H11         7.2918   -0.4786    4.0378 H         1 <0>         0.4182
@<TRIPOS>BOND
     1    1    6 ar
     2    1    2 ar
     3    1   22 1
     4    2    3 ar
     5    2   23 1
     6    3    4 ar
     7    3   24 1
     8    4    5 ar
     9    4    7 1
    10    5    6 ar
    11    5   25 1
    12    6   26 1
    13    7   15 1
    14    7    8 1
    15    8   13 ar
    16    8    9 ar
    17    9   10 ar
    18    9   27 1
    19   10   11 ar
    20   10   28 1
    21   11   12 ar
    22   11   29 1
    23   12   13 ar
    24   12   30 1
    25   13   14 1
    26   14   15 2
    27   15   16 1
    28   16   20 2
    29   16   17 1
    30   17   18 2
    31   17   21 1
    32   18   19 1
    33   19   20 1
    34   21   31 1
    35   21   32 1
@<TRIPOS>MOLECULE
ZINC00204903
   25    27     0     0     0
SMALL
USER_CHARGES

@<TRIPOS>ATOM
      1 C1         -0.0178    1.4608    0.0101 C.3       1 <0>         0.0688
      2 N1          0.0021   -0.0041    0.0020 N.pl3     1 <0>        -0.4663
      3 C2          0.0081   -0.8169   -1.1133 C.ar      1 <0>         0.0636
      4 C3         -0.0016   -0.5775   -2.4809 C.ar      1 <0>        -0.1113
      5 C4          0.0084   -1.6390   -3.3605 C.ar      1 <0>        -0.0866
      6 C5          0.0277   -2.9443   -2.8886 C.ar      1 <0>        -0.1235
      7 C6          0.0372   -3.2004   -1.5473 C.ar      1 <0>        -0.0552
      8 C7          0.0282   -2.1396   -0.6349 C.ar      1 <0>         0.0494
      9 N2          0.0334   -2.0755    0.7178 N.2       1 <0>        -0.4566
     10 C8          0.0241   -0.8222    1.0992 C.2       1 <0>         0.3186
     11 C9          0.0318   -0.3604    2.5049 C.2       1 <0>         0.1401
     12 C10         0.0612   -1.2218    3.6936 C.2       1 <0>         0.3638
     13 N3          0.0599   -0.4595    4.7522 N.2       1 <0>        -0.3514
     14 O1          0.0306    0.8889    4.3193 O.3       1 <0>         0.0406
     15 N4          0.0193    0.8857    2.9027 N.2       1 <0>        -0.2545
     16 N5          0.0857   -2.6103    3.6913 N.pl3     1 <0>        -0.8013
     17 H1          1.0048    1.8381    0.0023 H         1 <0>         0.0840
     18 H2         -0.5450    1.8219   -0.8730 H         1 <0>         0.0930
     19 H3         -0.5280    1.8123    0.9069 H         1 <0>         0.1000
     20 H4         -0.0174    0.4359   -2.8540 H         1 <0>         0.1277
     21 H5          0.0008   -1.4537   -4.4245 H         1 <0>         0.1361
     22 H6          0.0351   -3.7659   -3.5895 H         1 <0>         0.1357
     23 H7          0.0515   -4.2200   -1.1914 H         1 <0>         0.1358
     24 H8          0.0843   -3.0940    2.8506 H         1 <0>         0.4312
     25 H9          0.1043   -3.0964    4.5305 H         1 <0>         0.4183
@<TRIPOS>BOND
     1    1    2 1
     2    1   17 1
     3    1   18 1
     4    1   19 1
     5    2   10 1
     6    2    3 1
     7    3    8 ar
     8    3    4 ar
     9    4    5 ar
    10    4   20 1
    11    5    6 ar
    12    5   21 1
    13    6    7 ar
    14    6   22 1
    15    7    8 ar
    16    7   23 1
    17    8    9 1
    18    9   10 2
    19   10   11 1
    20   11   15 2
    21   11   12 1
    22   12   13 2
    23   12   16 1
    24   13   14 1
    25   14   15 1
    26   16   24 1
    27   16   25 1
@<TRIPOS>MOLECULE
ZINC00053816
   32    35     0     0     0
SMALL
USER_CHARGES
4-[1-(cyclopropylmethyl)benzoimidazol-2-yl]-1,2,5-oxadiazol-3-amine
@<TRIPOS>ATOM
      1 C1          4.8805   -3.7251    1.3030 C.ar      1 <0>        -0.1247
      2 C2          3.5459   -3.5610    1.6481 C.ar      1 <0>        -0.0932
      3 C3          2.9579   -2.3153    1.5945 C.ar      1 <0>        -0.1078
      4 C4          3.7069   -1.2174    1.1928 C.ar      1 <0>         0.0622
      5 C5          5.0586   -1.3839    0.8403 C.ar      1 <0>         0.0499
      6 C6          5.6317   -2.6592    0.8977 C.ar      1 <0>        -0.0594
      7 N1          5.5366   -0.1631    0.5010 N.2       1 <0>        -0.4681
      8 C7          4.5843    0.7295    0.6136 C.2       1 <0>         0.3554
      9 N2          3.4306    0.1256    1.0355 N.pl3     1 <0>        -0.4661
     10 C8          2.1445    0.7830    1.2803 C.3       1 <0>         0.1379
     11 C9          1.3165    0.7789   -0.0063 C.3       1 <0>        -0.1751
     12 C10        -0.0187    1.5258    0.0104 C.3       1 <0>        -0.1609
     13 C11         0.0021   -0.0041    0.0020 C.3       1 <0>        -0.1746
     14 C12         4.7332    2.1733    0.3269 C.2       1 <0>         0.0202
     15 C13         5.9368    2.9099   -0.1250 C.2       1 <0>         0.3226
     16 N3          5.4977    4.1431   -0.2190 N.2       1 <0>        -0.4110
     17 O1          4.3320    4.1813    0.0972 O.3       1 <0>         0.3360
     18 N4          3.8316    3.1279    0.4145 N.2       1 <0>        -0.3189
     19 N5          7.2091    2.4184   -0.3859 N.pl3     1 <0>        -0.8004
     20 H1          5.3276   -4.7071    1.3495 H         1 <0>         0.1331
     21 H2          2.9640   -4.4155    1.9604 H         1 <0>         0.1334
     22 H3          1.9192   -2.1938    1.8642 H         1 <0>         0.1242
     23 H4          6.6697   -2.7981    0.6337 H         1 <0>         0.1328
     24 H5          2.3168    1.8113    1.5981 H         1 <0>         0.1074
     25 H6          1.6052    0.2469    2.0611 H         1 <0>         0.0953
     26 H7          1.8888    0.7918   -0.9339 H         1 <0>         0.1063
     27 H8         -0.3248    2.0300   -0.9061 H         1 <0>         0.1009
     28 H9         -0.3072    2.0201    0.9381 H         1 <0>         0.1003
     29 H10        -0.2728   -0.5162    0.9241 H         1 <0>         0.0972
     30 H11        -0.2904   -0.5063   -0.9201 H         1 <0>         0.0978
     31 H12         7.3960    1.4731   -0.2753 H         1 <0>         0.4300
     32 H13         7.9110    3.0205   -0.6789 H         1 <0>         0.4174
@<TRIPOS>BOND
     1    1    6 ar
     2    1    2 ar
     3    1   20 1
     4    2    3 ar
     5    2   21 1
     6    3    4 ar
     7    3   22 1
     8    4    9 1
     9    4    5 ar
    10    5    6 ar
    11    5    7 1
    12    6   23 1
    13    7    8 2
    14    8    9 1
    15    8   14 1
    16    9   10 1
    17   10   11 1
    18   10   24 1
    19   10   25 1
    20   11   13 1
    21   11   12 1
    22   11   26 1
    23   12   13 1
    24   12   27 1
    25   12   28 1
    26   13   29 1
    27   13   30 1
    28   14   18 2
    29   14   15 1
    30   15   16 2
    31   15   19 1
    32   16   17 1
    33   17   18 1
    34   19   31 1
    35   19   32 1
@<TRIPOS>MOLECULE
ZINC05481799
   34    36     0     0     0
SMALL
USER_CHARGES
4-(1-isobutylbenzoimidazol-2-yl)-1,2,5-oxadiazol-3-amine
@<TRIPOS>ATOM
      1 C1         -3.5703    2.5211   -2.0788 C.3       1 <0>        -0.1529
      2 C2         -4.1971    3.7307   -1.3824 C.3       1 <0>        -0.1080
      3 C3         -5.7197    3.5804   -1.3713 C.3       1 <0>        -0.1448
      4 C4         -3.6824    3.8144    0.0560 C.3       1 <0>         0.1080
      5 N1         -2.2413    4.0776    0.0444 N.pl3     1 <0>        -0.4655
      6 C5         -1.2361    3.1321    0.0298 C.ar      1 <0>         0.0631
      7 C6         -1.2185    1.7438    0.0173 C.ar      1 <0>        -0.1092
      8 C7         -0.0126    1.0758    0.0080 C.ar      1 <0>        -0.0938
      9 C8          1.1830    1.7812    0.0003 C.ar      1 <0>        -0.1250
     10 C9          1.1866    3.1467    0.0072 C.ar      1 <0>        -0.0594
     11 C10        -0.0247    3.8471    0.0220 C.ar      1 <0>         0.0495
     12 N2         -0.3380    5.1645    0.0320 N.2       1 <0>        -0.4686
     13 C11        -1.6401    5.3074    0.0452 C.2       1 <0>         0.3541
     14 C12        -2.3539    6.6034    0.0594 C.2       1 <0>         0.0216
     15 C13        -1.7891    7.9732    0.0674 C.2       1 <0>         0.3225
     16 N3         -2.8650    8.7249    0.0766 N.2       1 <0>        -0.4107
     17 O1         -3.8479    8.0221    0.0826 O.3       1 <0>         0.3355
     18 N4         -3.6501    6.8298    0.0738 N.2       1 <0>        -0.3215
     19 N5         -0.4565    8.3635    0.0635 N.pl3     1 <0>        -0.8003
     20 H1         -3.8418    1.6120   -1.5422 H         1 <0>         0.0582
     21 H2         -3.9370    2.4614   -3.1035 H         1 <0>         0.0612
     22 H3         -2.4856    2.6282   -2.0867 H         1 <0>         0.0568
     23 H4         -3.9257    4.6398   -1.9189 H         1 <0>         0.0747
     24 H5         -6.1662    4.4421   -0.8752 H         1 <0>         0.0630
     25 H6         -6.0864    3.5207   -2.3960 H         1 <0>         0.0640
     26 H7         -5.9911    2.6712   -0.8347 H         1 <0>         0.0589
     27 H8         -3.8753    2.8708    0.5664 H         1 <0>         0.0944
     28 H9         -4.1950    4.6218    0.5789 H         1 <0>         0.1037
     29 H10        -2.1454    1.1896    0.0190 H         1 <0>         0.1247
     30 H11         0.0021   -0.0041    0.0020 H         1 <0>         0.1331
     31 H12         2.1201    1.2444   -0.0115 H         1 <0>         0.1328
     32 H13         2.1228    3.6852    0.0015 H         1 <0>         0.1324
     33 H14         0.2451    7.6937    0.0544 H         1 <0>         0.4300
     34 H15        -0.2271    9.3060    0.0698 H         1 <0>         0.4174
@<TRIPOS>BOND
     1    1    2 1
     2    1   20 1
     3    1   21 1
     4    1   22 1
     5    2    3 1
     6    2    4 1
     7    2   23 1
     8    3   24 1
     9    3   25 1
    10    3   26 1
    11    4    5 1
    12    4   27 1
    13    4   28 1
    14    5   13 1
    15    5    6 1
    16    6   11 ar
    17    6    7 ar
    18    7    8 ar
    19    7   29 1
    20    8    9 ar
    21    8   30 1
    22    9   10 ar
    23    9   31 1
    24   10   11 ar
    25   10   32 1
    26   11   12 1
    27   12   13 2
    28   13   14 1
    29   14   18 2
    30   14   15 1
    31   15   16 2
    32   15   19 1
    33   16   17 1
    34   17   18 1
    35   19   33 1
    36   19   34 1
@<TRIPOS>MOLECULE
ZINC00051756
   31    33     0     0     0
SMALL
USER_CHARGES
4-(1-isopropylbenzoimidazol-2-yl)-1,2,5-oxadiazol-3-amine
@<TRIPOS>ATOM
      1 C1         -4.0222    2.8671   -1.1033 C.3       1 <0>        -0.1639
      2 C2         -3.6697    3.7959    0.0603 C.3       1 <0>         0.1203
      3 C3         -4.0264    3.1143    1.3829 C.3       1 <0>        -0.1645
      4 N1         -2.2347    4.0892    0.0336 N.pl3     1 <0>        -0.4635
      5 C4         -1.2091    3.1711    0.1335 C.ar      1 <0>         0.0651
      6 C5         -1.1612    1.7907    0.2750 C.ar      1 <0>        -0.1110
      7 C6          0.0590    1.1536    0.3514 C.ar      1 <0>        -0.0939
      8 C7          1.2390    1.8811    0.2772 C.ar      1 <0>        -0.1255
      9 C8          1.2128    3.2387    0.1329 C.ar      1 <0>        -0.0588
     10 C9         -0.0135    3.9084    0.0583 C.ar      1 <0>         0.0486
     11 N2         -0.3554    5.2114   -0.0807 N.2       1 <0>        -0.4683
     12 C10        -1.6604    5.3250   -0.0960 C.2       1 <0>         0.3524
     13 C11        -2.4023    6.5978   -0.2324 C.2       1 <0>         0.0231
     14 C12        -1.8722    7.9810   -0.2685 C.2       1 <0>         0.3228
     15 N3         -2.9616    8.7002   -0.4043 N.2       1 <0>        -0.4098
     16 O1         -3.9248    7.9712   -0.4360 O.3       1 <0>         0.3358
     17 N4         -3.6996    6.7871   -0.3463 N.2       1 <0>        -0.3253
     18 N5         -0.5538    8.4087   -0.1829 N.pl3     1 <0>        -0.8000
     19 H1         -5.1024    2.7261   -1.1413 H         1 <0>         0.0827
     20 H2         -3.6806    3.3106   -2.0386 H         1 <0>         0.0638
     21 H3         -3.5348    1.9029   -0.9591 H         1 <0>         0.0664
     22 H4         -4.2323    4.7248   -0.0331 H         1 <0>         0.1189
     23 H5         -3.6882    3.7337    2.2136 H         1 <0>         0.0634
     24 H6         -5.1067    2.9828    1.4440 H         1 <0>         0.0827
     25 H7         -3.5385    2.1410    1.4332 H         1 <0>         0.0669
     26 H8         -2.0758    1.2190    0.3291 H         1 <0>         0.1252
     27 H9          0.0972    0.0803    0.4652 H         1 <0>         0.1331
     28 H10         2.1876    1.3679    0.3340 H         1 <0>         0.1328
     29 H11         2.1371    3.7946    0.0766 H         1 <0>         0.1325
     30 H12         0.1610    7.7603   -0.0852 H         1 <0>         0.4301
     31 H13        -0.3477    9.3558   -0.2207 H         1 <0>         0.4176
@<TRIPOS>BOND
     1    1    2 1
     2    1   19 1
     3    1   20 1
     4    1   21 1
     5    2    3 1
     6    2    4 1
     7    2   22 1
     8    3   23 1
     9    3   24 1
    10    3   25 1
    11    4   12 1
    12    4    5 1
    13    5   10 ar
    14    5    6 ar
    15    6    7 ar
    16    6   26 1
    17    7    8 ar
    18    7   27 1
    19    8    9 ar
    20    8   28 1
    21    9   10 ar
    22    9   29 1
    23   10   11 1
    24   11   12 2
    25   12   13 1
    26   13   17 2
    27   13   14 1
    28   14   15 2
    29   14   18 1
    30   15   16 1
    31   16   17 1
    32   18   30 1
    33   18   31 1
@<TRIPOS>MOLECULE
ZINC00051756
   32    34     0     0     0
SMALL
USER_CHARGES
4-(1-isopropylbenzoimidazol-2-yl)-1,2,5-oxadiazol-3-amine
@<TRIPOS>ATOM
      1 C1         -4.0222    2.8671   -1.1033 C.3       1 <0>        -0.1707
      2 C2         -3.6697    3.7959    0.0603 C.3       1 <0>         0.1095
      3 C3         -4.0264    3.1143    1.3829 C.3       1 <0>        -0.1713
      4 N1         -2.2347    4.0892    0.0336 N.pl3     1 <0>        -0.3973
      5 C4         -1.2091    3.1711    0.1335 C.ar      1 <0>         0.0881
      6 C5         -1.1612    1.7907    0.2750 C.ar      1 <0>        -0.0874
      7 C6          0.0590    1.1536    0.3514 C.ar      1 <0>        -0.0618
      8 C7          1.2390    1.8811    0.2772 C.ar      1 <0>        -0.0724
      9 C8          1.2128    3.2387    0.1329 C.ar      1 <0>        -0.0778
     10 C9         -0.0135    3.9084    0.0583 C.ar      1 <0>         0.0592
     11 C10        -1.6604    5.3250   -0.0960 C.cat     1 <0>         0.4697
     12 C11        -2.4023    6.5978   -0.2324 C.2       1 <0>        -0.0548
     13 C12        -1.8722    7.9810   -0.2685 C.2       1 <0>         0.3255
     14 N2         -2.9616    8.7002   -0.4043 N.2       1 <0>        -0.3698
     15 O1         -3.9248    7.9712   -0.4360 O.3       1 <0>         0.3963
     16 N3         -3.6996    6.7871   -0.3463 N.2       1 <0>        -0.2820
     17 N4         -0.5538    8.4087   -0.1829 N.pl3     1 <0>        -0.7998
     18 H1         -5.1024    2.7261   -1.1413 H         1 <0>         0.1050
     19 H2         -3.6806    3.3106   -2.0386 H         1 <0>         0.0726
     20 H3         -3.5348    1.9029   -0.9591 H         1 <0>         0.0760
     21 H4         -4.2323    4.7248   -0.0331 H         1 <0>         0.1355
     22 H5         -3.6882    3.7337    2.2136 H         1 <0>         0.0722
     23 H6         -5.1067    2.9828    1.4440 H         1 <0>         0.1050
     24 H7         -3.5385    2.1410    1.4332 H         1 <0>         0.0763
     25 H8         -2.0758    1.2190    0.3291 H         1 <0>         0.1543
     26 H9          0.0972    0.0803    0.4652 H         1 <0>         0.1602
     27 H10         2.1876    1.3679    0.3340 H         1 <0>         0.1603
     28 H11         2.1371    3.7946    0.0766 H         1 <0>         0.1560
     29 H12         0.1610    7.7603   -0.0852 H         1 <0>         0.4102
     30 H13        -0.3477    9.3558   -0.2207 H         1 <0>         0.4376
     31 N5         -0.3547    5.2122   -0.0808 N.pl3     1 <0>        -0.4902
     32 H14         0.3080    5.9923   -0.1618 H         1 <0>         0.4658
@<TRIPOS>BOND
     1    1    2 1
     2    1   18 1
     3    1   19 1
     4    1   20 1
     5    2    3 1
     6    2    4 1
     7    2   21 1
     8    3   22 1
     9    3   23 1
    10    3   24 1
    11    4   11 1
    12    4    5 1
    13    5   10 ar
    14    5    6 ar
    15    6    7 ar
    16    6   25 1
    17    7    8 ar
    18    7   26 1
    19    8    9 ar
    20    8   27 1
    21    9   10 ar
    22    9   28 1
    23   10   31 1
    24   11   12 1
    25   11   31 2
    26   12   16 2
    27   12   13 1
    28   13   14 2
    29   13   17 1
    30   14   15 1
    31   15   16 1
    32   17   29 1
    33   17   30 1
    34   31   32 1
@<TRIPOS>MOLECULE
ZINC34321506
   29    32     0     0     0
SMALL
USER_CHARGES

@<TRIPOS>ATOM
      1 C1          0.0052    1.3502    0.3676 C.ar      1 <0>        -0.1235
      2 C2          1.1659    2.0806    0.1520 C.ar      1 <0>        -0.0885
      3 C3          2.3670    1.4381   -0.0601 C.ar      1 <0>        -0.1100
      4 C4          2.4151    0.0505   -0.0580 C.ar      1 <0>         0.0685
      5 C5          1.2390   -0.6897    0.1604 C.ar      1 <0>         0.0485
      6 C6          0.0318   -0.0150    0.3734 C.ar      1 <0>        -0.0562
      7 N1          1.5762   -2.0003    0.1091 N.2       1 <0>        -0.4578
      8 C7          2.8605   -2.1158   -0.1224 C.2       1 <0>         0.3252
      9 N2          3.4248   -0.8737   -0.2339 N.pl3     1 <0>        -0.4399
     10 C8          4.8367   -0.5803   -0.4920 C.3       1 <0>         0.0458
     11 C9          5.1563    0.4807   -1.5471 C.3       1 <0>        -0.1650
     12 C10         5.4085   -0.9980   -1.8483 C.3       1 <0>        -0.1529
     13 C11         3.5913   -3.3965   -0.2443 C.2       1 <0>         0.1351
     14 C12         2.9884   -4.7353   -0.2398 C.2       1 <0>         0.3630
     15 N3          3.9431   -5.6151   -0.3673 N.2       1 <0>        -0.3532
     16 O1          5.1718   -4.9161   -0.4578 O.3       1 <0>         0.0382
     17 N4          4.8854   -3.5309   -0.3804 N.2       1 <0>        -0.2407
     18 N5          1.6338   -5.0167   -0.1200 N.pl3     1 <0>        -0.8023
     19 H1         -0.9278    1.8673    0.5369 H         1 <0>         0.1352
     20 H2          1.1276    3.1599    0.1502 H         1 <0>         0.1355
     21 H3          3.2667    2.0117   -0.2276 H         1 <0>         0.1283
     22 H4         -0.8773   -0.5730    0.5425 H         1 <0>         0.1354
     23 H5          5.4961   -0.6445    0.3735 H         1 <0>         0.1403
     24 H6          4.3161    0.9604   -2.0491 H         1 <0>         0.1057
     25 H7          6.0261    1.1149   -1.3757 H         1 <0>         0.1182
     26 H8          6.4443   -1.3367   -1.8751 H         1 <0>         0.1197
     27 H9          4.7342   -1.4912   -2.5485 H         1 <0>         0.0986
     28 H10         0.9943   -4.2931   -0.0289 H         1 <0>         0.4307
     29 H11         1.3272   -5.9370   -0.1273 H         1 <0>         0.4179
@<TRIPOS>BOND
     1    1    6 ar
     2    1    2 ar
     3    1   19 1
     4    2    3 ar
     5    2   20 1
     6    3    4 ar
     7    3   21 1
     8    4    9 1
     9    4    5 ar
    10    5    6 ar
    11    5    7 1
    12    6   22 1
    13    7    8 2
    14    8    9 1
    15    8   13 1
    16    9   10 1
    17   10   12 1
    18   10   11 1
    19   10   23 1
    20   11   12 1
    21   11   24 1
    22   11   25 1
    23   12   26 1
    24   12   27 1
    25   13   17 2
    26   13   14 1
    27   14   15 2
    28   14   18 1
    29   15   16 1
    30   16   17 1
    31   18   28 1
    32   18   29 1
@<TRIPOS>MOLECULE
ZINC43178353
   52    55     0     0     0
SMALL
USER_CHARGES

@<TRIPOS>ATOM
      1 C1          0.7202   -3.1310   -2.6806 C.3       1 <0>        -0.1540
      2 C2         -0.3986   -3.1799   -3.7231 C.3       1 <0>        -0.0409
      3 C3         -1.7325   -3.2513   -3.0254 C.2       1 <0>        -0.1517
      4 C4         -2.4141   -4.3656   -2.7132 C.2       1 <0>         0.0741
      5 N1         -3.5858   -4.0326   -2.0841 N.pl3     1 <0>        -0.5679
      6 H1         -4.2451   -4.6679   -1.7636 H         1 <0>         0.4298
      7 C5         -3.6885   -2.6731   -1.9744 C.ar      1 <0>         0.3263
      8 C6         -2.5303   -2.1214   -2.5528 C.ar      1 <0>        -0.1938
      9 C7         -2.3831   -0.7262   -2.5647 C.ar      1 <0>         0.4782
     10 N2         -3.3461    0.0146   -2.0240 N.ar      1 <0>        -0.5412
     11 C8         -4.4159   -0.5449   -1.4882 C.ar      1 <0>         0.3335
     12 N3         -4.5996   -1.8473   -1.4623 N.ar      1 <0>        -0.5214
     13 N4         -1.2642   -0.1360   -3.1244 N.pl3     1 <0>        -0.6552
     14 C9         -0.0473    0.2632   -2.3942 C.3       1 <0>         0.1354
     15 C10         1.0732    0.2684   -3.4639 C.3       1 <0>        -0.1473
     16 C11         0.3160    0.8091   -4.7055 C.3       1 <0>         0.0299
     17 C12        -1.0891    0.1912   -4.5470 C.3       1 <0>         0.1338
     18 C13         0.2477    2.3372   -4.6748 C.3       1 <0>         0.1157
     19 N5          1.5959    2.8895   -4.8274 N.am      1 <0>        -0.7500
     20 C14         1.7810    4.2245   -4.8298 C.2       1 <0>         0.5718
     21 O1          0.8290    4.9705   -4.7052 O.2       1 <0>        -0.4908
     22 C15         3.1391    4.7809   -4.9836 C.ar      1 <0>        -0.2021
     23 C16         4.2347    3.9264   -5.1327 C.ar      1 <0>        -0.0306
     24 C17         5.5002    4.4509   -5.2758 C.ar      1 <0>        -0.1714
     25 C18         5.6904    5.8254   -5.2723 C.ar      1 <0>         0.1752
     26 C19         4.6102    6.6796   -5.1251 C.ar      1 <0>        -0.1995
     27 C20         3.3346    6.1662   -4.9864 C.ar      1 <0>         0.2025
     28 F1          2.2802    6.9995   -4.8484 F         1 <0>        -0.0998
     29 F2          6.9346    6.3326   -5.4128 F         1 <0>        -0.1149
     30 N6          0.9496    0.3405   -5.9453 N.4       1 <0>        -0.6284
     31 H2          1.6763   -2.9762   -3.1807 H         1 <0>         0.0545
     32 H3          0.5355   -2.3101   -1.9877 H         1 <0>         0.0567
     33 H4          0.7459   -4.0718   -2.1308 H         1 <0>         0.0621
     34 H5         -0.3592   -2.2826   -4.3407 H         1 <0>         0.0562
     35 H6         -0.2703   -4.0603   -4.3528 H         1 <0>         0.0744
     36 H7         -2.0880   -5.3730   -2.9258 H         1 <0>         0.1855
     37 H8         -5.1744    0.0935   -1.0598 H         1 <0>         0.2071
     38 H9         -0.1699    1.2590   -1.9684 H         1 <0>         0.0754
     39 H10         0.1794   -0.4600   -1.6108 H         1 <0>         0.0899
     40 H11         1.8834    0.9390   -3.1777 H         1 <0>         0.1146
     41 H12         1.4473   -0.7397   -3.6427 H         1 <0>         0.1082
     42 H13        -1.1678   -0.7146   -5.1482 H         1 <0>         0.0814
     43 H14        -1.8459    0.9116   -4.8575 H         1 <0>         0.0933
     44 H15        -0.3837    2.6892   -5.4907 H         1 <0>         0.1049
     45 H16        -0.1729    2.6630   -3.7234 H         1 <0>         0.1238
     46 H17         2.3555    2.2944   -4.9268 H         1 <0>         0.3926
     47 H18         4.0894    2.8562   -5.1353 H         1 <0>         0.1393
     48 H19         6.3470    3.7905   -5.3907 H         1 <0>         0.1551
     49 H20         4.7644    7.7486   -5.1228 H         1 <0>         0.1637
     50 H21         0.9579   -0.6683   -5.9583 H         1 <0>         0.4405
     51 H22         0.4291    0.6828   -6.7391 H         1 <0>         0.4422
     52 H23         1.8968    0.6854   -5.9901 H         1 <0>         0.4335
@<TRIPOS>BOND
     1    1    2 1
     2    1   31 1
     3    1   32 1
     4    1   33 1
     5    2    3 1
     6    2   34 1
     7    2   35 1
     8    3    8 1
     9    3    4 2
    10    4    5 1
    11    4   36 1
    12    5    6 1
    13    5    7 1
    14    7   12 ar
    15    7    8 ar
    16    8    9 ar
    17    9   10 ar
    18    9   13 1
    19   10   11 ar
    20   11   12 ar
    21   11   37 1
    22   13   17 1
    23   13   14 1
    24   14   15 1
    25   14   38 1
    26   14   39 1
    27   15   16 1
    28   15   40 1
    29   15   41 1
    30   16   17 1
    31   16   18 1
    32   16   30 1
    33   17   42 1
    34   17   43 1
    35   18   19 1
    36   18   44 1
    37   18   45 1
    38   19   20 am
    39   19   46 1
    40   20   21 2
    41   20   22 1
    42   22   27 ar
    43   22   23 ar
    44   23   24 ar
    45   23   47 1
    46   24   25 ar
    47   24   48 1
    48   25   26 ar
    49   25   29 1
    50   26   27 ar
    51   26   49 1
    52   27   28 1
    53   30   50 1
    54   30   51 1
    55   30   52 1
@<TRIPOS>MOLECULE
ZINC03814434
   62    69     0     0     0
SMALL
USER_CHARGES

@<TRIPOS>ATOM
      1 C1         -0.1295    1.5952   -0.2973 C.3       1 <0>        -0.1687
      2 C2         -0.0862    0.0696   -0.1900 C.3       1 <0>         0.3342
      3 C3          0.5692   -0.4501   -1.4637 C.3       1 <0>         0.0405
      4 H1          1.4796    0.1159   -1.6612 H         1 <0>         0.1372
      5 C4          0.9167   -1.9328   -1.2889 C.3       1 <0>        -0.0061
      6 H2          1.3963   -2.3075   -2.1932 H         1 <0>         0.1555
      7 C5          1.8785   -2.0596   -0.1021 C.3       1 <0>        -0.1827
      8 C6          1.2061   -1.5198    1.1541 C.3       1 <0>         0.2999
      9 H3          1.9797   -1.4243    1.9161 H         1 <0>         0.1550
     10 O1          0.6555   -0.2442    0.9666 O.3       1 <0>        -0.3234
     11 N1          0.2189   -2.4746    1.6600 N.pl3     1 <0>        -0.5366
     12 C7          0.4705   -3.5508    2.4739 C.ar      1 <0>         0.1469
     13 C8          1.6649   -4.0152    3.0240 C.ar      1 <0>        -0.1522
     14 C9          1.5948   -5.1456    3.8201 C.ar      1 <0>        -0.0582
     15 C10         0.4006   -5.7997    4.0696 C.ar      1 <0>        -0.1457
     16 C11        -0.7984   -5.3597    3.5358 C.ar      1 <0>        -0.0280
     17 C12        -0.7487   -4.2198    2.7307 C.ar      1 <0>        -0.1131
     18 C13        -1.7893   -3.4830    2.0197 C.ar      1 <0>         0.0276
     19 C14        -1.1442   -2.4197    1.3841 C.ar      1 <0>         0.0376
     20 C15        -1.8806   -1.5095    0.6175 C.ar      1 <0>         0.0894
     21 N2         -1.4718   -0.3951   -0.1095 N.pl3     1 <0>        -0.5183
     22 C16        -2.5611    0.1913   -0.7090 C.ar      1 <0>         0.1618
     23 C17        -2.6521    1.3277   -1.5118 C.ar      1 <0>        -0.1305
     24 C18        -3.9109    1.6745   -1.9733 C.ar      1 <0>        -0.0737
     25 C19        -5.0393    0.9368   -1.6616 C.ar      1 <0>        -0.1358
     26 C20        -4.9745   -0.1955   -0.8662 C.ar      1 <0>        -0.0503
     27 C21        -3.7147   -0.5596   -0.3919 C.ar      1 <0>        -0.1042
     28 C22        -3.2693   -1.6660    0.4845 C.ar      1 <0>        -0.0360
     29 C23        -3.9084   -2.7313    1.1102 C.ar      1 <0>        -0.0288
     30 C24        -3.1873   -3.6421    1.8754 C.ar      1 <0>        -0.1255
     31 C25        -4.1221   -4.6480    2.4030 C.2       1 <0>         0.5632
     32 O2         -3.8062   -5.5851    3.1110 O.2       1 <0>        -0.5106
     33 N3         -5.3744   -4.3851    1.9926 N.am      1 <0>        -0.7162
     34 C26        -5.3495   -3.1771    1.1601 C.3       1 <0>         0.1358
     35 N4         -0.3067   -2.7008   -1.0216 N.4       1 <0>        -0.5252
     36 C27         0.0145   -4.1336   -0.9773 C.3       1 <0>        -0.0497
     37 O3         -0.3340   -0.2979   -2.5607 O.3       1 <0>        -0.3614
     38 C28         0.3101   -0.0933   -3.8198 C.3       1 <0>         0.0162
     39 H4          0.8261    2.0094    0.0240 H         1 <0>         0.0984
     40 H5         -0.3202    1.8814   -1.3317 H         1 <0>         0.1036
     41 H6         -0.9255    1.9818    0.3392 H         1 <0>         0.0921
     42 H7          2.1370   -3.1081    0.0458 H         1 <0>         0.1233
     43 H8          2.7835   -1.4869   -0.3048 H         1 <0>         0.1455
     44 H9          2.6036   -3.5149    2.8368 H         1 <0>         0.1365
     45 H10         2.5026   -5.5304    4.2610 H         1 <0>         0.1359
     46 H11         0.4045   -6.6780    4.6980 H         1 <0>         0.1352
     47 H12        -1.7278   -5.8736    3.7323 H         1 <0>         0.1600
     48 H13        -1.7792    1.9122   -1.7624 H         1 <0>         0.1440
     49 H14        -4.0153    2.5500   -2.5970 H         1 <0>         0.1336
     50 H15        -5.9967    1.2527   -2.0488 H         1 <0>         0.1332
     51 H16        -5.8575   -0.7687   -0.6249 H         1 <0>         0.1415
     52 H17        -6.1628   -4.9065    2.2103 H         1 <0>         0.4348
     53 H18        -5.9671   -2.3994    1.6094 H         1 <0>         0.1115
     54 H19        -5.7060   -3.4063    0.1559 H         1 <0>         0.1103
     55 H20        -0.6958   -2.4158   -0.1353 H         1 <0>         0.4186
     56 H21         0.4349   -4.4415   -1.9347 H         1 <0>         0.1256
     57 H22         0.7403   -4.3189   -0.1854 H         1 <0>         0.1191
     58 H23        -0.8932   -4.7035   -0.7789 H         1 <0>         0.1256
     59 H24         0.9168    0.8112   -3.7748 H         1 <0>         0.0633
     60 H25         0.9482   -0.9479   -4.0446 H         1 <0>         0.0514
     61 H26        -0.4433    0.0130   -4.6003 H         1 <0>         0.1100
     62 H27        -0.9785   -2.5293   -1.7546 H         1 <0>         0.4274
@<TRIPOS>BOND
     1    1    2 1
     2    1   39 1
     3    1   40 1
     4    1   41 1
     5    2   10 1
     6    2   21 1
     7    2    3 1
     8    3    4 1
     9    3    5 1
    10    3   37 1
    11    5    6 1
    12    5    7 1
    13    5   35 1
    14    7    8 1
    15    7   42 1
    16    7   43 1
    17    8    9 1
    18    8   10 1
    19    8   11 1
    20   11   19 1
    21   11   12 1
    22   12   17 ar
    23   12   13 ar
    24   13   14 ar
    25   13   44 1
    26   14   15 ar
    27   14   45 1
    28   15   16 ar
    29   15   46 1
    30   16   17 ar
    31   16   47 1
    32   17   18 1
    33   18   30 ar
    34   18   19 ar
    35   19   20 ar
    36   20   28 ar
    37   20   21 1
    38   21   22 1
    39   22   27 ar
    40   22   23 ar
    41   23   24 ar
    42   23   48 1
    43   24   25 ar
    44   24   49 1
    45   25   26 ar
    46   25   50 1
    47   26   27 ar
    48   26   51 1
    49   27   28 1
    50   28   29 ar
    51   29   34 1
    52   29   30 ar
    53   30   31 1
    54   31   32 2
    55   31   33 am
    56   33   34 1
    57   33   52 1
    58   34   53 1
    59   34   54 1
    60   35   36 1
    61   35   55 1
    62   35   62 1
    63   36   56 1
    64   36   57 1
    65   36   58 1
    66   37   38 1
    67   38   59 1
    68   38   60 1
    69   38   61 1
@<TRIPOS>MOLECULE
ZINC13998530
   48    51     0     0     0
SMALL
USER_CHARGES
N-[[2-(4-amino-1,2,5-oxadiazol-3-yl)-1-ethyl-imidazo[5,4-d]pyridin-7-yl]methyl]piperidin-4-amine
@<TRIPOS>ATOM
      1 C1          1.5587    0.3111   -0.1080 C.3       1 <0>        -0.1729
      2 C2          0.2652    1.0542   -0.4478 C.3       1 <0>         0.0990
      3 N1         -0.4854    1.3157    0.7828 N.pl3     1 <0>        -0.4686
      4 C3         -0.4224    2.4543    1.5497 C.ar      1 <0>         0.0959
      5 C4          0.2805    3.6520    1.4788 C.ar      1 <0>        -0.1364
      6 C5          0.0830    4.5977    2.4615 C.ar      1 <0>         0.1287
      7 N2         -0.7570    4.3848    3.4610 N.ar      1 <0>        -0.4799
      8 C6         -1.4527    3.2734    3.5731 C.ar      1 <0>         0.1941
      9 C7         -1.3129    2.2569    2.6252 C.ar      1 <0>         0.0004
     10 N3         -1.8585    1.0289    2.4690 N.2       1 <0>        -0.4499
     11 C8         -1.3766    0.4683    1.3870 C.2       1 <0>         0.3728
     12 C9         -1.7401   -0.8779    0.8921 C.2       1 <0>         0.0023
     13 C10        -2.6825   -1.8587    1.4795 C.2       1 <0>         0.3357
     14 N4         -2.6148   -2.8606    0.6343 N.2       1 <0>        -0.4153
     15 O1         -1.8331   -2.5921   -0.2473 O.3       1 <0>         0.3396
     16 N5         -1.3034   -1.5081   -0.1774 N.2       1 <0>        -0.3271
     17 N6         -3.4473   -1.7455    2.6331 N.pl3     1 <0>        -0.8250
     18 C11         1.2410    3.9115    0.3469 C.3       1 <0>         0.0915
     19 N7          0.4927    4.3449   -0.8406 N.3       1 <0>        -0.6619
     20 C12         1.3822    4.4840   -2.0015 C.3       1 <0>         0.0601
     21 C13         2.0249    5.8738   -1.9900 C.3       1 <0>        -0.1386
     22 C14         2.9024    6.0349   -3.2334 C.3       1 <0>        -0.0005
     23 N8          2.0812    5.8656   -4.4389 N.4       1 <0>        -0.5357
     24 C15         1.4918    4.5218   -4.4955 C.3       1 <0>         0.0005
     25 C16         0.5721    4.3156   -3.2899 C.3       1 <0>        -0.1532
     26 H1          2.1223    0.1147   -1.0320 H         1 <0>         0.0835
     27 H2          1.3154   -0.6428    0.3829 H         1 <0>         0.0718
     28 H3          2.1683    0.9271    0.5695 H         1 <0>         0.0631
     29 H4          0.5085    2.0081   -0.9386 H         1 <0>         0.0828
     30 H5         -0.3444    0.4382   -1.1253 H         1 <0>         0.1085
     31 H6          0.6248    5.5308    2.4149 H         1 <0>         0.1643
     32 H7         -2.1261    3.1422    4.4072 H         1 <0>         0.1735
     33 H8         -4.1062   -2.5714    2.9394 H         1 <0>         0.4441
     34 H9         -3.3942   -0.8300    3.2405 H         1 <0>         0.4554
     35 H10         1.9502    4.6992    0.6411 H         1 <0>         0.0956
     36 H11         1.7932    2.9887    0.1157 H         1 <0>         0.0477
     37 H12        -0.2824    3.6011   -1.0772 H         1 <0>         0.3446
     38 H13         2.1485    3.6993   -1.9174 H         1 <0>         0.0618
     39 H14         1.2375    6.6419   -1.9927 H         1 <0>         0.0991
     40 H15         2.6423    5.9848   -1.0864 H         1 <0>         0.1091
     41 H16         3.3541    7.0379   -3.2359 H         1 <0>         0.1357
     42 H17         3.6974    5.2747   -3.2221 H         1 <0>         0.1252
     43 H18         1.2675    6.6058   -4.4351 H         1 <0>         0.4517
     44 H19         0.9095    4.4156   -5.4227 H         1 <0>         0.1362
     45 H20         2.2934    3.7687   -4.4776 H         1 <0>         0.1264
     46 H21         0.1423    3.3036   -3.3232 H         1 <0>         0.1068
     47 H22        -0.2383    5.0590   -3.3133 H         1 <0>         0.1012
     48 H23         2.7063    6.0125   -5.3320 H         1 <0>         0.4559
@<TRIPOS>BOND
     1    1    2 1
     2    1   26 1
     3    1   27 1
     4    1   28 1
     5    2    3 1
     6    2   29 1
     7    2   30 1
     8    3   11 1
     9    3    4 1
    10    4    9 ar
    11    4    5 ar
    12    5    6 ar
    13    5   18 1
    14    6    7 ar
    15    6   31 1
    16    7    8 ar
    17    8    9 ar
    18    8   32 1
    19    9   10 1
    20   10   11 2
    21   11   12 1
    22   12   16 2
    23   12   13 1
    24   13   14 2
    25   13   17 1
    26   14   15 1
    27   15   16 1
    28   17   33 1
    29   17   34 1
    30   18   19 1
    31   18   35 1
    32   18   36 1
    33   19   20 1
    34   19   37 1
    35   20   25 1
    36   20   21 1
    37   20   38 1
    38   21   22 1
    39   21   39 1
    40   21   40 1
    41   22   23 1
    42   22   41 1
    43   22   42 1
    44   23   24 1
    45   23   43 1
    46   23   48 1
    47   24   25 1
    48   24   44 1
    49   24   45 1
    50   25   46 1
    51   25   47 1
@<TRIPOS>MOLECULE
ZINC13998530
   50    53     0     0     0
SMALL
USER_CHARGES
N-[[2-(4-amino-1,2,5-oxadiazol-3-yl)-1-ethyl-imidazo[5,4-d]pyridin-7-yl]methyl]piperidin-4-amine
@<TRIPOS>ATOM
      1 C1          1.5587    0.3111   -0.1080 C.3       1 <0>        -0.1879
      2 C2          0.2652    1.0542   -0.4478 C.3       1 <0>         0.0907
      3 N1         -0.4854    1.3157    0.7828 N.pl3     1 <0>        -0.4320
      4 C3         -0.4224    2.4543    1.5497 C.ar      1 <0>         0.1403
      5 C4          0.2805    3.6520    1.4788 C.ar      1 <0>        -0.2050
      6 C5          0.0830    4.5977    2.4615 C.ar      1 <0>         0.2011
      7 N2         -0.7570    4.3848    3.4610 N.ar      1 <0>        -0.4354
      8 C6         -1.4527    3.2734    3.5731 C.ar      1 <0>         0.2433
      9 C7         -1.3129    2.2569    2.6252 C.ar      1 <0>         0.0004
     10 C8         -1.3766    0.4683    1.3870 C.cat     1 <0>         0.5282
     11 C9         -1.7401   -0.8779    0.8921 C.2       1 <0>        -0.0864
     12 C10        -2.6825   -1.8587    1.4795 C.2       1 <0>         0.3373
     13 N3         -2.6148   -2.8606    0.6343 N.2       1 <0>        -0.3540
     14 O1         -1.8331   -2.5921   -0.2473 O.3       1 <0>         0.4261
     15 N4         -1.3034   -1.5081   -0.1774 N.2       1 <0>        -0.2841
     16 N5         -3.4473   -1.7455    2.6331 N.pl3     1 <0>        -0.7914
     17 C11         1.2410    3.9115    0.3469 C.3       1 <0>         0.0409
     18 C12         1.3822    4.4840   -2.0015 C.3       1 <0>         0.0090
     19 C13         2.0249    5.8738   -1.9900 C.3       1 <0>        -0.1710
     20 C14         2.9024    6.0349   -3.2334 C.3       1 <0>         0.0014
     21 C15         1.4918    4.5218   -4.4955 C.3       1 <0>         0.0029
     22 C16         0.5721    4.3156   -3.2899 C.3       1 <0>        -0.1754
     23 H1          2.1915    0.9474    0.5107 H         1 <0>         0.0766
     24 H2          1.3205   -0.6031    0.4356 H         1 <0>         0.0880
     25 H3          2.0858    0.0597   -1.0284 H         1 <0>         0.1156
     26 H4          0.5062    1.9994   -0.9342 H         1 <0>         0.0840
     27 H5         -0.3389    0.4438   -1.1190 H         1 <0>         0.1418
     28 H6          0.6248    5.5308    2.4149 H         1 <0>         0.2015
     29 H7         -2.1261    3.1422    4.4072 H         1 <0>         0.2090
     30 H8         -3.4005   -0.9382    3.1687 H         1 <0>         0.4102
     31 H9         -4.0283   -2.4737    2.9032 H         1 <0>         0.4460
     32 H10         1.9437    4.6920    0.6384 H         1 <0>         0.1710
     33 H11         1.7882    2.9970    0.1179 H         1 <0>         0.1475
     34 H12         2.1599    3.7216   -1.9579 H         1 <0>         0.1609
     35 H13         1.2451    6.6354   -1.9938 H         1 <0>         0.1184
     36 H14         2.6377    5.9839   -1.0953 H         1 <0>         0.1392
     37 H15         3.6903    5.2817   -3.2219 H         1 <0>         0.1457
     38 H16         3.3501    7.0287   -3.2354 H         1 <0>         0.1589
     39 H17         2.2862    3.7758   -4.4782 H         1 <0>         0.1457
     40 H18         0.9150    4.4169   -5.4145 H         1 <0>         0.1578
     41 H19         0.1469    3.3125   -3.3239 H         1 <0>         0.1333
     42 H20        -0.2310    5.0522   -3.3137 H         1 <0>         0.1182
     43 N6          0.4822    4.3468   -0.8408 N.4       1 <0>        -0.5258
     44 H21         0.0394    5.2526   -0.6466 H         1 <0>         0.4455
     45 H22        -0.2418    3.6507   -1.0540 H         1 <0>         0.4274
     46 N7          2.0795    5.8742   -4.4473 N.4       1 <0>        -0.5237
     47 H23         2.6682    6.0169   -5.2763 H         1 <0>         0.4578
     48 H24         1.3252    6.5707   -4.4392 H         1 <0>         0.4401
     49 N8         -1.8590    1.0286    2.4695 N.pl3     1 <0>        -0.4723
     50 H25        -2.5457    0.6011    3.1020 H         1 <0>         0.4828
@<TRIPOS>BOND
     1    1    2 1
     2    1   23 1
     3    1   24 1
     4    1   25 1
     5    2    3 1
     6    2   26 1
     7    2   27 1
     8    3   10 1
     9    3    4 1
    10    4    9 ar
    11    4    5 ar
    12    5    6 ar
    13    5   17 1
    14    6    7 ar
    15    6   28 1
    16    7    8 ar
    17    8    9 ar
    18    8   29 1
    19    9   49 1
    20   10   11 1
    21   10   49 2
    22   11   15 2
    23   11   12 1
    24   12   13 2
    25   12   16 1
    26   13   14 1
    27   14   15 1
    28   16   30 1
    29   16   31 1
    30   17   32 1
    31   17   33 1
    32   17   43 1
    33   18   22 1
    34   18   19 1
    35   18   34 1
    36   18   43 1
    37   19   20 1
    38   19   35 1
    39   19   36 1
    40   20   37 1
    41   20   38 1
    42   20   46 1
    43   21   22 1
    44   21   39 1
    45   21   40 1
    46   21   46 1
    47   22   41 1
    48   22   42 1
    49   43   44 1
    50   43   45 1
    51   46   47 1
    52   46   48 1
    53   49   50 1
@<TRIPOS>MOLECULE
ZINC13998530
   48    51     0     0     0
SMALL
USER_CHARGES
N-[[2-(4-amino-1,2,5-oxadiazol-3-yl)-1-ethyl-imidazo[5,4-d]pyridin-7-yl]methyl]piperidin-4-amine
@<TRIPOS>ATOM
      1 C1          1.5587    0.3111   -0.1080 C.3       1 <0>        -0.1786
      2 C2          0.2652    1.0542   -0.4478 C.3       1 <0>         0.0984
      3 N1         -0.4854    1.3157    0.7828 N.pl3     1 <0>        -0.4740
      4 C3         -0.4224    2.4543    1.5497 C.ar      1 <0>         0.0984
      5 C4          0.2805    3.6520    1.4788 C.ar      1 <0>        -0.2089
      6 C5          0.0830    4.5977    2.4615 C.ar      1 <0>         0.1545
      7 N2         -0.7570    4.3848    3.4610 N.ar      1 <0>        -0.4785
      8 C6         -1.4527    3.2734    3.5731 C.ar      1 <0>         0.2265
      9 C7         -1.3129    2.2569    2.6252 C.ar      1 <0>         0.0045
     10 N3         -1.8585    1.0289    2.4690 N.2       1 <0>        -0.4438
     11 C8         -1.3766    0.4683    1.3870 C.2       1 <0>         0.3923
     12 C9         -1.7401   -0.8779    0.8921 C.2       1 <0>        -0.0123
     13 C10        -2.6825   -1.8587    1.4795 C.2       1 <0>         0.3390
     14 N4         -2.6148   -2.8606    0.6343 N.2       1 <0>        -0.4099
     15 O1         -1.8331   -2.5921   -0.2473 O.3       1 <0>         0.3511
     16 N5         -1.3034   -1.5081   -0.1774 N.2       1 <0>        -0.3239
     17 N6         -3.4473   -1.7455    2.6331 N.pl3     1 <0>        -0.8239
     18 C11         1.2410    3.9115    0.3469 C.3       1 <0>         0.0492
     19 N7          0.4927    4.3449   -0.8406 N.4       1 <0>        -0.5443
     20 C12         1.3822    4.4840   -2.0015 C.3       1 <0>         0.0286
     21 C13         2.0249    5.8738   -1.9900 C.3       1 <0>        -0.1779
     22 C14         2.9024    6.0349   -3.2334 C.3       1 <0>         0.0501
     23 N8          2.0812    5.8656   -4.4389 N.3       1 <0>        -0.6639
     24 C15         1.4918    4.5218   -4.4955 C.3       1 <0>         0.0503
     25 C16         0.5721    4.3156   -3.2899 C.3       1 <0>        -0.1817
     26 H1          2.1223    0.1147   -1.0320 H         1 <0>         0.0939
     27 H2          1.3154   -0.6428    0.3829 H         1 <0>         0.0792
     28 H3          2.1683    0.9271    0.5695 H         1 <0>         0.0650
     29 H4          0.5085    2.0081   -0.9386 H         1 <0>         0.0660
     30 H5         -0.3444    0.4382   -1.1253 H         1 <0>         0.1214
     31 H6          0.6248    5.5308    2.4149 H         1 <0>         0.1741
     32 H7         -2.1261    3.1422    4.4072 H         1 <0>         0.1835
     33 H8         -4.1062   -2.5714    2.9394 H         1 <0>         0.4473
     34 H9         -3.3942   -0.8300    3.2405 H         1 <0>         0.4545
     35 H10         1.9502    4.6992    0.6411 H         1 <0>         0.1484
     36 H11         1.7932    2.9887    0.1157 H         1 <0>         0.1304
     37 H12        -0.2824    3.6011   -1.0772 H         1 <0>         0.4360
     38 H13         2.1485    3.6993   -1.9174 H         1 <0>         0.1334
     39 H14         1.2375    6.6419   -1.9927 H         1 <0>         0.0911
     40 H15         2.6423    5.9848   -1.0864 H         1 <0>         0.0950
     41 H16         3.3541    7.0379   -3.2359 H         1 <0>         0.1018
     42 H17         3.6974    5.2747   -3.2221 H         1 <0>         0.0861
     43 H18         0.9095    4.4156   -5.4227 H         1 <0>         0.1017
     44 H19         2.2934    3.7687   -4.4776 H         1 <0>         0.0861
     45 H20         0.1423    3.3036   -3.3232 H         1 <0>         0.0920
     46 H21        -0.2383    5.0590   -3.3133 H         1 <0>         0.0912
     47 H22         1.2675    6.6058   -4.4351 H         1 <0>         0.3507
     48 H23         0.0189    5.3173   -0.6407 H         1 <0>         0.4498
@<TRIPOS>BOND
     1    1    2 1
     2    1   26 1
     3    1   27 1
     4    1   28 1
     5    2    3 1
     6    2   29 1
     7    2   30 1
     8    3   11 1
     9    3    4 1
    10    4    9 ar
    11    4    5 ar
    12    5    6 ar
    13    5   18 1
    14    6    7 ar
    15    6   31 1
    16    7    8 ar
    17    8    9 ar
    18    8   32 1
    19    9   10 1
    20   10   11 2
    21   11   12 1
    22   12   16 2
    23   12   13 1
    24   13   14 2
    25   13   17 1
    26   14   15 1
    27   15   16 1
    28   17   33 1
    29   17   34 1
    30   18   19 1
    31   18   35 1
    32   18   36 1
    33   19   20 1
    34   19   37 1
    35   19   48 1
    36   20   25 1
    37   20   21 1
    38   20   38 1
    39   21   22 1
    40   21   39 1
    41   21   40 1
    42   22   23 1
    43   22   41 1
    44   22   42 1
    45   23   24 1
    46   23   47 1
    47   24   25 1
    48   24   43 1
    49   24   44 1
    50   25   45 1
    51   25   46 1
@<TRIPOS>MOLECULE
ZINC13981024
   27    29     0     0     0
SMALL
USER_CHARGES
4-(1-ethylimidazo[4,5-c]pyridin-2-yl)-1,2,5-oxadiazol-3-amine
@<TRIPOS>ATOM
      1 C1         -1.5864   -1.1894   -1.4308 C.3       1 <0>        -0.1670
      2 C2         -1.1654   -0.8891    0.0091 C.3       1 <0>         0.0988
      3 N1          0.0021   -0.0041    0.0020 N.pl3     1 <0>        -0.4647
      4 C3         -0.0166    1.3700    0.0096 C.ar      1 <0>         0.0894
      5 C4         -1.0112    2.3416    0.0293 C.ar      1 <0>        -0.1591
      6 C5         -0.6432    3.6696    0.0287 C.ar      1 <0>         0.1041
      7 N2          0.6297    4.0298    0.0184 N.ar      1 <0>        -0.4826
      8 C6          1.6108    3.1528    0.0040 C.ar      1 <0>         0.1849
      9 C7          1.3314    1.7841   -0.0011 C.ar      1 <0>        -0.0037
     10 N3          2.0909    0.6647   -0.0143 N.2       1 <0>        -0.4528
     11 C8          1.3161   -0.3921   -0.0126 C.2       1 <0>         0.3614
     12 C9          1.7892   -1.7940   -0.0242 C.2       1 <0>         0.0171
     13 C10         3.1804   -2.3031   -0.0462 C.2       1 <0>         0.3250
     14 N4          3.0078   -3.6042   -0.0455 N.2       1 <0>        -0.4089
     15 O1          1.8256   -3.8541   -0.0355 O.3       1 <0>         0.3400
     16 N5          1.0803   -2.9027   -0.0233 N.2       1 <0>        -0.3200
     17 N6          4.3685   -1.5844   -0.0608 N.pl3     1 <0>        -0.7993
     18 H1         -0.7645   -1.6764   -1.9556 H         1 <0>         0.0631
     19 H2         -2.4550   -1.8479   -1.4255 H         1 <0>         0.0850
     20 H3         -1.8397   -0.2580   -1.9371 H         1 <0>         0.0629
     21 H4         -0.9121   -1.8205    0.5154 H         1 <0>         0.1064
     22 H5         -1.9873   -0.4021    0.5339 H         1 <0>         0.0973
     23 H6         -2.0539    2.0603    0.0423 H         1 <0>         0.1372
     24 H7         -1.4088    4.4312    0.0404 H         1 <0>         0.1669
     25 H8          2.6359    3.4926   -0.0036 H         1 <0>         0.1700
     26 H9          4.3488   -0.6146   -0.0570 H         1 <0>         0.4303
     27 H10         5.2182   -2.0521   -0.0749 H         1 <0>         0.4185
@<TRIPOS>BOND
     1    1    2 1
     2    1   18 1
     3    1   19 1
     4    1   20 1
     5    2    3 1
     6    2   21 1
     7    2   22 1
     8    3   11 1
     9    3    4 1
    10    4    9 ar
    11    4    5 ar
    12    5    6 ar
    13    5   23 1
    14    6    7 ar
    15    6   24 1
    16    7    8 ar
    17    8    9 ar
    18    8   25 1
    19    9   10 1
    20   10   11 2
    21   11   12 1
    22   12   16 2
    23   12   13 1
    24   13   14 2
    25   13   17 1
    26   14   15 1
    27   15   16 1
    28   17   26 1
    29   17   27 1
@<TRIPOS>MOLECULE
ZINC13981024
   28    30     0     0     0
SMALL
USER_CHARGES
4-(1-ethylimidazo[4,5-c]pyridin-2-yl)-1,2,5-oxadiazol-3-amine
@<TRIPOS>ATOM
      1 C1         -1.5864   -1.1894   -1.4308 C.3       1 <0>        -0.1754
      2 C2         -1.1654   -0.8891    0.0091 C.3       1 <0>         0.0846
      3 N1          0.0021   -0.0041    0.0020 N.pl3     1 <0>        -0.4051
      4 C3         -0.0166    1.3700    0.0096 C.ar      1 <0>         0.1234
      5 C4         -1.0112    2.3416    0.0293 C.ar      1 <0>        -0.1341
      6 C5         -0.6432    3.6696    0.0287 C.ar      1 <0>         0.1473
      7 N2          0.6297    4.0298    0.0184 N.ar      1 <0>        -0.4393
      8 C6          1.6108    3.1528    0.0040 C.ar      1 <0>         0.1869
      9 C7          1.3314    1.7841   -0.0011 C.ar      1 <0>        -0.0058
     10 C8          1.3161   -0.3921   -0.0126 C.cat     1 <0>         0.4895
     11 C9          1.7892   -1.7940   -0.0242 C.2       1 <0>        -0.0625
     12 C10         3.1804   -2.3031   -0.0462 C.2       1 <0>         0.3286
     13 N3          3.0078   -3.6042   -0.0455 N.2       1 <0>        -0.3685
     14 O1          1.8256   -3.8541   -0.0355 O.3       1 <0>         0.4024
     15 N4          1.0803   -2.9027   -0.0233 N.2       1 <0>        -0.2761
     16 N5          4.3685   -1.5844   -0.0608 N.pl3     1 <0>        -0.7984
     17 H1         -0.7645   -1.6764   -1.9556 H         1 <0>         0.0696
     18 H2         -2.4550   -1.8479   -1.4255 H         1 <0>         0.1077
     19 H3         -1.8397   -0.2580   -1.9371 H         1 <0>         0.0743
     20 H4         -0.9121   -1.8205    0.5154 H         1 <0>         0.1264
     21 H5         -1.9873   -0.4021    0.5339 H         1 <0>         0.1292
     22 H6         -2.0539    2.0603    0.0423 H         1 <0>         0.1690
     23 H7         -1.4088    4.4312    0.0404 H         1 <0>         0.1943
     24 H8          2.6359    3.4926   -0.0036 H         1 <0>         0.1911
     25 H9          4.3488   -0.6146   -0.0570 H         1 <0>         0.4102
     26 H10         5.2182   -2.0521   -0.0749 H         1 <0>         0.4388
     27 N6          2.0917    0.6647   -0.0143 N.pl3     1 <0>        -0.4784
     28 H11         3.1182    0.6460   -0.0242 H         1 <0>         0.4702
@<TRIPOS>BOND
     1    1    2 1
     2    1   17 1
     3    1   18 1
     4    1   19 1
     5    2    3 1
     6    2   20 1
     7    2   21 1
     8    3   10 1
     9    3    4 1
    10    4    9 ar
    11    4    5 ar
    12    5    6 ar
    13    5   22 1
    14    6    7 ar
    15    6   23 1
    16    7    8 ar
    17    8    9 ar
    18    8   24 1
    19    9   27 1
    20   10   11 1
    21   10   27 2
    22   11   15 2
    23   11   12 1
    24   12   13 2
    25   12   16 1
    26   13   14 1
    27   14   15 1
    28   16   25 1
    29   16   26 1
    30   27   28 1
@<TRIPOS>MOLECULE
ZINC14959960
   46    47     0     0     0
SMALL
USER_CHARGES

@<TRIPOS>ATOM
      1 C1          2.8824   -6.4072    4.7168 C.3       1 <0>        -0.1552
      2 C2          2.1528   -5.8740    3.4821 C.3       1 <0>         0.0698
      3 O1          2.1422   -4.4455    3.5150 O.3       1 <0>        -0.2974
      4 C3          1.5303   -3.8111    2.4862 C.ar      1 <0>         0.4422
      5 C4          1.4912   -2.4091    2.4579 C.ar      1 <0>        -0.2167
      6 C5          0.8492   -1.7688    1.3776 C.ar      1 <0>         0.3538
      7 C6          0.2819   -2.5616    0.3859 C.ar      1 <0>        -0.3271
      8 C7          0.3649   -3.9424    0.4899 C.ar      1 <0>         0.4673
      9 N1          0.9799   -4.5179    1.5150 N.ar      1 <0>        -0.5640
     10 N2         -0.2018   -4.7376   -0.5010 N.am      1 <0>        -0.6596
     11 C8         -0.0402   -6.0752   -0.4661 C.2       1 <0>         0.5088
     12 O2          0.5194   -6.5939    0.4765 O.2       1 <0>        -0.4507
     13 C9         -0.5549   -6.9261   -1.5983 C.3       1 <0>        -0.0901
     14 C10        -0.2496   -8.3748   -1.3169 C.ar      1 <0>        -0.0653
     15 C11         0.8944   -8.9525   -1.8328 C.ar      1 <0>        -0.0983
     16 C12         1.1756  -10.2855   -1.5735 C.ar      1 <0>         0.0937
     17 C13         0.3082  -11.0388   -0.7960 C.ar      1 <0>        -0.1638
     18 C14        -0.8354  -10.4613   -0.2803 C.ar      1 <0>        -0.1672
     19 C15        -1.1140   -9.1265   -0.5354 C.ar      1 <0>         0.1111
     20 O3         -2.2372   -8.5563   -0.0229 O.3       1 <0>        -0.3149
     21 C16        -3.0823   -9.3894    0.7732 C.3       1 <0>         0.0284
     22 O4          2.3014  -10.8542   -2.0817 O.3       1 <0>        -0.3174
     23 C17         2.5280  -12.2313   -1.7744 C.3       1 <0>         0.0276
     24 N3          0.7849   -0.3856    1.3065 N.pl3     1 <0>        -0.8432
     25 C18         2.0920   -1.6418    3.5072 C.1       1 <0>         0.2733
     26 N4          2.5686   -1.0332    4.3395 N.1       1 <0>        -0.4293
     27 H1          2.3690   -6.0683    5.6167 H         1 <0>         0.0639
     28 H2          2.8905   -7.4969    4.6917 H         1 <0>         0.0806
     29 H3          3.9073   -6.0362    4.7217 H         1 <0>         0.0643
     30 H4          2.6662   -6.2129    2.5823 H         1 <0>         0.0746
     31 H5          1.1279   -6.2450    3.4773 H         1 <0>         0.0734
     32 H6         -0.2184   -2.1070   -0.4564 H         1 <0>         0.1464
     33 H7         -0.7132   -4.3294   -1.2170 H         1 <0>         0.4216
     34 H8         -1.6327   -6.7935   -1.6917 H         1 <0>         0.1130
     35 H9         -0.0701   -6.6265   -2.5275 H         1 <0>         0.1091
     36 H10         1.5696   -8.3661   -2.4384 H         1 <0>         0.1371
     37 H11         0.5270  -12.0770   -0.5944 H         1 <0>         0.1309
     38 H12        -1.5111  -11.0479    0.3244 H         1 <0>         0.1316
     39 H13        -3.4285  -10.2326    0.1754 H         1 <0>         0.0547
     40 H14        -2.5230   -9.7587    1.6327 H         1 <0>         0.0549
     41 H15        -3.9401   -8.8124    1.1185 H         1 <0>         0.0997
     42 H16         3.4575  -12.5592   -2.2399 H         1 <0>         0.1005
     43 H17         2.5992  -12.3555   -0.6939 H         1 <0>         0.0547
     44 H18         1.7002  -12.8295   -2.1552 H         1 <0>         0.0545
     45 H19         1.1847    0.1551    2.0056 H         1 <0>         0.4070
     46 H20         0.3401    0.0415    0.5577 H         1 <0>         0.4117
@<TRIPOS>BOND
     1    1    2 1
     2    1   27 1
     3    1   28 1
     4    1   29 1
     5    2    3 1
     6    2   30 1
     7    2   31 1
     8    3    4 1
     9    4    9 ar
    10    4    5 ar
    11    5    6 ar
    12    5   25 1
    13    6    7 ar
    14    6   24 1
    15    7    8 ar
    16    7   32 1
    17    8    9 ar
    18    8   10 1
    19   10   11 am
    20   10   33 1
    21   11   12 2
    22   11   13 1
    23   13   14 1
    24   13   34 1
    25   13   35 1
    26   14   19 ar
    27   14   15 ar
    28   15   16 ar
    29   15   36 1
    30   16   17 ar
    31   16   22 1
    32   17   18 ar
    33   17   37 1
    34   18   19 ar
    35   18   38 1
    36   19   20 1
    37   20   21 1
    38   21   39 1
    39   21   40 1
    40   21   41 1
    41   22   23 1
    42   23   42 1
    43   23   43 1
    44   23   44 1
    45   24   45 1
    46   24   46 1
    47   25   26 3
@<TRIPOS>MOLECULE
ZINC17782150
   26    27     0     0     0
SMALL
USER_CHARGES

@<TRIPOS>ATOM
      1 C1          1.2107    0.1110   -0.3167 C.ar      1 <0>        -0.0845
      2 C2          2.3695    0.6247   -0.8574 C.ar      1 <0>        -0.1353
      3 C3          2.4406    0.9025   -2.2165 C.ar      1 <0>         0.1143
      4 C4          1.3452    0.6641   -3.0367 C.ar      1 <0>        -0.1360
      5 C5          0.1823    0.1506   -2.5047 C.ar      1 <0>        -0.0742
      6 C6          0.1062   -0.1304   -1.1380 C.ar      1 <0>         0.0044
      7 N1         -1.0458   -0.6406   -0.6057 N.2       1 <0>        -0.1879
      8 N2         -1.0418   -1.8093   -0.0598 N.2       1 <0>        -0.0741
      9 C7          0.0830   -2.5712   -0.0938 C.2       1 <0>        -0.2800
     10 C8          0.6978   -3.1916    0.9919 C.2       1 <0>         0.4511
     11 N3          1.7806   -3.8437    0.5189 N.pl3     1 <0>        -0.4845
     12 H1          2.4027   -4.3664    1.0487 H         1 <0>         0.4440
     13 N4          1.8562   -3.6401   -0.8630 N.2       1 <0>        -0.3488
     14 C9          0.8522   -2.8919   -1.2429 C.2       1 <0>         0.3951
     15 N5          0.5863   -2.4778   -2.5498 N.pl3     1 <0>        -0.8342
     16 N6          0.2770   -3.1474    2.3083 N.pl3     1 <0>        -0.8307
     17 O1          3.5849    1.4093   -2.7452 O.3       1 <0>        -0.4982
     18 H2          1.1578   -0.1088    0.7393 H         1 <0>         0.1196
     19 H3          3.2235    0.8119   -0.2234 H         1 <0>         0.1292
     20 H4          1.4048    0.8819   -4.0928 H         1 <0>         0.1346
     21 H5         -0.6689   -0.0344   -3.1432 H         1 <0>         0.1333
     22 H6         -0.2564   -2.0454   -2.7596 H         1 <0>         0.4089
     23 H7          1.2441   -2.6224   -3.2478 H         1 <0>         0.4071
     24 H8         -0.5195   -2.6474    2.5463 H         1 <0>         0.4262
     25 H9          0.7782   -3.6163    2.9937 H         1 <0>         0.4085
     26 H10         4.2088    0.7365   -3.0504 H         1 <0>         0.3919
@<TRIPOS>BOND
     1    1    6 ar
     2    1    2 ar
     3    1   18 1
     4    2    3 ar
     5    2   19 1
     6    3    4 ar
     7    3   17 1
     8    4    5 ar
     9    4   20 1
    10    5    6 ar
    11    5   21 1
    12    6    7 1
    13    7    8 2
    14    8    9 1
    15    9   14 1
    16    9   10 2
    17   10   11 1
    18   10   16 1
    19   11   12 1
    20   11   13 1
    21   13   14 2
    22   14   15 1
    23   15   22 1
    24   15   23 1
    25   16   24 1
    26   16   25 1
    27   17   26 1
@<TRIPOS>MOLECULE
ZINC17782150
   26    27     0     0     0
SMALL
USER_CHARGES

@<TRIPOS>ATOM
      1 C1         -0.0174    1.4084   -0.0035 C.2       1 <0>         0.0112
      2 C2          1.1490    2.1020   -0.0127 C.2       1 <0>        -0.2354
      3 C3          2.3781    1.4147   -0.0189 C.2       1 <0>         0.3914
      4 O1          3.4293    2.0422   -0.0276 O.2       1 <0>        -0.4959
      5 C4          2.4000    0.0066   -0.0146 C.2       1 <0>        -0.2038
      6 C5          1.2360   -0.6911   -0.0055 C.2       1 <0>        -0.0732
      7 C6          0.0020   -0.0039    0.0003 C.2       1 <0>        -0.0408
      8 N1         -1.1439   -0.6880    0.0093 N.2       1 <0>        -0.1200
      9 N2         -1.1284   -1.9737   -0.0951 N.pl3     1 <0>        -0.3983
     10 C7         -2.3258   -2.6792   -0.1925 C.2       1 <0>        -0.1356
     11 C8         -2.4915   -4.0393   -0.0144 C.2       1 <0>         0.3946
     12 N3         -3.8094   -4.3124   -0.1979 N.pl3     1 <0>        -0.4817
     13 H1         -4.2228   -5.1876   -0.1354 H         1 <0>         0.4481
     14 N4         -4.4681   -3.1130   -0.4923 N.2       1 <0>        -0.3445
     15 C9         -3.5945   -2.1362   -0.4850 C.2       1 <0>         0.3948
     16 N5         -3.8720   -0.7869   -0.7289 N.pl3     1 <0>        -0.8316
     17 N6         -1.4956   -4.9568    0.2943 N.pl3     1 <0>        -0.8462
     18 H2         -0.9598    1.9360    0.0053 H         1 <0>         0.1368
     19 H3          1.1347    3.1819   -0.0156 H         1 <0>         0.1403
     20 H4          3.3438   -0.5184   -0.0190 H         1 <0>         0.1354
     21 H5          1.2532   -1.7710   -0.0029 H         1 <0>         0.1156
     22 H6         -0.2830   -2.4492   -0.1059 H         1 <0>         0.3885
     23 H7         -3.1564   -0.1325   -0.7044 H         1 <0>         0.4173
     24 H8         -4.7799   -0.5057   -0.9226 H         1 <0>         0.4065
     25 H9         -0.5792   -4.6589    0.4052 H         1 <0>         0.4149
     26 H10        -1.7165   -5.8955    0.3990 H         1 <0>         0.4118
@<TRIPOS>BOND
     1    1    7 1
     2    1    2 2
     3    1   18 1
     4    2    3 1
     5    2   19 1
     6    3    4 2
     7    3    5 1
     8    5    6 2
     9    5   20 1
    10    6    7 1
    11    6   21 1
    12    7    8 2
    13    8    9 1
    14    9   10 1
    15    9   22 1
    16   10   15 1
    17   10   11 2
    18   11   12 1
    19   11   17 1
    20   12   13 1
    21   12   14 1
    22   14   15 2
    23   15   16 1
    24   16   23 1
    25   16   24 1
    26   17   25 1
    27   17   26 1
@<TRIPOS>MOLECULE
ZINC17782150
   27    28     0     0     0
SMALL
USER_CHARGES

@<TRIPOS>ATOM
      1 C1         -0.0175    1.4085   -0.0037 C.2       1 <0>        -0.0225
      2 C2          1.1489    2.1020   -0.0131 C.2       1 <0>        -0.1922
      3 C3          2.3781    1.4147   -0.0189 C.2       1 <0>         0.3825
      4 O1          3.4292    2.0423   -0.0270 O.2       1 <0>        -0.4508
      5 C4          2.3999    0.0066   -0.0151 C.2       1 <0>        -0.1577
      6 C5          1.2360   -0.6911   -0.0058 C.2       1 <0>        -0.1054
      7 C6          0.0020   -0.0039    0.0001 C.2       1 <0>         0.0536
      8 N1         -1.1438   -0.6880    0.0097 N.2       1 <0>        -0.1779
      9 N2         -1.1284   -1.9737   -0.0947 N.pl3     1 <0>        -0.4557
     10 C7         -2.3266   -2.6796   -0.1916 C.2       1 <0>        -0.0807
     11 C8         -3.6016   -2.1885    0.0927 C.2       1 <0>         0.5070
     12 N3         -4.4718   -3.1700   -0.1238 N.pl3     1 <0>        -0.4351
     13 H1         -5.4329   -3.1104   -0.0067 H         1 <0>         0.4767
     14 N4         -3.7697   -4.3033   -0.5496 N.pl3     1 <0>        -0.4320
     15 C9         -2.4745   -4.0069   -0.5968 C.cat     1 <0>         0.4909
     16 N5         -1.4497   -4.8669   -0.9789 N.pl3     1 <0>        -0.8015
     17 N6         -3.9072   -0.9022    0.5261 N.pl3     1 <0>        -0.7849
     18 H2         -0.9598    1.9360    0.0052 H         1 <0>         0.1445
     19 H3          1.1346    3.1819   -0.0164 H         1 <0>         0.1516
     20 H4          3.3437   -0.5184   -0.0200 H         1 <0>         0.1472
     21 H5          1.2533   -1.7710   -0.0032 H         1 <0>         0.1241
     22 H6         -0.2830   -2.4492   -0.1058 H         1 <0>         0.4009
     23 H7         -0.5307   -4.5565   -0.9784 H         1 <0>         0.4379
     24 H8         -1.6542   -5.7767   -1.2456 H         1 <0>         0.4301
     25 H9         -3.1983   -0.2530    0.6563 H         1 <0>         0.4474
     26 H10        -4.8292   -0.6546    0.6981 H         1 <0>         0.4249
     27 H11        -4.1627   -5.1606   -0.7763 H         1 <0>         0.4771
@<TRIPOS>BOND
     1    1    7 1
     2    1    2 2
     3    1   18 1
     4    2    3 1
     5    2   19 1
     6    3    4 2
     7    3    5 1
     8    5    6 2
     9    5   20 1
    10    6    7 1
    11    6   21 1
    12    7    8 2
    13    8    9 1
    14    9   10 1
    15    9   22 1
    16   10   15 1
    17   10   11 2
    18   11   12 1
    19   11   17 1
    20   12   13 1
    21   12   14 1
    22   14   15 2
    23   14   27 1
    24   15   16 1
    25   16   23 1
    26   16   24 1
    27   17   25 1
    28   17   26 1
@<TRIPOS>MOLECULE
ZINC17782150
   27    28     0     0     0
SMALL
USER_CHARGES

@<TRIPOS>ATOM
      1 C1         -0.0671    0.1506   -2.4543 C.ar      1 <0>        -0.0780
      2 C2          1.0595    0.7606   -2.9618 C.ar      1 <0>        -0.1323
      3 C3          2.1414    1.0263   -2.1322 C.ar      1 <0>         0.1375
      4 C4          2.0935    0.6783   -0.7884 C.ar      1 <0>        -0.1371
      5 C5          0.9712    0.0675   -0.2723 C.ar      1 <0>        -0.0871
      6 C6         -0.1200   -0.2008   -1.1029 C.ar      1 <0>        -0.0437
      7 N1         -1.2364   -0.8062   -0.5947 N.2       1 <0>        -0.1165
      8 N2         -1.1558   -1.9926   -0.0947 N.2       1 <0>        -0.0827
      9 C7          0.0298   -2.6576   -0.1101 C.2       1 <0>        -0.2485
     10 C8          0.6721   -3.2493    0.9916 C.2       1 <0>         0.5430
     11 N3          1.7996   -3.7946    0.5541 N.pl3     1 <0>        -0.4351
     12 H1          2.4438   -4.2722    1.0997 H         1 <0>         0.4754
     13 N4          1.9080   -3.5694   -0.8222 N.pl3     1 <0>        -0.4342
     14 C9          0.8445   -2.8903   -1.2320 C.cat     1 <0>         0.5159
     15 N5          0.5851   -2.4808   -2.5317 N.pl3     1 <0>        -0.7884
     16 N6          0.2106   -3.2605    2.2997 N.pl3     1 <0>        -0.7813
     17 O1          3.2501    1.6279   -2.6368 O.3       1 <0>        -0.4969
     18 H2         -0.9096   -0.0516   -3.0990 H         1 <0>         0.1475
     19 H3          1.1014    1.0322   -4.0063 H         1 <0>         0.1476
     20 H4          2.9371    0.8865   -0.1470 H         1 <0>         0.1404
     21 H5          0.9350   -0.2033    0.7726 H         1 <0>         0.1284
     22 H6         -0.2238   -1.9840   -2.7314 H         1 <0>         0.4390
     23 H7          1.2125   -2.6913   -3.2409 H         1 <0>         0.4283
     24 H8         -0.5925   -2.7700    2.5349 H         1 <0>         0.4487
     25 H9          0.6911   -3.7589    2.9792 H         1 <0>         0.4290
     26 H10         3.2291    2.5936   -2.5905 H         1 <0>         0.4068
     27 H11         2.6401   -3.8647   -1.3860 H         1 <0>         0.4741
@<TRIPOS>BOND
     1    1    6 ar
     2    1    2 ar
     3    1   18 1
     4    2    3 ar
     5    2   19 1
     6    3    4 ar
     7    3   17 1
     8    4    5 ar
     9    4   20 1
    10    5    6 ar
    11    5   21 1
    12    6    7 1
    13    7    8 2
    14    8    9 1
    15    9   14 1
    16    9   10 2
    17   10   11 1
    18   10   16 1
    19   11   12 1
    20   11   13 1
    21   13   14 2
    22   13   27 1
    23   14   15 1
    24   15   22 1
    25   15   23 1
    26   16   24 1
    27   16   25 1
    28   17   26 1
@<TRIPOS>MOLECULE
ZINC17782150
   27    28     0     0     0
SMALL
USER_CHARGES

@<TRIPOS>ATOM
      1 C1         -0.0169    1.3931    0.0097 C.ar      1 <0>        -0.0402
      2 C2          1.1683    2.0962    0.0022 C.ar      1 <0>        -0.1473
      3 C3          2.3804    1.4181   -0.0131 C.ar      1 <0>         0.1484
      4 C4          2.4041    0.0293   -0.0212 C.ar      1 <0>        -0.1491
      5 C5          1.2238   -0.6820   -0.0142 C.ar      1 <0>        -0.0792
      6 C6          0.0021   -0.0041    0.0020 C.ar      1 <0>         0.0315
      7 N1         -1.1719   -0.7061    0.0099 N.2       1 <0>        -0.2435
      8 N2         -1.1522   -1.9959    0.0028 N.2       1 <0>        -0.1650
      9 C7         -2.3190   -2.6936    0.0106 C.2       1 <0>        -0.1586
     10 C8         -3.6171   -2.1538    0.0203 C.2       1 <0>         0.5109
     11 N3         -4.4735   -3.1670    0.0249 N.pl3     1 <0>        -0.4430
     12 H1         -5.4402   -3.0882    0.0311 H         1 <0>         0.4722
     13 N4         -3.7556   -4.3676    0.0184 N.pl3     1 <0>        -0.4369
     14 C9         -2.4578   -4.0926    0.0045 C.cat     1 <0>         0.5506
     15 N5         -1.4246   -5.0181   -0.0100 N.pl3     1 <0>        -0.7763
     16 N6         -3.9434   -0.8056    0.0246 N.pl3     1 <0>        -0.7729
     17 O1          3.5464    2.1154   -0.0204 O.3       1 <0>        -0.4956
     18 H2         -0.9589    1.9211    0.0260 H         1 <0>         0.1407
     19 H3          1.1546    3.1761    0.0077 H         1 <0>         0.1446
     20 H4          3.3488   -0.4938   -0.0334 H         1 <0>         0.1392
     21 H5          1.2431   -1.7618   -0.0213 H         1 <0>         0.1398
     22 H6         -0.5029   -4.7160   -0.0170 H         1 <0>         0.4492
     23 H7         -1.6239   -5.9674   -0.0132 H         1 <0>         0.4280
     24 H8         -3.2410   -0.1366    0.0209 H         1 <0>         0.4506
     25 H9         -4.8739   -0.5319    0.0313 H         1 <0>         0.4236
     26 H10         3.8924    2.3125    0.8608 H         1 <0>         0.4024
     27 H11        -4.1436   -5.2566    0.0204 H         1 <0>         0.4759
@<TRIPOS>BOND
     1    1    6 ar
     2    1    2 ar
     3    1   18 1
     4    2    3 ar
     5    2   19 1
     6    3    4 ar
     7    3   17 1
     8    4    5 ar
     9    4   20 1
    10    5    6 ar
    11    5   21 1
    12    6    7 1
    13    7    8 2
    14    8    9 1
    15    9   14 1
    16    9   10 2
    17   10   11 1
    18   10   16 1
    19   11   12 1
    20   11   13 1
    21   13   14 2
    22   13   27 1
    23   14   15 1
    24   15   22 1
    25   15   23 1
    26   16   24 1
    27   16   25 1
    28   17   26 1
@<TRIPOS>MOLECULE
ZINC16052630
   45    48     0     0     0
SMALL
USER_CHARGES
4-[(4-chlorophenyl)methyl]-1-(7H-pyrrolo[3,2-e]pyrimidin-4-yl)piperidin-4-amine
@<TRIPOS>ATOM
      1 C1          0.8279   -2.7837   -3.6169 C.ar      1 <0>        -0.1276
      2 C2          1.4920   -3.2183   -4.7485 C.ar      1 <0>        -0.1007
      3 C3          2.8657   -3.3808   -4.7245 C.ar      1 <0>        -0.0248
      4 C4          3.5745   -3.1027   -3.5693 C.ar      1 <0>        -0.0987
      5 C5          2.9100   -2.6628   -2.4401 C.ar      1 <0>        -0.0908
      6 C6          1.5373   -2.5006   -2.4647 C.ar      1 <0>        -0.1245
      7 C7          0.8134   -2.0208   -1.2332 C.3       1 <0>        -0.0869
      8 C8          0.7375   -0.4928   -1.2489 C.3       1 <0>         0.0685
      9 C9          0.0021   -0.0041    0.0020 C.3       1 <0>        -0.1354
     10 C10        -0.0187    1.5261    0.0104 C.3       1 <0>         0.0489
     11 N1          1.3585    2.0357    0.0000 N.pl3     1 <0>        -0.4633
     12 C11         2.0699    1.6185   -1.2150 C.3       1 <0>         0.0394
     13 C12         2.1530    0.0910   -1.2600 C.3       1 <0>        -0.1364
     14 C13         1.3790    3.4117    0.1386 C.ar      1 <0>         0.3925
     15 C14         2.5935    4.1145    0.1611 C.ar      1 <0>        -0.2155
     16 C15         4.0044    3.7477    0.0545 C.2       1 <0>        -0.1806
     17 C16         4.7095    4.8877    0.1386 C.2       1 <0>         0.0695
     18 N2          3.8569    5.9513    0.2853 N.pl3     1 <0>        -0.5668
     19 H1          4.1324    6.8778    0.3668 H         1 <0>         0.4292
     20 C17         2.5610    5.5143    0.2994 C.ar      1 <0>         0.3321
     21 N3          1.3775    6.1154    0.4137 N.ar      1 <0>        -0.5346
     22 C18         0.2639    5.4158    0.3925 C.ar      1 <0>         0.3428
     23 N4          0.2487    4.1015    0.2595 N.ar      1 <0>        -0.5752
     24 Cl1         3.6997   -3.9329   -6.1434 Cl        1 <0>        -0.0443
     25 H2         -0.2450   -2.6610   -3.6342 H         1 <0>         0.1328
     26 H3          0.9381   -3.4352   -5.6500 H         1 <0>         0.1427
     27 H4          4.6469   -3.2290   -3.5501 H         1 <0>         0.1438
     28 H5          3.4632   -2.4453   -1.5384 H         1 <0>         0.1410
     29 H6          1.3521   -2.3487   -0.3442 H         1 <0>         0.1249
     30 H7         -0.1950   -2.4346   -1.2202 H         1 <0>         0.1038
     31 H8          0.5174   -0.3659    0.8918 H         1 <0>         0.1246
     32 H9         -1.0203   -0.3818   -0.0060 H         1 <0>         0.1043
     33 H10        -0.5461    1.8871   -0.8725 H         1 <0>         0.0482
     34 H11        -0.5291    1.8775    0.9071 H         1 <0>         0.1188
     35 H12         3.0763    2.0369   -1.2084 H         1 <0>         0.1208
     36 H13         1.5326    1.9790   -2.0923 H         1 <0>         0.0414
     37 H14         2.7021   -0.2693   -0.3901 H         1 <0>         0.1269
     38 H15         2.6673   -0.2188   -2.1698 H         1 <0>         0.1047
     39 H16         4.4034    2.7512   -0.0644 H         1 <0>         0.1565
     40 H17         5.7864    4.9563    0.0963 H         1 <0>         0.1882
     41 H18        -0.6770    5.9373    0.4881 H         1 <0>         0.2052
     42 H19         0.4806   -0.3602   -3.2873 H         1 <0>         0.4336
     43 H20        -0.9442   -0.3645   -2.4295 H         1 <0>         0.4366
     44 N5          0.0159   -0.0244   -2.4453 N.4       1 <0>        -0.6478
     45 H21         0.0075    1.0023   -2.4540 H         1 <0>         0.4324
@<TRIPOS>BOND
     1    1    6 ar
     2    1    2 ar
     3    1   25 1
     4    2    3 ar
     5    2   26 1
     6    3    4 ar
     7    3   24 1
     8    4    5 ar
     9    4   27 1
    10    5    6 ar
    11    5   28 1
    12    6    7 1
    13    7    8 1
    14    7   29 1
    15    7   30 1
    16    8   13 1
    17    8    9 1
    18    8   44 1
    19    9   10 1
    20    9   31 1
    21    9   32 1
    22   10   11 1
    23   10   33 1
    24   10   34 1
    25   11   12 1
    26   11   14 1
    27   12   13 1
    28   12   35 1
    29   12   36 1
    30   13   37 1
    31   13   38 1
    32   14   23 ar
    33   14   15 ar
    34   15   20 ar
    35   15   16 1
    36   16   17 2
    37   16   39 1
    38   17   18 1
    39   17   40 1
    40   18   19 1
    41   18   20 1
    42   20   21 ar
    43   21   22 ar
    44   22   23 ar
    45   22   41 1
    46   42   44 1
    47   43   44 1
    48   44   45 1
@<TRIPOS>MOLECULE
ZINC00206684
   28    30     0     0     0
SMALL
USER_CHARGES
4-(1-ethylbenzimidazol-2-yl)-1,2,5-oxadiazol-3-amine
@<TRIPOS>ATOM
      1 C1         -4.1971    3.7307   -1.3824 C.3       1 <0>        -0.1665
      2 C2         -3.6824    3.8144    0.0560 C.3       1 <0>         0.1005
      3 N1         -2.2413    4.0776    0.0444 N.pl3     1 <0>        -0.4688
      4 C3         -1.2361    3.1321    0.0298 C.ar      1 <0>         0.0595
      5 C4         -1.2185    1.7438    0.0173 C.ar      1 <0>        -0.1102
      6 C5         -0.0126    1.0758    0.0080 C.ar      1 <0>        -0.0927
      7 C6          1.1830    1.7812    0.0003 C.ar      1 <0>        -0.1249
      8 C7          1.1866    3.1467    0.0072 C.ar      1 <0>        -0.0590
      9 C8         -0.0247    3.8471    0.0220 C.ar      1 <0>         0.0501
     10 N2         -0.3380    5.1645    0.0320 N.2       1 <0>        -0.4687
     11 C9         -1.6401    5.3074    0.0452 C.2       1 <0>         0.3546
     12 C10        -2.3539    6.6034    0.0594 C.2       1 <0>         0.0214
     13 C11        -1.7891    7.9732    0.0674 C.2       1 <0>         0.3227
     14 N3         -2.8650    8.7249    0.0766 N.2       1 <0>        -0.4105
     15 O1         -3.8479    8.0221    0.0826 O.3       1 <0>         0.3361
     16 N4         -3.6501    6.8298    0.0738 N.2       1 <0>        -0.3221
     17 N5         -0.4565    8.3635    0.0635 N.pl3     1 <0>        -0.8002
     18 H1         -5.2694    3.5348   -1.3738 H         1 <0>         0.0827
     19 H2         -4.0042    4.6743   -1.8928 H         1 <0>         0.0621
     20 H3         -3.6845    2.9233   -1.9053 H         1 <0>         0.0626
     21 H4         -3.8753    2.8708    0.5664 H         1 <0>         0.0950
     22 H5         -4.1950    4.6218    0.5789 H         1 <0>         0.1036
     23 H6         -2.1454    1.1896    0.0190 H         1 <0>         0.1250
     24 H7          0.0021   -0.0041    0.0020 H         1 <0>         0.1338
     25 H8          2.1201    1.2444   -0.0115 H         1 <0>         0.1334
     26 H9          2.1228    3.6852    0.0015 H         1 <0>         0.1330
     27 H10         0.2451    7.6937    0.0544 H         1 <0>         0.4301
     28 H11        -0.2271    9.3060    0.0698 H         1 <0>         0.4175
@<TRIPOS>BOND
     1    1    2 1
     2    1   18 1
     3    1   19 1
     4    1   20 1
     5    2    3 1
     6    2   21 1
     7    2   22 1
     8    3   11 1
     9    3    4 1
    10    4    9 ar
    11    4    5 ar
    12    5    6 ar
    13    5   23 1
    14    6    7 ar
    15    6   24 1
    16    7    8 ar
    17    7   25 1
    18    8    9 ar
    19    8   26 1
    20    9   10 1
    21   10   11 2
    22   11   12 1
    23   12   16 2
    24   12   13 1
    25   13   14 2
    26   13   17 1
    27   14   15 1
    28   15   16 1
    29   17   27 1
    30   17   28 1
@<TRIPOS>MOLECULE
ZINC14954389
   47    50     0     0     0
SMALL
USER_CHARGES
(4R)-N-(6-fluoro-1H-indazol-5-yl)-2-methyl-6-oxo-4-[4-(trifluoromethyl)phenyl]-4,5-dihydro-1H-pyridine-3-carboxamide
@<TRIPOS>ATOM
      1 C1         -6.1576   -1.4802   -0.0456 C.3       1 <0>        -0.1208
      2 C2         -7.1400   -0.3418   -0.1450 C.2       1 <0>         0.2443
      3 C3         -6.6902    0.9248   -0.1449 C.2       1 <0>        -0.2789
      4 C4         -7.6575    2.0760   -0.2381 C.3       1 <0>         0.0015
      5 H1         -7.2196    2.9576    0.2300 H         1 <0>         0.1029
      6 C5         -8.9568    1.7117    0.4758 C.3       1 <0>        -0.1355
      7 C6         -9.3957    0.3346    0.0506 C.2       1 <0>         0.5220
      8 O1        -10.5775    0.0775   -0.0354 O.2       1 <0>        -0.4980
      9 N1         -8.4818   -0.6113   -0.2348 N.am      1 <0>        -0.6611
     10 C7         -7.9515    2.3695   -1.6867 C.ar      1 <0>        -0.0505
     11 C8         -8.5093    1.3928   -2.4904 C.ar      1 <0>        -0.1192
     12 C9         -8.7826    1.6632   -3.8182 C.ar      1 <0>        -0.0621
     13 C10        -8.4905    2.9077   -4.3444 C.ar      1 <0>        -0.1808
     14 C11        -7.9279    3.8827   -3.5421 C.ar      1 <0>        -0.0629
     15 C12        -7.6582    3.6135   -2.2133 C.ar      1 <0>        -0.1120
     16 C13        -8.7850    3.2013   -5.7929 C.3       1 <0>         0.5074
     17 F1         -7.6714    2.8691   -6.5718 F         1 <0>        -0.1751
     18 F2         -9.8865    2.4449   -6.2074 F         1 <0>        -0.1760
     19 F3         -9.0706    4.5625   -5.9441 F         1 <0>        -0.1758
     20 C14        -5.2990    1.1789   -0.0508 C.2       1 <0>         0.5792
     21 O2         -4.5087    0.2527   -0.0648 O.2       1 <0>        -0.5259
     22 N2         -4.8508    2.4456    0.0542 N.am      1 <0>        -0.6637
     23 C15        -3.4740    2.7061    0.0299 C.ar      1 <0>         0.0803
     24 C16        -2.6185    1.8196   -0.5913 C.ar      1 <0>        -0.0206
     25 C17        -1.2450    2.0868   -0.6183 C.ar      1 <0>        -0.1695
     26 C18        -0.0891    1.3839   -1.1665 C.2       1 <0>         0.0846
     27 N3          0.9717    2.0886   -0.8942 N.2       1 <0>        -0.2423
     28 N4          0.6150    3.2387   -0.1828 N.pl3     1 <0>        -0.5096
     29 H2          1.2494    3.9401    0.1421 H         1 <0>         0.4489
     30 C19        -0.7452    3.2500   -0.0023 C.ar      1 <0>         0.1392
     31 C20        -1.6246    4.1327    0.6202 C.ar      1 <0>        -0.1619
     32 C21        -2.9743    3.8621    0.6353 C.ar      1 <0>         0.1266
     33 F4         -3.8230    4.7218    1.2401 F         1 <0>        -0.1308
     34 H3         -5.5370   -1.3482    0.8407 H         1 <0>         0.1073
     35 H4         -6.6999   -2.4228    0.0276 H         1 <0>         0.0644
     36 H5         -5.5252   -1.4928   -0.9334 H         1 <0>         0.1049
     37 H6         -9.7302    2.4354    0.2184 H         1 <0>         0.1193
     38 H7         -8.7914    1.7241    1.5531 H         1 <0>         0.1177
     39 H8         -8.7758   -1.4946   -0.5077 H         1 <0>         0.4187
     40 H9         -8.7343    0.4194   -2.0801 H         1 <0>         0.1297
     41 H10        -9.2218    0.9014   -4.4451 H         1 <0>         0.1370
     42 H11        -7.6994    4.8548   -3.9533 H         1 <0>         0.1396
     43 H12        -7.2186    4.3752   -1.5864 H         1 <0>         0.1374
     44 H13        -5.4812    3.1770    0.1466 H         1 <0>         0.4100
     45 H14        -3.0072    0.9268   -1.0585 H         1 <0>         0.1647
     46 H15        -0.1103    0.4485   -1.7059 H         1 <0>         0.2013
     47 H16        -1.2478    5.0289    1.0905 H         1 <0>         0.1443
@<TRIPOS>BOND
     1    1    2 1
     2    1   34 1
     3    1   35 1
     4    1   36 1
     5    2    9 1
     6    2    3 2
     7    3    4 1
     8    3   20 1
     9    4    5 1
    10    4    6 1
    11    4   10 1
    12    6    7 1
    13    6   37 1
    14    6   38 1
    15    7    8 2
    16    7    9 am
    17    9   39 1
    18   10   15 ar
    19   10   11 ar
    20   11   12 ar
    21   11   40 1
    22   12   13 ar
    23   12   41 1
    24   13   14 ar
    25   13   16 1
    26   14   15 ar
    27   14   42 1
    28   15   43 1
    29   16   17 1
    30   16   18 1
    31   16   19 1
    32   20   21 2
    33   20   22 am
    34   22   23 1
    35   22   44 1
    36   23   32 ar
    37   23   24 ar
    38   24   25 ar
    39   24   45 1
    40   25   30 ar
    41   25   26 1
    42   26   27 2
    43   26   46 1
    44   27   28 1
    45   28   29 1
    46   28   30 1
    47   30   31 ar
    48   31   32 ar
    49   31   47 1
    50   32   33 1
@<TRIPOS>MOLECULE
ZINC14954393
   47    50     0     0     0
SMALL
USER_CHARGES
(4S)-N-(6-fluoro-1H-indazol-5-yl)-2-methyl-6-oxo-4-[4-(trifluoromethyl)phenyl]-4,5-dihydro-1H-pyridine-3-carboxamide
@<TRIPOS>ATOM
      1 C1         -2.5240   -0.2518    0.0270 C.3       1 <0>        -0.1397
      2 C2         -2.4903    1.2495   -0.0997 C.2       1 <0>         0.2455
      3 C3         -1.3076    1.8882   -0.1081 C.2       1 <0>        -0.2791
      4 C4         -1.2542    3.3891   -0.2274 C.3       1 <0>         0.0018
      5 H1         -0.3021    3.6851   -0.6679 H         1 <0>         0.1028
      6 C5         -2.4027    3.8657   -1.1245 C.3       1 <0>        -0.1349
      7 C6         -3.6832    3.2025   -0.6879 C.2       1 <0>         0.5216
      8 O1         -4.7331    3.8031   -0.7722 O.2       1 <0>        -0.4987
      9 N1         -3.6667    1.9467   -0.2044 N.am      1 <0>        -0.6617
     10 C7         -1.3892    4.0071    1.1404 C.ar      1 <0>        -0.0510
     11 C8         -2.5252    3.7770    1.8938 C.ar      1 <0>        -0.1197
     12 C9         -2.6471    4.3404    3.1502 C.ar      1 <0>        -0.0627
     13 C10        -1.6370    5.1411    3.6496 C.ar      1 <0>        -0.1809
     14 C11        -0.5033    5.3754    2.8941 C.ar      1 <0>        -0.0628
     15 C12        -0.3795    4.8086    1.6395 C.ar      1 <0>        -0.1108
     16 C13        -1.7715    5.7583    5.0179 C.3       1 <0>         0.5076
     17 F1         -2.3884    7.0090    4.9067 F         1 <0>        -0.1751
     18 F2         -2.5484    4.9258    5.8306 F         1 <0>        -0.1763
     19 F3         -0.5027    5.9131    5.5864 F         1 <0>        -0.1757
     20 C14        -0.1049    1.1464    0.0016 C.2       1 <0>         0.5796
     21 O2         -0.1458   -0.0509    0.2190 O.2       1 <0>        -0.5256
     22 N2          1.0839    1.7653   -0.1403 N.am      1 <0>        -0.6644
     23 C15         2.2735    1.0348   -0.0163 C.ar      1 <0>         0.0757
     24 C16         2.3085   -0.2902   -0.3993 C.ar      1 <0>        -0.0121
     25 C17         3.4999   -1.0144   -0.2780 C.ar      1 <0>        -0.1725
     26 C18         3.8819   -2.3901   -0.5820 C.2       1 <0>         0.0852
     27 N3          5.1362   -2.5349   -0.2627 N.2       1 <0>        -0.2426
     28 N4          5.6443   -1.3352    0.2458 N.pl3     1 <0>        -0.5094
     29 H2          6.5821   -1.1895    0.5610 H         1 <0>         0.4491
     30 C19         4.6494   -0.3902    0.2427 C.ar      1 <0>         0.1424
     31 C20         4.5930    0.9468    0.6288 C.ar      1 <0>        -0.1644
     32 C21         3.4167    1.6504    0.5000 C.ar      1 <0>         0.1316
     33 F4          3.3672    2.9469    0.8764 F         1 <0>        -0.1298
     34 H3         -2.4646   -0.5291    1.0795 H         1 <0>         0.0970
     35 H4         -3.4537   -0.6314   -0.3968 H         1 <0>         0.0668
     36 H5         -1.6781   -0.6809   -0.5101 H         1 <0>         0.1274
     37 H6         -2.1922    3.6027   -2.1612 H         1 <0>         0.1183
     38 H7         -2.5055    4.9474   -1.0375 H         1 <0>         0.1187
     39 H8         -4.4972    1.5293    0.0732 H         1 <0>         0.4187
     40 H9         -3.3159    3.1544    1.5021 H         1 <0>         0.1297
     41 H10        -3.5326    4.1570    3.7406 H         1 <0>         0.1368
     42 H11         0.2858    6.0011    3.2843 H         1 <0>         0.1398
     43 H12         0.5062    4.9916    1.0492 H         1 <0>         0.1380
     44 H13         1.1161    2.7164   -0.3283 H         1 <0>         0.4096
     45 H14         1.4223   -0.7649   -0.7939 H         1 <0>         0.1602
     46 H15         3.2390   -3.1520   -0.9973 H         1 <0>         0.2016
     47 H16         5.4713    1.4311    1.0293 H         1 <0>         0.1444
@<TRIPOS>BOND
     1    1    2 1
     2    1   34 1
     3    1   35 1
     4    1   36 1
     5    2    9 1
     6    2    3 2
     7    3    4 1
     8    3   20 1
     9    4    5 1
    10    4    6 1
    11    4   10 1
    12    6    7 1
    13    6   37 1
    14    6   38 1
    15    7    8 2
    16    7    9 am
    17    9   39 1
    18   10   15 ar
    19   10   11 ar
    20   11   12 ar
    21   11   40 1
    22   12   13 ar
    23   12   41 1
    24   13   14 ar
    25   13   16 1
    26   14   15 ar
    27   14   42 1
    28   15   43 1
    29   16   17 1
    30   16   18 1
    31   16   19 1
    32   20   21 2
    33   20   22 am
    34   22   23 1
    35   22   44 1
    36   23   32 ar
    37   23   24 ar
    38   24   25 ar
    39   24   45 1
    40   25   30 ar
    41   25   26 1
    42   26   27 2
    43   26   46 1
    44   27   28 1
    45   28   29 1
    46   28   30 1
    47   30   31 ar
    48   31   32 ar
    49   31   47 1
    50   32   33 1
@<TRIPOS>MOLECULE
ZINC03950132
   46    49     0     0     0
SMALL
USER_CHARGES
4-(2-amino-4-methyl-thiazol-5-yl)-N-(4-morpholinophenyl)-pyrimidin-2-amine
@<TRIPOS>ATOM
      1 C1          4.1560   -0.7976    0.1288 C.3       1 <0>        -0.0903
      2 C2          5.0273    0.0086   -0.7995 C.2       1 <0>         0.1857
      3 C3          4.5164    1.0708   -1.5011 C.2       1 <0>        -0.2392
      4 S1          5.9673    1.6025   -2.3985 S.3       1 <0>         0.0763
      5 C4          7.0692    0.4161   -1.7712 C.2       1 <0>         0.3657
      6 N1          6.2965   -0.2857   -0.9592 N.2       1 <0>        -0.5890
      7 N2          8.4111    0.2448   -2.0535 N.pl3     1 <0>        -0.7876
      8 C5          3.1483    1.6180   -1.5155 C.ar      1 <0>         0.3312
      9 C6          2.8322    2.7257   -2.3152 C.ar      1 <0>        -0.2802
     10 C7          1.5368    3.2027   -2.2949 C.ar      1 <0>         0.1966
     11 N3          0.6368    2.6054   -1.5271 N.ar      1 <0>        -0.5647
     12 C8          0.9611    1.5596   -0.7803 C.ar      1 <0>         0.5701
     13 N4          2.1912    1.0711   -0.7636 N.ar      1 <0>        -0.5604
     14 N5         -0.0111    0.9658    0.0074 N.pl3     1 <0>        -0.6370
     15 C9         -1.2863    1.5388    0.0969 C.ar      1 <0>         0.1437
     16 C10        -1.4323    2.9189    0.0487 C.ar      1 <0>        -0.0851
     17 C11        -2.6897    3.4834    0.1313 C.ar      1 <0>        -0.1473
     18 C12        -3.8073    2.6715    0.2739 C.ar      1 <0>         0.0899
     19 C13        -3.6607    1.2916    0.3278 C.ar      1 <0>        -0.1158
     20 C14        -2.4038    0.7269    0.2395 C.ar      1 <0>        -0.1224
     21 N6         -5.0813    3.2440    0.3639 N.pl3     1 <0>        -0.4867
     22 C15        -5.9729    2.7112   -0.6765 C.3       1 <0>         0.0197
     23 C16        -7.3681    3.3176   -0.5049 C.3       1 <0>         0.0614
     24 O1         -7.2718    4.7437   -0.5527 O.3       1 <0>        -0.3833
     25 C17        -6.4117    5.2965    0.4473 C.3       1 <0>         0.0618
     26 C18        -5.0068    4.7101    0.2853 C.3       1 <0>         0.0127
     27 H1          3.7021   -1.6212   -0.4225 H         1 <0>         0.0783
     28 H2          4.7625   -1.1956    0.9423 H         1 <0>         0.0703
     29 H3          3.3730   -0.1593    0.5381 H         1 <0>         0.1010
     30 H4          8.9087   -0.4711   -1.6283 H         1 <0>         0.4198
     31 H5          8.8554    0.8405   -2.6769 H         1 <0>         0.4237
     32 H6          3.5844    3.1948   -2.9320 H         1 <0>         0.1421
     33 H7          1.2595    4.0540   -2.8990 H         1 <0>         0.1715
     34 H8          0.1898    0.1510    0.4938 H         1 <0>         0.4230
     35 H9         -0.5628    3.5505   -0.0578 H         1 <0>         0.1350
     36 H10        -2.8037    4.5566    0.0890 H         1 <0>         0.1283
     37 H11        -4.5298    0.6602    0.4391 H         1 <0>         0.1282
     38 H12        -2.2898   -0.3462    0.2811 H         1 <0>         0.1273
     39 H13        -5.5813    2.9716   -1.6599 H         1 <0>         0.0534
     40 H14        -6.0334    1.6268   -0.5837 H         1 <0>         0.0927
     41 H15        -7.7817    3.0127    0.4564 H         1 <0>         0.0622
     42 H16        -8.0182    2.9696   -1.3076 H         1 <0>         0.1028
     43 H17        -6.7975    5.0492    1.4363 H         1 <0>         0.0619
     44 H18        -6.3694    6.3797    0.3336 H         1 <0>         0.1028
     45 H19        -4.3621    5.0849    1.0802 H         1 <0>         0.0937
     46 H20        -4.5990    5.0025   -0.6823 H         1 <0>         0.0563
@<TRIPOS>BOND
     1    1    2 1
     2    1   27 1
     3    1   28 1
     4    1   29 1
     5    2    6 1
     6    2    3 2
     7    3    4 1
     8    3    8 1
     9    4    5 1
    10    5    6 2
    11    5    7 1
    12    7   30 1
    13    7   31 1
    14    8   13 ar
    15    8    9 ar
    16    9   10 ar
    17    9   32 1
    18   10   11 ar
    19   10   33 1
    20   11   12 ar
    21   12   13 ar
    22   12   14 1
    23   14   15 1
    24   14   34 1
    25   15   20 ar
    26   15   16 ar
    27   16   17 ar
    28   16   35 1
    29   17   18 ar
    30   17   36 1
    31   18   19 ar
    32   18   21 1
    33   19   20 ar
    34   19   37 1
    35   20   38 1
    36   21   26 1
    37   21   22 1
    38   22   23 1
    39   22   39 1
    40   22   40 1
    41   23   24 1
    42   23   41 1
    43   23   42 1
    44   24   25 1
    45   25   26 1
    46   25   43 1
    47   25   44 1
    48   26   45 1
    49   26   46 1
@<TRIPOS>MOLECULE
ZINC06718642
   44    46     0     0     0
SMALL
USER_CHARGES
1-[2-amino-7-(3-hydroxypropyl)-9-(p-tolyl)-3,5,7-triazabicyclo[4.3.0]nona-2,4,8,10-tetraen-8-yl]-2-fluoro-ethanone
@<TRIPOS>ATOM
      1 C1         -0.3086   -6.7342   -4.2199 C.3       1 <0>        -0.1202
      2 C2         -0.2380   -5.5323   -3.3135 C.ar      1 <0>        -0.0734
      3 C3         -1.2449   -5.3043   -2.3922 C.ar      1 <0>        -0.1189
      4 C4         -1.1861   -4.2063   -1.5593 C.ar      1 <0>        -0.1029
      5 C5         -0.1080   -3.3240   -1.6476 C.ar      1 <0>        -0.0516
      6 C6          0.9016   -3.5568   -2.5831 C.ar      1 <0>        -0.0906
      7 C7          0.8333   -4.6615   -3.4065 C.ar      1 <0>        -0.1155
      8 C8         -0.0387   -2.1445   -0.7581 C.2       1 <0>        -0.0252
      9 C9          0.1543   -2.1487    0.6904 C.ar      1 <0>        -0.2585
     10 C10         0.3258   -3.1516    1.6613 C.ar      1 <0>         0.5060
     11 N1          0.4796   -2.7822    2.9297 N.ar      1 <0>        -0.6024
     12 C11         0.4721   -1.5071    3.2724 C.ar      1 <0>         0.3757
     13 N2          0.3151   -0.5355    2.3995 N.ar      1 <0>        -0.5717
     14 C12         0.1531   -0.8016    1.1032 C.ar      1 <0>         0.3655
     15 N3         -0.0266   -0.0195   -0.0022 N.pl3     1 <0>        -0.4316
     16 C13        -0.1493   -0.8097   -1.1320 C.2       1 <0>        -0.0111
     17 C14        -0.3505   -0.3386   -2.4464 C.2       1 <0>         0.3990
     18 O1          0.6036   -0.1211   -3.1664 O.2       1 <0>        -0.3919
     19 C15        -1.7488   -0.1052   -2.9575 C.3       1 <0>         0.0406
     20 F1         -1.6987    0.2390   -4.3126 F         1 <0>        -0.1899
     21 C16        -0.0871    1.4443    0.0075 C.3       1 <0>         0.1088
     22 C17         1.3204    2.0141   -0.1794 C.3       1 <0>        -0.1409
     23 C18         1.2572    3.5428   -0.1693 C.3       1 <0>         0.0822
     24 O2          2.5718    4.0751   -0.3438 O.3       1 <0>        -0.5712
     25 N4          0.3346   -4.4851    1.3068 N.pl3     1 <0>        -0.8214
     26 H1         -0.8373   -6.4684   -5.1352 H         1 <0>         0.0744
     27 H2          0.7009   -7.0635   -4.4660 H         1 <0>         0.0691
     28 H3         -0.8404   -7.5400   -3.7140 H         1 <0>         0.0692
     29 H4         -2.0785   -5.9877   -2.3250 H         1 <0>         0.1287
     30 H5         -1.9727   -4.0294   -0.8406 H         1 <0>         0.1269
     31 H6          1.7362   -2.8756   -2.6595 H         1 <0>         0.1261
     32 H7          1.6158   -4.8450   -4.1279 H         1 <0>         0.1280
     33 H8          0.6008   -1.2508    4.3136 H         1 <0>         0.2032
     34 H9         -2.2883   -0.9397   -2.8453 H         1 <0>         0.1014
     35 H10        -2.2112    0.7050   -2.3937 H         1 <0>         0.1136
     36 H11        -0.7286    1.7868   -0.8045 H         1 <0>         0.0897
     37 H12        -0.4935    1.7848    0.9599 H         1 <0>         0.1094
     38 H13         1.9619    1.6716    0.6326 H         1 <0>         0.0832
     39 H14         1.7268    1.6736   -1.1318 H         1 <0>         0.0783
     40 H15         0.6158    3.8853   -0.9813 H         1 <0>         0.0485
     41 H16         0.8509    3.8833    0.7831 H         1 <0>         0.0525
     42 H17         2.6077    5.0414   -0.3475 H         1 <0>         0.3847
     43 H18         0.4541   -5.1668    1.9865 H         1 <0>         0.4109
     44 H19         0.2213   -4.7409    0.3780 H         1 <0>         0.4132
@<TRIPOS>BOND
     1    1    2 1
     2    1   26 1
     3    1   27 1
     4    1   28 1
     5    2    7 ar
     6    2    3 ar
     7    3    4 ar
     8    3   29 1
     9    4    5 ar
    10    4   30 1
    11    5    6 ar
    12    5    8 1
    13    6    7 ar
    14    6   31 1
    15    7   32 1
    16    8   16 2
    17    8    9 1
    18    9   14 ar
    19    9   10 ar
    20   10   11 ar
    21   10   25 1
    22   11   12 ar
    23   12   13 ar
    24   12   33 1
    25   13   14 ar
    26   14   15 1
    27   15   16 1
    28   15   21 1
    29   16   17 1
    30   17   18 2
    31   17   19 1
    32   19   20 1
    33   19   34 1
    34   19   35 1
    35   21   22 1
    36   21   36 1
    37   21   37 1
    38   22   23 1
    39   22   38 1
    40   22   39 1
    41   23   24 1
    42   23   40 1
    43   23   41 1
    44   24   42 1
    45   25   43 1
    46   25   44 1
@<TRIPOS>MOLECULE
ZINC03964325
   57    59     0     0     0
SMALL
USER_CHARGES

@<TRIPOS>ATOM
      1 C1          0.1489    2.0884    0.1150 C.3       1 <0>        -0.1876
      2 C2          0.1348    0.5603    0.1888 C.3       1 <0>        -0.0191
      3 N1         -1.2520    0.0881    0.2979 N.4       1 <0>        -0.3822
      4 C3         -1.9779    0.4111   -0.9377 C.3       1 <0>        -0.0142
      5 C4         -3.4549    0.0484   -0.7712 C.3       1 <0>        -0.1895
      6 C5         -1.2593   -1.3663    0.5041 C.3       1 <0>        -0.0265
      7 C6         -0.6131   -1.6936    1.8518 C.3       1 <0>         0.0952
      8 N2         -0.6203   -3.1440    2.0575 N.am      1 <0>        -0.7289
      9 C7         -0.0988   -3.6675    3.1846 C.2       1 <0>         0.6111
     10 O1          0.3779   -2.9358    4.0309 O.2       1 <0>        -0.5184
     11 C8         -0.1061   -5.1270    3.3915 C.2       1 <0>        -0.2420
     12 C9          0.9071   -6.0320    3.0089 C.2       1 <0>        -0.0577
     13 C10         0.4868   -7.2892    3.3960 C.2       1 <0>        -0.0075
     14 N3         -0.7476   -7.1595    3.9982 N.pl3     1 <0>        -0.4910
     15 H1         -1.2731   -7.8879    4.3645 H         1 <0>         0.4270
     16 C11        -1.1044   -5.8642    4.0022 C.2       1 <0>         0.1158
     17 C12        -2.3825   -5.3072    4.5743 C.3       1 <0>        -0.0999
     18 C13         1.1957   -8.4957    3.2079 C.2       1 <0>         0.0729
     19 C14         0.5100   -9.6674    2.9570 C.2       1 <0>        -0.1889
     20 C15         1.0648  -11.0377    2.8871 C.ar      1 <0>        -0.0736
     21 C16         2.3472  -11.5557    3.0375 C.ar      1 <0>        -0.1000
     22 C17         2.5553  -12.9162    2.9116 C.ar      1 <0>         0.0861
     23 C18         1.4888  -13.7593    2.6366 C.ar      1 <0>        -0.1139
     24 C19         0.2139  -13.2531    2.4856 C.ar      1 <0>        -0.1021
     25 C20        -0.0144  -11.8871    2.6092 C.ar      1 <0>         0.1282
     26 N4         -1.1765  -11.1301    2.5069 N.am      1 <0>        -0.6466
     27 C21        -0.9294   -9.8245    2.7079 C.2       1 <0>         0.5595
     28 O2         -1.7538   -8.9280    2.6842 O.2       1 <0>        -0.5156
     29 F1          3.7984  -13.4252    3.0561 F         1 <0>        -0.1318
     30 C22         2.1990   -5.6919    2.3116 C.3       1 <0>        -0.0931
     31 H2          1.1793    2.4435    0.1331 H         1 <0>         0.1076
     32 H3         -0.3308    2.4121   -0.8087 H         1 <0>         0.0811
     33 H4         -0.3916    2.4984    0.9682 H         1 <0>         0.0809
     34 H5          0.5888    0.1488   -0.7126 H         1 <0>         0.1317
     35 H6          0.6996    0.2334    1.0619 H         1 <0>         0.1337
     36 H7         -1.8867    1.4775   -1.1444 H         1 <0>         0.1351
     37 H8         -1.5554   -0.1571   -1.7664 H         1 <0>         0.1307
     38 H9         -3.5537   -1.0316   -0.6617 H         1 <0>         0.0802
     39 H10        -3.8523    0.5414    0.1160 H         1 <0>         0.0808
     40 H11        -4.0109    0.3769   -1.6492 H         1 <0>         0.1074
     41 H12        -2.2871   -1.7292    0.4963 H         1 <0>         0.1397
     42 H13        -0.6973   -1.8494   -0.2952 H         1 <0>         0.1376
     43 H14         0.4147   -1.3306    1.8596 H         1 <0>         0.0893
     44 H15        -1.1751   -1.2105    2.6511 H         1 <0>         0.0890
     45 H16        -1.0005   -3.7277    1.3824 H         1 <0>         0.4099
     46 H17        -3.1529   -5.3000    3.8032 H         1 <0>         0.0840
     47 H18        -2.7087   -5.9289    5.4080 H         1 <0>         0.0782
     48 H19        -2.2103   -4.2898    4.9254 H         1 <0>         0.0840
     49 H20         2.2744   -8.5020    3.2604 H         1 <0>         0.1589
     50 H21         3.1765  -10.8977    3.2512 H         1 <0>         0.1436
     51 H22         1.6578  -14.8215    2.5394 H         1 <0>         0.1485
     52 H23        -0.6084  -13.9196    2.2712 H         1 <0>         0.1415
     53 H24        -2.0541  -11.4980    2.3189 H         1 <0>         0.4217
     54 H25         2.9686   -5.4822    3.0545 H         1 <0>         0.0785
     55 H26         2.5107   -6.5337    1.6932 H         1 <0>         0.0726
     56 H27         2.0522   -4.8138    1.6827 H         1 <0>         0.0634
     57 H28        -1.7009    0.5410    1.0799 H         1 <0>         0.4247
@<TRIPOS>BOND
     1    1    2 1
     2    1   31 1
     3    1   32 1
     4    1   33 1
     5    2    3 1
     6    2   34 1
     7    2   35 1
     8    3    4 1
     9    3    6 1
    10    3   57 1
    11    4    5 1
    12    4   36 1
    13    4   37 1
    14    5   38 1
    15    5   39 1
    16    5   40 1
    17    6    7 1
    18    6   41 1
    19    6   42 1
    20    7    8 1
    21    7   43 1
    22    7   44 1
    23    8    9 am
    24    8   45 1
    25    9   10 2
    26    9   11 1
    27   11   16 2
    28   11   12 1
    29   12   13 2
    30   12   30 1
    31   13   14 1
    32   13   18 1
    33   14   15 1
    34   14   16 1
    35   16   17 1
    36   17   46 1
    37   17   47 1
    38   17   48 1
    39   18   19 2
    40   18   49 1
    41   19   27 1
    42   19   20 1
    43   20   25 ar
    44   20   21 ar
    45   21   22 ar
    46   21   50 1
    47   22   23 ar
    48   22   29 1
    49   23   24 ar
    50   23   51 1
    51   24   25 ar
    52   24   52 1
    53   25   26 1
    54   26   27 am
    55   26   53 1
    56   27   28 2
    57   30   54 1
    58   30   55 1
    59   30   56 1
@<TRIPOS>MOLECULE
ZINC03797930
   57    61     0     0     0
SMALL
USER_CHARGES

@<TRIPOS>ATOM
      1 C1         -0.0178    1.4608    0.0101 C.3       1 <0>         0.0756
      2 N1          0.0021   -0.0041    0.0020 N.pl3     1 <0>        -0.4779
      3 C2          0.0079   -0.7756   -1.1193 C.2       1 <0>         0.1034
      4 C3          0.0281   -2.0937   -0.7697 C.2       1 <0>        -0.1402
      5 C4          0.0354   -2.1368    0.7032 C.ar      1 <0>        -0.0754
      6 C5          0.0236   -0.7983    1.1297 C.ar      1 <0>         0.0946
      7 C6          0.0313   -0.5163    2.4916 C.ar      1 <0>        -0.1255
      8 C7          0.0535   -1.5463    3.4071 C.ar      1 <0>        -0.0992
      9 C8          0.0683   -2.8675    2.9845 C.ar      1 <0>        -0.1386
     10 C9          0.0542   -3.1677    1.6397 C.ar      1 <0>        -0.0735
     11 C10         0.0398   -3.2475   -1.6846 C.2       1 <0>        -0.0198
     12 C11         1.1172   -3.7122   -2.4298 C.2       1 <0>        -0.0395
     13 C12         0.6208   -4.8840   -3.1806 C.2       1 <0>         0.5564
     14 O1          1.2746   -5.5640   -3.9461 O.2       1 <0>        -0.4464
     15 N2         -0.6740   -5.0726   -2.8749 N.am      1 <0>        -0.6902
     16 C13        -1.0897   -4.1493   -1.9915 C.2       1 <0>         0.5532
     17 O2         -2.2087   -4.0674   -1.5257 O.2       1 <0>        -0.4418
     18 C14         2.4779   -3.1502   -2.4643 C.2       1 <0>        -0.1185
     19 C15         3.4364   -3.2746   -1.5022 C.2       1 <0>         0.0933
     20 N3          4.5640   -2.6188   -1.8910 N.pl3     1 <0>        -0.4798
     21 C16         4.3781   -2.0398   -3.1293 C.ar      1 <0>         0.0962
     22 C17         3.0730   -2.3483   -3.5479 C.ar      1 <0>        -0.0752
     23 C18         2.6089   -1.8925   -4.7796 C.ar      1 <0>        -0.0686
     24 C19         3.4370   -1.1416   -5.5852 C.ar      1 <0>        -0.1351
     25 C20         4.7273   -0.8397   -5.1749 C.ar      1 <0>        -0.0935
     26 C21         5.1968   -1.2769   -3.9550 C.ar      1 <0>        -0.1304
     27 C22         5.7987   -2.5392   -1.1066 C.3       1 <0>         0.1213
     28 C23         5.8024   -1.2444   -0.2914 C.3       1 <0>        -0.1304
     29 C24         7.0919   -1.1612    0.5278 C.3       1 <0>        -0.1323
     30 S1          7.0963    0.3739    1.4943 S.3       1 <0>         0.0637
     31 C25         8.6242    0.3216    2.3704 C.cat     1 <0>         0.4855
     32 N4          9.2482    1.4553    2.6902 N.pl3     1 <0>        -0.7357
     33 N5          9.1561   -0.8516    2.7133 N.pl3     1 <0>        -0.7643
     34 H1          1.0048    1.8381    0.0023 H         1 <0>         0.0705
     35 H2         -0.5450    1.8219   -0.8730 H         1 <0>         0.0878
     36 H3         -0.5280    1.8123    0.9069 H         1 <0>         0.0849
     37 H4         -0.0026   -0.4009   -2.1322 H         1 <0>         0.1741
     38 H5          0.0202    0.5088    2.8315 H         1 <0>         0.1196
     39 H6          0.0598   -1.3227    4.4637 H         1 <0>         0.1265
     40 H7          0.0861   -3.6646    3.7130 H         1 <0>         0.1250
     41 H8          0.0669   -4.1972    1.3134 H         1 <0>         0.1196
     42 H9         -1.2301   -5.7795   -3.2382 H         1 <0>         0.4308
     43 H10         3.3186   -3.8118   -0.5727 H         1 <0>         0.1746
     44 H11         1.6050   -2.1267   -5.1017 H         1 <0>         0.1223
     45 H12         3.0800   -0.7868   -6.5407 H         1 <0>         0.1277
     46 H13         5.3679   -0.2507   -5.8146 H         1 <0>         0.1281
     47 H14         6.2036   -1.0375   -3.6461 H         1 <0>         0.1168
     48 H15         5.8563   -3.3934   -0.4320 H         1 <0>         0.1002
     49 H16         6.6571   -2.5481   -1.7783 H         1 <0>         0.0963
     50 H17         5.7448   -0.3902   -0.9660 H         1 <0>         0.0946
     51 H18         4.9440   -1.2354    0.3802 H         1 <0>         0.0946
     52 H19         7.1495   -2.0155    1.2024 H         1 <0>         0.1123
     53 H20         7.9503   -1.1702   -0.1438 H         1 <0>         0.1212
     54 H21         8.8612    2.3090    2.4406 H         1 <0>         0.4515
     55 H22         8.7020   -1.6765    2.4806 H         1 <0>         0.4429
     56 H23         9.9972   -0.8803    3.1956 H         1 <0>         0.4324
     57 H24        10.0893    1.4265    3.1725 H         1 <0>         0.4339
@<TRIPOS>BOND
     1    1    2 1
     2    1   34 1
     3    1   35 1
     4    1   36 1
     5    2    6 1
     6    2    3 1
     7    3    4 2
     8    3   37 1
     9    4    5 1
    10    4   11 1
    11    5   10 ar
    12    5    6 ar
    13    6    7 ar
    14    7    8 ar
    15    7   38 1
    16    8    9 ar
    17    8   39 1
    18    9   10 ar
    19    9   40 1
    20   10   41 1
    21   11   16 1
    22   11   12 2
    23   12   13 1
    24   12   18 1
    25   13   14 2
    26   13   15 am
    27   15   16 am
    28   15   42 1
    29   16   17 2
    30   18   22 1
    31   18   19 2
    32   19   20 1
    33   19   43 1
    34   20   21 1
    35   20   27 1
    36   21   26 ar
    37   21   22 ar
    38   22   23 ar
    39   23   24 ar
    40   23   44 1
    41   24   25 ar
    42   24   45 1
    43   25   26 ar
    44   25   46 1
    45   26   47 1
    46   27   28 1
    47   27   48 1
    48   27   49 1
    49   28   29 1
    50   28   50 1
    51   28   51 1
    52   29   30 1
    53   29   52 1
    54   29   53 1
    55   30   31 1
    56   31   32 2
    57   31   33 1
    58   32   54 1
    59   32   57 1
    60   33   55 1
    61   33   56 1
