@<TRIPOS>MOLECULE
ZINC31262374
   26    28     0     0     0
SMALL
USER_CHARGES
(3E)-3-(1H-pyrrol-2-ylmethylene)indolin-2-one
@<TRIPOS>ATOM
      1 C1          2.8632    5.7907    0.0934 C.ar      1 <0>        -0.1308
      2 C2          2.9460    7.1677    0.2178 C.ar      1 <0>        -0.0890
      3 C3          1.8031    7.9357    0.3086 C.ar      1 <0>        -0.1290
      4 C4          0.5514    7.3306    0.2757 C.ar      1 <0>         0.1403
      5 C5          0.4717    5.9370    0.1497 C.ar      1 <0>        -0.0979
      6 C6          1.6301    5.1719    0.0590 C.ar      1 <0>        -0.1236
      7 C7         -0.9693    5.6006    0.1449 C.2       1 <0>        -0.2352
      8 C8         -1.5392    4.3462    0.0397 C.2       1 <0>         0.0941
      9 C9         -0.8354    3.2117    0.4939 C.2       1 <0>        -0.0290
     10 C10        -1.2107    1.8886    0.3184 C.2       1 <0>        -0.1185
     11 C11        -0.2313    1.1012    0.9266 C.2       1 <0>        -0.2146
     12 C12         0.7098    1.9297    1.4439 C.2       1 <0>         0.0444
     13 N1          0.3553    3.2142    1.1882 N.pl3     1 <0>        -0.5569
     14 H1          0.8447    4.1673    1.4373 H         1 <0>         0.4516
     15 C13        -1.6627    6.8891    0.2695 C.2       1 <0>         0.5695
     16 O1         -2.8696    7.0524    0.3006 O.2       1 <0>        -0.5120
     17 N2         -0.7328    7.8561    0.3469 N.am      1 <0>        -0.6661
     18 H2          3.7649    5.2004    0.0232 H         1 <0>         0.1309
     19 H3          3.9145    7.6450    0.2444 H         1 <0>         0.1328
     20 H4          1.8807    9.0086    0.4049 H         1 <0>         0.1298
     21 H5          1.5647    4.0982   -0.0377 H         1 <0>         0.1426
     22 H6         -2.5418    4.2326   -0.3983 H         1 <0>         0.1599
     23 H7         -2.0948    1.5341   -0.1906 H         1 <0>         0.1470
     24 H8         -0.2223    0.0222    0.9730 H         1 <0>         0.1450
     25 H9          1.5977    1.6174    1.9736 H         1 <0>         0.1716
     26 H10        -0.8779    8.9413    0.4531 H         1 <0>         0.4431
@<TRIPOS>BOND
     1    1    6 ar
     2    1    2 ar
     3    1   18 1
     4    2    3 ar
     5    2   19 1
     6    3    4 ar
     7    3   20 1
     8    4   17 1
     9    4    5 ar
    10    5    6 ar
    11    5    7 1
    12    6   21 1
    13    7    8 2
    14    7   15 1
    15    8    9 1
    16    8   22 1
    17    9   13 1
    18    9   10 2
    19   10   11 1
    20   10   23 1
    21   11   12 2
    22   11   24 1
    23   12   13 1
    24   12   25 1
    25   13   14 1
    26   15   16 2
    27   15   17 am
    28   17   26 1
@<TRIPOS>MOLECULE
ZINC13538923
   40    43     0     0     0
SMALL
USER_CHARGES

@<TRIPOS>ATOM
      1 C1         -1.2942    1.1333    0.3364 C.3       1 <0>         0.0709
      2 N1         -0.6190   -0.1533    0.1494 N.pl3     1 <0>        -0.4680
      3 C2         -0.8312   -0.9909   -0.8933 C.2       1 <0>         0.1712
      4 C3         -0.0325   -2.1079   -0.7563 C.2       1 <0>        -0.2234
      5 C4          0.7321   -1.9177    0.4922 C.ar      1 <0>        -0.0687
      6 C5          0.3260   -0.6771    1.0085 C.ar      1 <0>         0.0797
      7 C6          0.8866   -0.2168    2.1955 C.ar      1 <0>        -0.1178
      8 C7          1.8329   -0.9761    2.8494 C.ar      1 <0>        -0.1047
      9 C8          2.2354   -2.1996    2.3354 C.ar      1 <0>        -0.1308
     10 C9          1.6849   -2.6767    1.1652 C.ar      1 <0>        -0.0821
     11 C10         0.0388   -3.2145   -1.6360 C.2       1 <0>         0.1173
     12 C11        -0.0743   -3.0218   -2.9978 C.2       1 <0>        -0.2242
     13 C12        -0.1902   -4.0592   -4.0474 C.ar      1 <0>        -0.1075
     14 C13        -0.2203   -5.4495   -4.0151 C.ar      1 <0>         0.0300
     15 C14        -0.3391   -6.1589   -5.1930 C.ar      1 <0>        -0.6971
     16 C15        -0.4279   -5.4883   -6.4017 C.ar      1 <0>         0.0105
     17 C16        -0.3990   -4.1094   -6.4445 C.ar      1 <0>        -0.1560
     18 C17        -0.2798   -3.3771   -5.2681 C.ar      1 <0>         0.1980
     19 N2         -0.2265   -2.0092   -5.0311 N.am      1 <0>        -0.6532
     20 C18        -0.1122   -1.7435   -3.7187 C.2       1 <0>         0.5621
     21 O1         -0.0484   -0.6357   -3.2156 O.2       1 <0>        -0.5037
     22 S1         -0.3772   -7.9202   -5.1592 S.o2      1 <0>         2.7051
     23 O2          0.0545   -8.3604   -6.4395 O.2       1 <0>        -0.9630
     24 O3          0.2708   -8.3174   -3.9585 O.2       1 <0>        -0.9629
     25 N3         -1.9634   -8.3728   -5.0130 N.pl3     1 <0>        -1.2506
     26 H1         -0.7179    1.9202   -0.1501 H         1 <0>         0.0774
     27 H2         -2.2906    1.0881   -0.1031 H         1 <0>         0.0877
     28 H3         -1.3765    1.3490    1.4017 H         1 <0>         0.0861
     29 H4         -1.5195   -0.8125   -1.7063 H         1 <0>         0.1789
     30 H5          0.5808    0.7349    2.6042 H         1 <0>         0.1207
     31 H6          2.2653   -0.6146    3.7707 H         1 <0>         0.1280
     32 H7          2.9784   -2.7841    2.8577 H         1 <0>         0.1269
     33 H8          2.0004   -3.6294    0.7661 H         1 <0>         0.1257
     34 H9          0.1817   -4.2097   -1.2414 H         1 <0>         0.1423
     35 H10        -0.1506   -5.9716   -3.0723 H         1 <0>         0.1480
     36 H11        -0.5203   -6.0501   -7.3195 H         1 <0>         0.1508
     37 H12        -0.4687   -3.5979   -7.3931 H         1 <0>         0.1390
     38 H13        -0.2700   -1.3320   -5.7243 H         1 <0>         0.4195
     39 H14        -2.6580   -7.6975   -4.9641 H         1 <0>         0.4169
     40 H15        -2.1980   -9.3133   -4.9763 H         1 <0>         0.4212
@<TRIPOS>BOND
     1    1    2 1
     2    1   26 1
     3    1   27 1
     4    1   28 1
     5    2    6 1
     6    2    3 1
     7    3    4 2
     8    3   29 1
     9    4    5 1
    10    4   11 1
    11    5   10 ar
    12    5    6 ar
    13    6    7 ar
    14    7    8 ar
    15    7   30 1
    16    8    9 ar
    17    8   31 1
    18    9   10 ar
    19    9   32 1
    20   10   33 1
    21   11   12 2
    22   11   34 1
    23   12   20 1
    24   12   13 1
    25   13   18 ar
    26   13   14 ar
    27   14   15 ar
    28   14   35 1
    29   15   16 ar
    30   15   22 1
    31   16   17 ar
    32   16   36 1
    33   17   18 ar
    34   17   37 1
    35   18   19 1
    36   19   20 am
    37   19   38 1
    38   20   21 2
    39   22   23 2
    40   22   24 2
    41   22   25 1
    42   25   39 1
    43   25   40 1
@<TRIPOS>MOLECULE
ZINC03817793
   47    50     0     0     0
SMALL
USER_CHARGES
2-[[3-(3,4-dimethoxyphenyl)-4,6,9-triazabicyclo[4.3.0]nona-2,4,7,9-tetraen-5-yl]amino]pyridine-3-carboxamide
@<TRIPOS>ATOM
      1 C1         -9.3764    4.3933    0.7934 C.3       1 <0>         0.0241
      2 O1         -8.2155    3.5601    0.7802 O.3       1 <0>        -0.3043
      3 C2         -7.0104    4.1820    0.6869 C.ar      1 <0>         0.1157
      4 C3         -6.9496    5.5657    0.6099 C.ar      1 <0>        -0.1777
      5 C4         -5.7289    6.2010    0.5147 C.ar      1 <0>        -0.0885
      6 C5         -4.5521    5.4521    0.4962 C.ar      1 <0>        -0.0426
      7 C6         -4.6128    4.0603    0.5682 C.ar      1 <0>        -0.1279
      8 C7         -5.8388    3.4289    0.6693 C.ar      1 <0>         0.0885
      9 O2         -5.9011    2.0724    0.7453 O.3       1 <0>        -0.3035
     10 C8         -4.6604    1.3637    0.7219 C.3       1 <0>         0.0211
     11 C9         -3.2410    6.1332    0.3940 C.2       1 <0>         0.1884
     12 C10        -3.1773    7.5138    0.4213 C.2       1 <0>        -0.1663
     13 C11        -1.9148    8.1297    0.3216 C.2       1 <0>         0.2742
     14 N1         -1.5190    9.3912    0.3159 N.2       1 <0>        -0.4883
     15 C12        -0.1876    9.4338    0.1961 C.2       1 <0>         0.0463
     16 C13         0.2815    8.1703    0.1233 C.2       1 <0>        -0.0993
     17 N2         -0.8005    7.3320    0.2013 N.pl3     1 <0>        -0.4196
     18 C14        -0.9368    5.9732    0.1811 C.2       1 <0>         0.5724
     19 N3         -2.1167    5.4076    0.2696 N.2       1 <0>        -0.4686
     20 N4          0.1848    5.1827    0.0599 N.pl3     1 <0>        -0.6130
     21 C15         0.0608    3.8027    0.0381 C.ar      1 <0>         0.4370
     22 C16         1.2123    2.9977    0.0341 C.ar      1 <0>        -0.2407
     23 C17         1.0619    1.6066    0.0114 C.ar      1 <0>        -0.0063
     24 C18        -0.2193    1.0841   -0.0061 C.ar      1 <0>        -0.2126
     25 C19        -1.3048    1.9418   -0.0066 C.ar      1 <0>         0.1600
     26 N5         -1.1419    3.2501    0.0207 N.ar      1 <0>        -0.4684
     27 C20         2.5548    3.6076    0.0529 C.2       1 <0>         0.5815
     28 O3          2.6754    4.8147   -0.0303 O.2       1 <0>        -0.5523
     29 N6          3.6481    2.8270    0.1623 N.am      1 <0>        -0.8393
     30 H1         -9.3287    5.0691    1.6473 H         1 <0>         0.0568
     31 H2         -9.4171    4.9743   -0.1279 H         1 <0>         0.0569
     32 H3        -10.2686    3.7721    0.8711 H         1 <0>         0.1018
     33 H4         -7.8599    6.1467    0.6242 H         1 <0>         0.1413
     34 H5         -5.6843    7.2784    0.4542 H         1 <0>         0.1351
     35 H6         -3.7038    3.4774    0.5492 H         1 <0>         0.1572
     36 H7         -4.1353    1.5812   -0.2082 H         1 <0>         0.0557
     37 H8         -4.0472    1.6766    1.5670 H         1 <0>         0.0563
     38 H9         -4.8523    0.2929    0.7890 H         1 <0>         0.1025
     39 H10        -4.0750    8.1064    0.5174 H         1 <0>         0.1609
     40 H11         0.4129   10.3309    0.1635 H         1 <0>         0.1870
     41 H12         1.3155    7.8750    0.0227 H         1 <0>         0.1852
     42 H13         1.0614    5.5921   -0.0101 H         1 <0>         0.4425
     43 H14         1.9246    0.9568    0.0080 H         1 <0>         0.1444
     44 H15        -0.3707    0.0149   -0.0238 H         1 <0>         0.1471
     45 H16        -2.3039    1.5322   -0.0248 H         1 <0>         0.1625
     46 H17         3.5519    1.8641    0.2286 H         1 <0>         0.4050
     47 H18         4.5312    3.2282    0.1746 H         1 <0>         0.4116
@<TRIPOS>BOND
     1    1    2 1
     2    1   30 1
     3    1   31 1
     4    1   32 1
     5    2    3 1
     6    3    8 ar
     7    3    4 ar
     8    4    5 ar
     9    4   33 1
    10    5    6 ar
    11    5   34 1
    12    6    7 ar
    13    6   11 1
    14    7    8 ar
    15    7   35 1
    16    8    9 1
    17    9   10 1
    18   10   36 1
    19   10   37 1
    20   10   38 1
    21   11   19 1
    22   11   12 2
    23   12   13 1
    24   12   39 1
    25   13   17 1
    26   13   14 2
    27   14   15 1
    28   15   16 2
    29   15   40 1
    30   16   17 1
    31   16   41 1
    32   17   18 1
    33   18   19 2
    34   18   20 1
    35   20   21 1
    36   20   42 1
    37   21   26 ar
    38   21   22 ar
    39   22   23 ar
    40   22   27 1
    41   23   24 ar
    42   23   43 1
    43   24   25 ar
    44   24   44 1
    45   25   26 ar
    46   25   45 1
    47   27   28 2
    48   27   29 am
    49   29   46 1
    50   29   47 1
@<TRIPOS>MOLECULE
ZINC03817793
   48    51     0     0     0
SMALL
USER_CHARGES
2-[[3-(3,4-dimethoxyphenyl)-4,6,9-triazabicyclo[4.3.0]nona-2,4,7,9-tetraen-5-yl]amino]pyridine-3-carboxamide
@<TRIPOS>ATOM
      1 C1         -9.3764    4.3933    0.7934 C.3       1 <0>         0.0200
      2 O1         -8.2155    3.5601    0.7802 O.3       1 <0>        -0.2957
      3 C2         -7.0104    4.1820    0.6869 C.ar      1 <0>         0.1492
      4 C3         -6.9496    5.5657    0.6099 C.ar      1 <0>        -0.1850
      5 C4         -5.7289    6.2010    0.5147 C.ar      1 <0>        -0.0638
      6 C5         -4.5521    5.4521    0.4962 C.ar      1 <0>        -0.0906
      7 C6         -4.6128    4.0603    0.5682 C.ar      1 <0>        -0.1113
      8 C7         -5.8388    3.4289    0.6693 C.ar      1 <0>         0.0892
      9 O2         -5.9011    2.0724    0.7453 O.3       1 <0>        -0.2970
     10 C8         -4.6604    1.3637    0.7219 C.3       1 <0>         0.0184
     11 C9         -3.2410    6.1332    0.3940 C.2       1 <0>         0.3027
     12 C10        -3.1773    7.5138    0.4213 C.2       1 <0>        -0.2411
     13 C11        -1.9148    8.1297    0.3216 C.cat     1 <0>         0.3751
     14 C12        -0.1876    9.4338    0.1961 C.2       1 <0>         0.0720
     15 C13         0.2815    8.1703    0.1233 C.2       1 <0>        -0.0321
     16 N1         -0.8005    7.3320    0.2013 N.pl3     1 <0>        -0.4097
     17 C14        -0.9368    5.9732    0.1811 C.2       1 <0>         0.6164
     18 N2         -2.1167    5.4076    0.2696 N.2       1 <0>        -0.4567
     19 N3          0.1848    5.1827    0.0599 N.pl3     1 <0>        -0.5971
     20 C15         0.0608    3.8027    0.0381 C.ar      1 <0>         0.4138
     21 C16         1.2123    2.9977    0.0341 C.ar      1 <0>        -0.2185
     22 C17         1.0619    1.6066    0.0114 C.ar      1 <0>        -0.0062
     23 C18        -0.2193    1.0841   -0.0061 C.ar      1 <0>        -0.1876
     24 C19        -1.3048    1.9418   -0.0066 C.ar      1 <0>         0.1576
     25 N4         -1.1419    3.2501    0.0207 N.ar      1 <0>        -0.4706
     26 C20         2.5548    3.6076    0.0529 C.2       1 <0>         0.5833
     27 O3          2.6754    4.8147   -0.0303 O.2       1 <0>        -0.5591
     28 N5          3.6481    2.8270    0.1623 N.am      1 <0>        -0.8310
     29 H1         -9.3287    5.0691    1.6473 H         1 <0>         0.0616
     30 H2         -9.4171    4.9743   -0.1279 H         1 <0>         0.0616
     31 H3        -10.2686    3.7721    0.8711 H         1 <0>         0.1094
     32 H4         -7.8599    6.1467    0.6242 H         1 <0>         0.1497
     33 H5         -5.6843    7.2784    0.4542 H         1 <0>         0.1374
     34 H6         -3.7038    3.4774    0.5492 H         1 <0>         0.1599
     35 H7         -4.1353    1.5812   -0.2082 H         1 <0>         0.0568
     36 H8         -4.0472    1.6766    1.5670 H         1 <0>         0.0580
     37 H9         -4.8523    0.2929    0.7890 H         1 <0>         0.1093
     38 H10        -4.0750    8.1064    0.5174 H         1 <0>         0.1854
     39 H11         0.4129   10.3309    0.1635 H         1 <0>         0.2314
     40 H12         1.3155    7.8750    0.0227 H         1 <0>         0.2230
     41 H13         1.0614    5.5921   -0.0101 H         1 <0>         0.4474
     42 H14         1.9246    0.9568    0.0080 H         1 <0>         0.1530
     43 H15        -0.3707    0.0149   -0.0238 H         1 <0>         0.1566
     44 H16        -2.3039    1.5322   -0.0248 H         1 <0>         0.1692
     45 H17         3.5519    1.8641    0.2286 H         1 <0>         0.4089
     46 H18         4.5312    3.2282    0.1746 H         1 <0>         0.4166
     47 N6         -1.5179    9.3898    0.3158 N.pl3     1 <0>        -0.5204
     48 H19        -2.1348   10.2071    0.3913 H         1 <0>         0.4808
@<TRIPOS>BOND
     1    1    2 1
     2    1   29 1
     3    1   30 1
     4    1   31 1
     5    2    3 1
     6    3    8 ar
     7    3    4 ar
     8    4    5 ar
     9    4   32 1
    10    5    6 ar
    11    5   33 1
    12    6    7 ar
    13    6   11 1
    14    7    8 ar
    15    7   34 1
    16    8    9 1
    17    9   10 1
    18   10   35 1
    19   10   36 1
    20   10   37 1
    21   11   18 1
    22   11   12 2
    23   12   13 1
    24   12   38 1
    25   13   16 1
    26   13   47 2
    27   14   15 2
    28   14   39 1
    29   14   47 1
    30   15   16 1
    31   15   40 1
    32   16   17 1
    33   17   18 2
    34   17   19 1
    35   19   20 1
    36   19   41 1
    37   20   25 ar
    38   20   21 ar
    39   21   22 ar
    40   21   26 1
    41   22   23 ar
    42   22   42 1
    43   23   24 ar
    44   23   43 1
    45   24   25 ar
    46   24   44 1
    47   26   27 2
    48   26   28 am
    49   28   45 1
    50   28   46 1
    51   47   48 1
@<TRIPOS>MOLECULE
ZINC21982951
   60    63     0     0     0
SMALL
USER_CHARGES

@<TRIPOS>ATOM
      1 C1         -2.0700    1.6928    0.2333 C.3       1 <0>        -0.1170
      2 C2         -1.6482    0.2604    0.0301 C.ar      1 <0>        -0.0813
      3 C3         -1.8479   -0.3525   -1.1919 C.ar      1 <0>        -0.1034
      4 C4         -1.4615   -1.6665   -1.3798 C.ar      1 <0>        -0.0990
      5 C5         -0.8738   -2.3725   -0.3459 C.ar      1 <0>        -0.1046
      6 C6         -0.6714   -1.7660    0.8791 C.ar      1 <0>        -0.0220
      7 C7         -1.0534   -0.4428    1.0688 C.ar      1 <0>         0.1347
      8 N1         -0.8441    0.1769    2.3055 N.am      1 <0>        -0.6659
      9 C8         -1.2819   -0.4110    3.4365 C.2       1 <0>         0.6018
     10 O1         -1.7689   -1.5261    3.3939 O.2       1 <0>        -0.4722
     11 C9         -1.1720    0.2905    4.7149 C.2       1 <0>        -0.2635
     12 C10        -1.5472   -0.1201    5.9866 C.2       1 <0>         0.1512
     13 N2         -1.3262    0.7270    6.9599 N.2       1 <0>        -0.5510
     14 C11        -0.7756    1.9070    6.7361 C.2       1 <0>         0.2513
     15 S1         -0.5107    1.9100    5.0742 S.3       1 <0>         0.2445
     16 N3         -0.4817    2.8997    7.6498 N.pl3     1 <0>        -0.5870
     17 C12        -0.6908    2.6801    9.0050 C.ar      1 <0>         0.4543
     18 C13        -1.0534    1.4192    9.4679 C.ar      1 <0>        -0.2926
     19 C14        -1.2512    1.2508   10.8352 C.ar      1 <0>         0.4935
     20 N4         -1.0875    2.2952   11.6453 N.ar      1 <0>        -0.5328
     21 C15        -0.7435    3.4737   11.1677 C.ar      1 <0>         0.4541
     22 N5         -0.5417    3.6719    9.8809 N.ar      1 <0>        -0.5672
     23 C16        -0.5694    4.6273   12.1217 C.3       1 <0>        -0.1251
     24 N6         -1.6138    0.0143   11.3464 N.pl3     1 <0>        -0.5370
     25 C17        -2.0559   -0.1253   12.7422 C.3       1 <0>         0.1090
     26 C18        -3.3866   -0.8852   12.7576 C.3       1 <0>         0.0383
     27 N7         -3.2335   -2.1493   12.0251 N.3       1 <0>        -0.5289
     28 C19        -2.9165   -1.9105   10.6107 C.3       1 <0>         0.0343
     29 C20        -1.5725   -1.1917   10.5056 C.3       1 <0>         0.1057
     30 C21        -4.4334   -2.9856   12.1619 C.3       1 <0>         0.0545
     31 C22        -4.1483   -4.3816   11.6043 C.3       1 <0>         0.0776
     32 O2         -3.1500   -5.0191   12.4038 O.3       1 <0>        -0.5606
     33 Cl1         0.0658   -2.6526    2.1768 Cl        1 <0>        -0.0453
     34 H1         -1.2464    2.3553   -0.0328 H         1 <0>         0.0773
     35 H2         -2.9308    1.9112   -0.3987 H         1 <0>         0.0785
     36 H3         -2.3379    1.8478    1.2784 H         1 <0>         0.0640
     37 H4         -2.3069    0.1956   -2.0014 H         1 <0>         0.1372
     38 H5         -1.6193   -2.1430   -2.3361 H         1 <0>         0.1391
     39 H6         -0.5731   -3.3989   -0.4959 H         1 <0>         0.1403
     40 H7         -0.3838    1.0296    2.3489 H         1 <0>         0.4083
     41 H8         -1.9972   -1.0858    6.1634 H         1 <0>         0.2027
     42 H9         -0.1293    3.7505    7.3451 H         1 <0>         0.4460
     43 H10        -1.1784    0.5927    8.7841 H         1 <0>         0.2218
     44 H11         0.4644    4.6619   12.4652 H         1 <0>         0.1245
     45 H12        -0.8146    5.5596   11.6130 H         1 <0>         0.1071
     46 H13        -1.2322    4.4948   12.9768 H         1 <0>         0.1273
     47 H14        -1.3096   -0.6823   13.3087 H         1 <0>         0.0989
     48 H15        -2.1929    0.8619   13.1834 H         1 <0>         0.1094
     49 H16        -3.6740   -1.0944   13.7880 H         1 <0>         0.1036
     50 H17        -4.1569   -0.2794   12.2806 H         1 <0>         0.0428
     51 H18        -2.8631   -2.8634   10.0841 H         1 <0>         0.1043
     52 H19        -3.6935   -1.2904   10.1636 H         1 <0>         0.0450
     53 H20        -1.3900   -0.9091    9.4688 H         1 <0>         0.1029
     54 H21        -0.7788   -1.8532   10.8529 H         1 <0>         0.1042
     55 H22        -4.7041   -3.0633   13.2149 H         1 <0>         0.0912
     56 H23        -5.2561   -2.5340   11.6075 H         1 <0>         0.0533
     57 H24        -5.0627   -4.9745   11.6240 H         1 <0>         0.0547
     58 H25        -3.7921   -4.2970   10.5776 H         1 <0>         0.0454
     59 H26        -2.9188   -5.9101   12.1076 H         1 <0>         0.3805
     60 H27        -0.2852    4.5531    9.5669 H         1 <0>         0.4414
@<TRIPOS>BOND
     1    1    2 1
     2    1   34 1
     3    1   35 1
     4    1   36 1
     5    2    7 ar
     6    2    3 ar
     7    3    4 ar
     8    3   37 1
     9    4    5 ar
    10    4   38 1
    11    5    6 ar
    12    5   39 1
    13    6    7 ar
    14    6   33 1
    15    7    8 1
    16    8    9 am
    17    8   40 1
    18    9   10 2
    19    9   11 1
    20   11   15 1
    21   11   12 2
    22   12   13 1
    23   12   41 1
    24   13   14 2
    25   14   15 1
    26   14   16 1
    27   16   17 1
    28   16   42 1
    29   17   22 ar
    30   17   18 ar
    31   18   19 ar
    32   18   43 1
    33   19   20 ar
    34   19   24 1
    35   20   21 ar
    36   21   22 ar
    37   21   23 1
    38   22   60 1
    39   23   44 1
    40   23   45 1
    41   23   46 1
    42   24   29 1
    43   24   25 1
    44   25   26 1
    45   25   47 1
    46   25   48 1
    47   26   27 1
    48   26   49 1
    49   26   50 1
    50   27   28 1
    51   27   30 1
    52   28   29 1
    53   28   51 1
    54   28   52 1
    55   29   53 1
    56   29   54 1
    57   30   31 1
    58   30   55 1
    59   30   56 1
    60   31   32 1
    61   31   57 1
    62   31   58 1
    63   32   59 1
@<TRIPOS>MOLECULE
ZINC21982951
   60    63     0     0     0
SMALL
USER_CHARGES

@<TRIPOS>ATOM
      1 C1          3.2739    6.6585    1.8418 C.3       1 <0>        -0.1168
      2 C2          2.5810    7.9910    1.9663 C.ar      1 <0>        -0.0823
      3 C3          2.8983    9.0189    1.0995 C.ar      1 <0>        -0.1038
      4 C4          2.2635   10.2419    1.2126 C.ar      1 <0>        -0.1008
      5 C5          1.3088   10.4411    2.1933 C.ar      1 <0>        -0.1049
      6 C6          0.9869    9.4175    3.0639 C.ar      1 <0>        -0.0226
      7 C7          1.6192    8.1849    2.9486 C.ar      1 <0>         0.1373
      8 N1          1.2913    7.1440    3.8238 N.am      1 <0>        -0.6678
      9 C8          1.3128    7.3511    5.1554 C.2       1 <0>         0.6036
     10 O1          1.5184    8.4680    5.5945 O.2       1 <0>        -0.4759
     11 C9          1.0891    6.2346    6.0728 C.2       1 <0>        -0.2694
     12 C10         1.0619    6.2190    7.4604 C.2       1 <0>         0.1522
     13 N2          0.8357    5.0596    8.0247 N.2       1 <0>        -0.5060
     14 C11         0.6446    3.9678    7.3056 C.2       1 <0>         0.2464
     15 S1          0.7674    4.5141    5.7185 S.3       1 <0>         0.2029
     16 N3          0.3973    2.6842    7.7505 N.pl3     1 <0>        -0.5650
     17 C12         0.2197    2.4414    9.1063 C.ar      1 <0>         0.4999
     18 C13        -0.1342    1.1736    9.5555 C.ar      1 <0>        -0.3181
     19 C14        -0.3003    0.9817   10.9244 C.ar      1 <0>         0.4940
     20 N4         -0.1157    2.0114   11.7481 N.ar      1 <0>        -0.5712
     21 C15         0.2193    3.1978   11.2829 C.ar      1 <0>         0.4509
     22 N5          0.3911    3.4178    9.9956 N.ar      1 <0>        -0.4879
     23 C16         0.4179    4.3344   12.2523 C.3       1 <0>        -0.1253
     24 N6         -0.6531   -0.2629   11.4224 N.pl3     1 <0>        -0.5744
     25 C17        -0.9639   -0.4449   12.8484 C.3       1 <0>         0.1013
     26 C18        -2.3114   -1.1652   12.9649 C.3       1 <0>         0.0387
     27 N7         -2.2712   -2.4031   12.1749 N.3       1 <0>        -0.5277
     28 C19        -2.0835   -2.1176   10.7462 C.3       1 <0>         0.0305
     29 C20        -0.7325   -1.4351   10.5377 C.3       1 <0>         0.1149
     30 C21        -3.4796   -3.2085   12.3965 C.3       1 <0>         0.0543
     31 C22        -3.2958   -4.5889   11.7629 C.3       1 <0>         0.0774
     32 O2         -2.2472   -5.2869   12.4378 O.3       1 <0>        -0.5615
     33 Cl1        -0.2110    9.6681    4.2952 Cl        1 <0>        -0.0453
     34 H1          2.7121    6.0191    1.1609 H         1 <0>         0.0767
     35 H2          4.2810    6.8077    1.4524 H         1 <0>         0.0779
     36 H3          3.3298    6.1850    2.8220 H         1 <0>         0.0648
     37 H4          3.6435    8.8670    0.3327 H         1 <0>         0.1365
     38 H5          2.5139   11.0437    0.5337 H         1 <0>         0.1383
     39 H6          0.8148   11.3976    2.2790 H         1 <0>         0.1396
     40 H7          1.0484    6.2731    3.4723 H         1 <0>         0.4083
     41 H8          1.2191    7.1147    8.0430 H         1 <0>         0.1979
     42 H9          0.3477    1.9521    7.1161 H         1 <0>         0.4525
     43 H10        -0.2767    0.3593    8.8606 H         1 <0>         0.1835
     44 H11         1.4596    4.3615   12.5720 H         1 <0>         0.1250
     45 H12         0.1626    5.2758   11.7656 H         1 <0>         0.1301
     46 H13        -0.2249    4.1881   13.1203 H         1 <0>         0.1049
     47 H14        -0.1857   -1.0458   13.3190 H         1 <0>         0.1119
     48 H15        -1.0251    0.5276   13.3369 H         1 <0>         0.0843
     49 H16        -2.5057   -1.4068   14.0099 H         1 <0>         0.1076
     50 H17        -3.1034   -0.5184   12.5874 H         1 <0>         0.0465
     51 H18        -2.1124   -3.0499   10.1822 H         1 <0>         0.1076
     52 H19        -2.8786   -1.4576   10.3996 H         1 <0>         0.0467
     53 H20        -0.6409   -1.1170    9.4992 H         1 <0>         0.1034
     54 H21         0.0684   -2.1330   10.7819 H         1 <0>         0.1075
     55 H22        -3.6507   -3.3200   13.4672 H         1 <0>         0.0925
     56 H23        -4.3362   -2.7111   11.9416 H         1 <0>         0.0553
     57 H24        -4.2233   -5.1548   11.8494 H         1 <0>         0.0565
     58 H25        -3.0370   -4.4741   10.7103 H         1 <0>         0.0456
     59 H26        -2.0752   -6.1719   12.0881 H         1 <0>         0.3821
     60 H27        -0.2297    1.8867   12.7033 H         1 <0>         0.4392
@<TRIPOS>BOND
     1    1    2 1
     2    1   34 1
     3    1   35 1
     4    1   36 1
     5    2    7 ar
     6    2    3 ar
     7    3    4 ar
     8    3   37 1
     9    4    5 ar
    10    4   38 1
    11    5    6 ar
    12    5   39 1
    13    6    7 ar
    14    6   33 1
    15    7    8 1
    16    8    9 am
    17    8   40 1
    18    9   10 2
    19    9   11 1
    20   11   15 1
    21   11   12 2
    22   12   13 1
    23   12   41 1
    24   13   14 2
    25   14   15 1
    26   14   16 1
    27   16   17 1
    28   16   42 1
    29   17   18 ar
    30   17   22 ar
    31   18   43 1
    32   18   19 ar
    33   19   24 1
    34   19   20 ar
    35   20   60 1
    36   20   21 ar
    37   21   23 1
    38   21   22 ar
    39   23   44 1
    40   23   45 1
    41   23   46 1
    42   24   29 1
    43   24   25 1
    44   25   26 1
    45   25   47 1
    46   25   48 1
    47   26   27 1
    48   26   49 1
    49   26   50 1
    50   27   28 1
    51   27   30 1
    52   28   29 1
    53   28   51 1
    54   28   52 1
    55   29   53 1
    56   29   54 1
    57   30   31 1
    58   30   55 1
    59   30   56 1
    60   31   32 1
    61   31   57 1
    62   31   58 1
    63   32   59 1
@<TRIPOS>MOLECULE
ZINC21982951
   59    62     0     0     0
SMALL
USER_CHARGES

@<TRIPOS>ATOM
      1 C1          3.4106    6.6420    1.8847 C.3       1 <0>        -0.1165
      2 C2          2.6976    7.9659    1.9845 C.ar      1 <0>        -0.0852
      3 C3          3.0204    8.9921    1.1176 C.ar      1 <0>        -0.1055
      4 C4          2.3672   10.2073    1.2080 C.ar      1 <0>        -0.1070
      5 C5          1.3885   10.4004    2.1660 C.ar      1 <0>        -0.1064
      6 C6          1.0609    9.3785    3.0365 C.ar      1 <0>        -0.0243
      7 C7          1.7118    8.1536    2.9438 C.ar      1 <0>         0.1460
      8 N1          1.3783    7.1144    3.8189 N.am      1 <0>        -0.6734
      9 C8          1.3676    7.3308    5.1492 C.2       1 <0>         0.6131
     10 O1          1.5489    8.4533    5.5848 O.2       1 <0>        -0.4899
     11 C9          1.1384    6.2176    6.0693 C.2       1 <0>        -0.3092
     12 C10         1.0807    6.2111    7.4561 C.2       1 <0>         0.1722
     13 N2          0.8573    5.0526    8.0233 N.2       1 <0>        -0.5180
     14 C11         0.6966    3.9535    7.3079 C.2       1 <0>         0.3121
     15 S1          0.8472    4.4907    5.7202 S.3       1 <0>         0.1340
     16 N3          0.4564    2.6698    7.7563 N.pl3     1 <0>        -0.5904
     17 C12         0.2490    2.4343    9.1091 C.ar      1 <0>         0.4412
     18 C13        -0.1036    1.1661    9.5586 C.ar      1 <0>        -0.3412
     19 C14        -0.3003    0.9817   10.9244 C.ar      1 <0>         0.4686
     20 N4         -0.1450    2.0186   11.7452 N.ar      1 <0>        -0.5923
     21 C15         0.1898    3.2050   11.2799 C.ar      1 <0>         0.3946
     22 N5          0.3901    3.4182    9.9956 N.ar      1 <0>        -0.5459
     23 C16         0.3546    4.3498   12.2460 C.3       1 <0>        -0.0834
     24 N6         -0.6531   -0.2629   11.4224 N.pl3     1 <0>        -0.5966
     25 C17        -1.0693   -0.4249   12.8237 C.3       1 <0>         0.1300
     26 C18        -2.3993   -1.1856   12.8517 C.3       1 <0>         0.0401
     27 N7         -2.2595   -2.4378   12.0965 N.3       1 <0>        -0.5276
     28 C19        -1.9688   -2.1765   10.6804 C.3       1 <0>         0.0363
     29 C20        -0.6270   -1.4554   10.5619 C.3       1 <0>         0.1269
     30 C21        -3.4565   -3.2768   12.2420 C.3       1 <0>         0.0537
     31 C22        -3.1814   -4.6636   11.6572 C.3       1 <0>         0.0792
     32 O2         -2.1684   -5.3132   12.4279 O.3       1 <0>        -0.5589
     33 Cl1        -0.1672    9.6214    4.2392 Cl        1 <0>        -0.0433
     34 H1          2.8725    5.9906    1.1961 H         1 <0>         0.0754
     35 H2          4.4240    6.8020    1.5166 H         1 <0>         0.0754
     36 H3          3.4510    6.1760    2.8692 H         1 <0>         0.0676
     37 H4          3.7844    8.8450    0.3685 H         1 <0>         0.1337
     38 H5          2.6220   11.0077    0.5292 H         1 <0>         0.1350
     39 H6          0.8801   11.3508    2.2339 H         1 <0>         0.1371
     40 H7          1.1547    6.2381    3.4683 H         1 <0>         0.4085
     41 H8          1.2132    7.1127    8.0357 H         1 <0>         0.1884
     42 H9          0.4325    1.9325    7.1264 H         1 <0>         0.4387
     43 H10        -0.2220    0.3459    8.8660 H         1 <0>         0.1413
     44 H11         1.3882    4.3890   12.5900 H         1 <0>         0.0870
     45 H12         0.1021    5.2855   11.7470 H         1 <0>         0.0890
     46 H13        -0.3072    4.2031   13.0995 H         1 <0>         0.0846
     47 H14        -0.3126   -0.9904   13.3674 H         1 <0>         0.0744
     48 H15        -1.1984    0.5551   13.2831 H         1 <0>         0.1008
     49 H16        -2.6676   -1.4113   13.8837 H         1 <0>         0.0903
     50 H17        -3.1785   -0.5727   12.3986 H         1 <0>         0.0372
     51 H18        -1.9249   -3.1208   10.1378 H         1 <0>         0.0905
     52 H19        -2.7540   -1.5497   10.2576 H         1 <0>         0.0380
     53 H20        -0.4638   -1.1563    9.5265 H         1 <0>         0.0877
     54 H21         0.1731   -2.1219   10.8840 H         1 <0>         0.0802
     55 H22        -3.7077   -3.3713   13.2985 H         1 <0>         0.0861
     56 H23        -4.2894   -2.8169   11.7102 H         1 <0>         0.0487
     57 H24        -4.0952   -5.2572   11.6843 H         1 <0>         0.0498
     58 H25        -2.8443   -4.5626   10.6256 H         1 <0>         0.0451
     59 H26        -1.9426   -6.1994   12.1134 H         1 <0>         0.3762
@<TRIPOS>BOND
     1    1    2 1
     2    1   34 1
     3    1   35 1
     4    1   36 1
     5    2    7 ar
     6    2    3 ar
     7    3    4 ar
     8    3   37 1
     9    4    5 ar
    10    4   38 1
    11    5    6 ar
    12    5   39 1
    13    6    7 ar
    14    6   33 1
    15    7    8 1
    16    8    9 am
    17    8   40 1
    18    9   10 2
    19    9   11 1
    20   11   15 1
    21   11   12 2
    22   12   13 1
    23   12   41 1
    24   13   14 2
    25   14   15 1
    26   14   16 1
    27   16   17 1
    28   16   42 1
    29   17   18 ar
    30   17   22 ar
    31   18   43 1
    32   18   19 ar
    33   19   24 1
    34   19   20 ar
    35   20   21 ar
    36   21   23 1
    37   21   22 ar
    38   23   44 1
    39   23   45 1
    40   23   46 1
    41   24   29 1
    42   24   25 1
    43   25   26 1
    44   25   47 1
    45   25   48 1
    46   26   27 1
    47   26   49 1
    48   26   50 1
    49   27   28 1
    50   27   30 1
    51   28   29 1
    52   28   51 1
    53   28   52 1
    54   29   53 1
    55   29   54 1
    56   30   31 1
    57   30   55 1
    58   30   56 1
    59   31   32 1
    60   31   57 1
    61   31   58 1
    62   32   59 1
@<TRIPOS>MOLECULE
ZINC21982951
   61    64     0     0     0
SMALL
USER_CHARGES

@<TRIPOS>ATOM
      1 C1          3.2770    6.6581    1.8427 C.3       1 <0>        -0.1166
      2 C2          2.5837    7.9904    1.9667 C.ar      1 <0>        -0.0814
      3 C3          2.9012    9.0183    1.0999 C.ar      1 <0>        -0.1028
      4 C4          2.2660   10.2411    1.2125 C.ar      1 <0>        -0.0975
      5 C5          1.3108   10.4402    2.1928 C.ar      1 <0>        -0.1039
      6 C6          0.9888    9.4167    3.0634 C.ar      1 <0>        -0.0218
      7 C7          1.6215    8.1842    2.9485 C.ar      1 <0>         0.1327
      8 N1          1.2933    7.1433    3.8237 N.am      1 <0>        -0.6648
      9 C8          1.3141    7.3507    5.1552 C.2       1 <0>         0.5983
     10 O1          1.5193    8.4677    5.5943 O.2       1 <0>        -0.4690
     11 C9          1.0903    6.2342    6.0727 C.2       1 <0>        -0.2500
     12 C10         1.0624    6.2188    7.4604 C.2       1 <0>         0.1439
     13 N2          0.8362    5.0594    8.0246 N.2       1 <0>        -0.4984
     14 C11         0.6458    3.9675    7.3056 C.2       1 <0>         0.2172
     15 S1          0.7692    4.5136    5.7185 S.3       1 <0>         0.2242
     16 N3          0.3986    2.6839    7.7506 N.pl3     1 <0>        -0.5513
     17 C12         0.2203    2.4413    9.1063 C.ar      1 <0>         0.5098
     18 C13        -0.1335    1.1734    9.5556 C.ar      1 <0>        -0.3097
     19 C14        -0.3003    0.9817   10.9244 C.ar      1 <0>         0.4927
     20 N4         -0.1163    2.0116   11.7481 N.ar      1 <0>        -0.5695
     21 C15         0.2187    3.1980   11.2828 C.ar      1 <0>         0.4589
     22 N5          0.3911    3.4178    9.9956 N.ar      1 <0>        -0.4762
     23 C16         0.4165    4.3348   12.2521 C.3       1 <0>        -0.1303
     24 N6         -0.6531   -0.2629   11.4224 N.pl3     1 <0>        -0.6123
     25 C17        -0.9643   -0.4465   12.8484 C.3       1 <0>         0.0782
     26 C18        -2.3027   -1.1838   12.9625 C.3       1 <0>        -0.0204
     27 N7         -2.2406   -2.4311   12.1903 N.4       1 <0>        -0.3852
     28 C19        -2.0770   -2.1279   10.7629 C.3       1 <0>        -0.0304
     29 C20        -0.7330   -1.4363   10.5388 C.3       1 <0>         0.0932
     30 C21        -3.4827   -3.1900   12.3886 C.3       1 <0>        -0.0061
     31 C22        -3.3702   -4.5448   11.6865 C.3       1 <0>         0.0434
     32 O2         -2.3479   -5.3224   12.3128 O.3       1 <0>        -0.5819
     33 Cl1        -0.2098    9.6671    4.2940 Cl        1 <0>        -0.0466
     34 H1          2.7157    6.0184    1.1617 H         1 <0>         0.0770
     35 H2          4.2843    6.8074    1.4538 H         1 <0>         0.0791
     36 H3          3.3325    6.1847    2.8230 H         1 <0>         0.0631
     37 H4          3.6468    8.8665    0.3335 H         1 <0>         0.1380
     38 H5          2.5166   11.0428    0.5336 H         1 <0>         0.1401
     39 H6          0.8165   11.3966    2.2780 H         1 <0>         0.1410
     40 H7          1.0508    6.2723    3.4722 H         1 <0>         0.4077
     41 H8          1.2191    7.1146    8.0429 H         1 <0>         0.2016
     42 H9          0.3494    1.9517    7.1163 H         1 <0>         0.4545
     43 H10        -0.2756    0.3590    8.8607 H         1 <0>         0.1860
     44 H11         1.4581    4.3621   12.5724 H         1 <0>         0.1309
     45 H12         0.1613    5.2760   11.7653 H         1 <0>         0.1358
     46 H13        -0.2267    4.1885   13.1199 H         1 <0>         0.1083
     47 H14        -0.1795   -1.0367   13.3215 H         1 <0>         0.1249
     48 H15        -1.0392    0.5259   13.3352 H         1 <0>         0.1232
     49 H16        -2.5028   -1.4138   14.0090 H         1 <0>         0.1602
     50 H17        -3.0999   -0.5526   12.5701 H         1 <0>         0.1410
     51 H18        -2.1110   -3.0537   10.1885 H         1 <0>         0.1585
     52 H19        -2.8811   -1.4682   10.4370 H         1 <0>         0.1418
     53 H20        -0.6550   -1.1179    9.4992 H         1 <0>         0.1416
     54 H21         0.0756   -2.1281   10.7747 H         1 <0>         0.1211
     55 H22        -3.6469   -3.3459   13.4548 H         1 <0>         0.1465
     56 H23        -4.3202   -2.6321   11.9697 H         1 <0>         0.1464
     57 H24        -4.3221   -5.0710   11.7578 H         1 <0>         0.1026
     58 H25        -3.1180   -4.3904   10.6374 H         1 <0>         0.0719
     59 H26        -2.2211   -6.1961   11.9183 H         1 <0>         0.4154
     60 H27        -0.2308    1.8869   12.7032 H         1 <0>         0.4393
     61 H28        -1.4578   -2.9831   12.5075 H         1 <0>         0.4359
@<TRIPOS>BOND
     1    1    2 1
     2    1   34 1
     3    1   35 1
     4    1   36 1
     5    2    7 ar
     6    2    3 ar
     7    3    4 ar
     8    3   37 1
     9    4    5 ar
    10    4   38 1
    11    5    6 ar
    12    5   39 1
    13    6    7 ar
    14    6   33 1
    15    7    8 1
    16    8    9 am
    17    8   40 1
    18    9   10 2
    19    9   11 1
    20   11   15 1
    21   11   12 2
    22   12   13 1
    23   12   41 1
    24   13   14 2
    25   14   15 1
    26   14   16 1
    27   16   17 1
    28   16   42 1
    29   17   18 ar
    30   17   22 ar
    31   18   43 1
    32   18   19 ar
    33   19   24 1
    34   19   20 ar
    35   20   60 1
    36   20   21 ar
    37   21   23 1
    38   21   22 ar
    39   23   44 1
    40   23   45 1
    41   23   46 1
    42   24   29 1
    43   24   25 1
    44   25   26 1
    45   25   47 1
    46   25   48 1
    47   26   27 1
    48   26   49 1
    49   26   50 1
    50   27   28 1
    51   27   30 1
    52   27   61 1
    53   28   29 1
    54   28   51 1
    55   28   52 1
    56   29   53 1
    57   29   54 1
    58   30   31 1
    59   30   55 1
    60   30   56 1
    61   31   32 1
    62   31   57 1
    63   31   58 1
    64   32   59 1
@<TRIPOS>MOLECULE
ZINC03814434
   62    69     0     0     0
SMALL
USER_CHARGES

@<TRIPOS>ATOM
      1 C1         -0.1295    1.5952   -0.2973 C.3       1 <0>        -0.1687
      2 C2         -0.0862    0.0696   -0.1900 C.3       1 <0>         0.3342
      3 C3          0.5692   -0.4501   -1.4637 C.3       1 <0>         0.0405
      4 H1          1.4796    0.1159   -1.6612 H         1 <0>         0.1372
      5 C4          0.9167   -1.9328   -1.2889 C.3       1 <0>        -0.0061
      6 H2          1.3963   -2.3075   -2.1932 H         1 <0>         0.1555
      7 C5          1.8785   -2.0596   -0.1021 C.3       1 <0>        -0.1827
      8 C6          1.2061   -1.5198    1.1541 C.3       1 <0>         0.2999
      9 H3          1.9797   -1.4243    1.9161 H         1 <0>         0.1550
     10 O1          0.6555   -0.2442    0.9666 O.3       1 <0>        -0.3234
     11 N1          0.2189   -2.4746    1.6600 N.pl3     1 <0>        -0.5366
     12 C7          0.4705   -3.5508    2.4739 C.ar      1 <0>         0.1469
     13 C8          1.6649   -4.0152    3.0240 C.ar      1 <0>        -0.1522
     14 C9          1.5948   -5.1456    3.8201 C.ar      1 <0>        -0.0582
     15 C10         0.4006   -5.7997    4.0696 C.ar      1 <0>        -0.1457
     16 C11        -0.7984   -5.3597    3.5358 C.ar      1 <0>        -0.0280
     17 C12        -0.7487   -4.2198    2.7307 C.ar      1 <0>        -0.1131
     18 C13        -1.7893   -3.4830    2.0197 C.ar      1 <0>         0.0276
     19 C14        -1.1442   -2.4197    1.3841 C.ar      1 <0>         0.0376
     20 C15        -1.8806   -1.5095    0.6175 C.ar      1 <0>         0.0894
     21 N2         -1.4718   -0.3951   -0.1095 N.pl3     1 <0>        -0.5183
     22 C16        -2.5611    0.1913   -0.7090 C.ar      1 <0>         0.1618
     23 C17        -2.6521    1.3277   -1.5118 C.ar      1 <0>        -0.1305
     24 C18        -3.9109    1.6745   -1.9733 C.ar      1 <0>        -0.0737
     25 C19        -5.0393    0.9368   -1.6616 C.ar      1 <0>        -0.1358
     26 C20        -4.9745   -0.1955   -0.8662 C.ar      1 <0>        -0.0503
     27 C21        -3.7147   -0.5596   -0.3919 C.ar      1 <0>        -0.1042
     28 C22        -3.2693   -1.6660    0.4845 C.ar      1 <0>        -0.0360
     29 C23        -3.9084   -2.7313    1.1102 C.ar      1 <0>        -0.0288
     30 C24        -3.1873   -3.6421    1.8754 C.ar      1 <0>        -0.1255
     31 C25        -4.1221   -4.6480    2.4030 C.2       1 <0>         0.5632
     32 O2         -3.8062   -5.5851    3.1110 O.2       1 <0>        -0.5106
     33 N3         -5.3744   -4.3851    1.9926 N.am      1 <0>        -0.7162
     34 C26        -5.3495   -3.1771    1.1601 C.3       1 <0>         0.1358
     35 N4         -0.3067   -2.7008   -1.0216 N.4       1 <0>        -0.5252
     36 C27         0.0145   -4.1336   -0.9773 C.3       1 <0>        -0.0497
     37 O3         -0.3340   -0.2979   -2.5607 O.3       1 <0>        -0.3614
     38 C28         0.3101   -0.0933   -3.8198 C.3       1 <0>         0.0162
     39 H4          0.8261    2.0094    0.0240 H         1 <0>         0.0984
     40 H5         -0.3202    1.8814   -1.3317 H         1 <0>         0.1036
     41 H6         -0.9255    1.9818    0.3392 H         1 <0>         0.0921
     42 H7          2.1370   -3.1081    0.0458 H         1 <0>         0.1233
     43 H8          2.7835   -1.4869   -0.3048 H         1 <0>         0.1455
     44 H9          2.6036   -3.5149    2.8368 H         1 <0>         0.1365
     45 H10         2.5026   -5.5304    4.2610 H         1 <0>         0.1359
     46 H11         0.4045   -6.6780    4.6980 H         1 <0>         0.1352
     47 H12        -1.7278   -5.8736    3.7323 H         1 <0>         0.1600
     48 H13        -1.7792    1.9122   -1.7624 H         1 <0>         0.1440
     49 H14        -4.0153    2.5500   -2.5970 H         1 <0>         0.1336
     50 H15        -5.9967    1.2527   -2.0488 H         1 <0>         0.1332
     51 H16        -5.8575   -0.7687   -0.6249 H         1 <0>         0.1415
     52 H17        -6.1628   -4.9065    2.2103 H         1 <0>         0.4348
     53 H18        -5.9671   -2.3994    1.6094 H         1 <0>         0.1115
     54 H19        -5.7060   -3.4063    0.1559 H         1 <0>         0.1103
     55 H20        -0.6958   -2.4158   -0.1353 H         1 <0>         0.4186
     56 H21         0.4349   -4.4415   -1.9347 H         1 <0>         0.1256
     57 H22         0.7403   -4.3189   -0.1854 H         1 <0>         0.1191
     58 H23        -0.8932   -4.7035   -0.7789 H         1 <0>         0.1256
     59 H24         0.9168    0.8112   -3.7748 H         1 <0>         0.0633
     60 H25         0.9482   -0.9479   -4.0446 H         1 <0>         0.0514
     61 H26        -0.4433    0.0130   -4.6003 H         1 <0>         0.1100
     62 H27        -0.9785   -2.5293   -1.7546 H         1 <0>         0.4274
@<TRIPOS>BOND
     1    1    2 1
     2    1   39 1
     3    1   40 1
     4    1   41 1
     5    2   10 1
     6    2   21 1
     7    2    3 1
     8    3    4 1
     9    3    5 1
    10    3   37 1
    11    5    6 1
    12    5    7 1
    13    5   35 1
    14    7    8 1
    15    7   42 1
    16    7   43 1
    17    8    9 1
    18    8   10 1
    19    8   11 1
    20   11   19 1
    21   11   12 1
    22   12   17 ar
    23   12   13 ar
    24   13   14 ar
    25   13   44 1
    26   14   15 ar
    27   14   45 1
    28   15   16 ar
    29   15   46 1
    30   16   17 ar
    31   16   47 1
    32   17   18 1
    33   18   30 ar
    34   18   19 ar
    35   19   20 ar
    36   20   28 ar
    37   20   21 1
    38   21   22 1
    39   22   27 ar
    40   22   23 ar
    41   23   24 ar
    42   23   48 1
    43   24   25 ar
    44   24   49 1
    45   25   26 ar
    46   25   50 1
    47   26   27 ar
    48   26   51 1
    49   27   28 1
    50   28   29 ar
    51   29   34 1
    52   29   30 ar
    53   30   31 1
    54   31   32 2
    55   31   33 am
    56   33   34 1
    57   33   52 1
    58   34   53 1
    59   34   54 1
    60   35   36 1
    61   35   55 1
    62   35   62 1
    63   36   56 1
    64   36   57 1
    65   36   58 1
    66   37   38 1
    67   38   59 1
    68   38   60 1
    69   38   61 1
@<TRIPOS>MOLECULE
ZINC72105034
   70    73     0     0     0
SMALL
USER_CHARGES

@<TRIPOS>ATOM
      1 C1         -3.0465   -3.1127   14.8741 C.3       1 <0>        -0.1892
      2 C2         -3.2466   -2.2549   13.6230 C.3       1 <0>        -0.0108
      3 N1         -4.1264   -2.9600   12.6814 N.4       1 <0>        -0.3829
      4 C3         -3.4647   -4.1874   12.2214 C.3       1 <0>        -0.0274
      5 C4         -4.4254   -4.9810   11.3297 C.3       1 <0>         0.1010
      6 N2         -4.8919   -4.1005   10.2474 N.pl3     1 <0>        -0.6456
      7 C5         -5.4217   -2.7770   10.6103 C.3       1 <0>         0.1015
      8 C6         -4.4140   -2.0875   11.5359 C.3       1 <0>        -0.0220
      9 C7         -4.8337   -4.5106    8.9106 C.ar      1 <0>         0.1766
     10 C8         -4.2262   -5.7148    8.5795 C.ar      1 <0>        -0.1629
     11 C9         -4.1692   -6.1195    7.2606 C.ar      1 <0>        -0.0646
     12 C10        -4.7193   -5.3226    6.2653 C.ar      1 <0>         0.1310
     13 C11        -5.3268   -4.1185    6.5964 C.ar      1 <0>        -0.1041
     14 C12        -5.3885   -3.7162    7.9158 C.ar      1 <0>        -0.1629
     15 N3         -4.6611   -5.7330    4.9274 N.pl3     1 <0>        -0.6533
     16 C13        -4.7431   -7.0808    4.6114 C.ar      1 <0>         0.4484
     17 C14        -4.5642   -7.5111    3.2990 C.ar      1 <0>        -0.3232
     18 C15        -4.6563   -8.8727    3.0342 C.ar      1 <0>         0.4562
     19 N4         -4.9104   -9.7105    4.0371 N.ar      1 <0>        -0.5358
     20 C16        -5.0737   -9.2649    5.2660 C.ar      1 <0>         0.3663
     21 N5         -4.9887   -7.9832    5.5591 N.ar      1 <0>        -0.5884
     22 N6         -4.4859   -9.3527    1.7400 N.am      1 <0>        -0.5513
     23 C17        -4.0993   -8.4367    0.6640 C.3       1 <0>         0.0633
     24 C18        -4.6764  -10.6605    1.4758 C.2       1 <0>         0.6965
     25 O1         -4.9972  -11.4206    2.3688 O.2       1 <0>        -0.4771
     26 N7         -4.5113  -11.1256    0.2217 N.am      1 <0>        -0.6806
     27 C19        -4.5933  -12.5005   -0.0317 C.ar      1 <0>         0.2488
     28 C20        -3.5635  -13.1459   -0.7035 C.ar      1 <0>        -0.1156
     29 C21        -3.6457  -14.5077   -0.9540 C.ar      1 <0>         0.1985
     30 C22        -4.7561  -15.2246   -0.5342 C.ar      1 <0>        -0.2856
     31 C23        -5.7851  -14.5810    0.1368 C.ar      1 <0>         0.1981
     32 C24        -5.7020  -13.2205    0.3937 C.ar      1 <0>        -0.0913
     33 Cl1        -6.9867  -12.4166    1.2405 Cl        1 <0>        -0.0174
     34 O2         -6.8731  -15.2849    0.5478 O.3       1 <0>        -0.2934
     35 C25        -6.8895  -16.6834    0.2548 C.3       1 <0>         0.0217
     36 O3         -2.6377  -15.1397   -1.6116 O.3       1 <0>        -0.2949
     37 C26        -2.7887  -16.5430   -1.8355 C.3       1 <0>         0.0219
     38 Cl2        -2.1738  -12.2486   -1.2302 Cl        1 <0>        -0.0383
     39 H1         -2.3937   -2.5895   15.5727 H         1 <0>         0.1068
     40 H2         -4.0114   -3.2967   15.3466 H         1 <0>         0.0809
     41 H3         -2.5919   -4.0630   14.5941 H         1 <0>         0.0805
     42 H4         -3.7012   -1.3046   13.9030 H         1 <0>         0.1310
     43 H5         -2.2817   -2.0709   13.1505 H         1 <0>         0.1281
     44 H6         -2.5717   -3.9277   11.6528 H         1 <0>         0.1321
     45 H7         -3.1838   -4.7935   13.0827 H         1 <0>         0.1410
     46 H8         -3.9058   -5.8399   10.9049 H         1 <0>         0.1268
     47 H9         -5.2773   -5.3195   11.9194 H         1 <0>         0.0863
     48 H10        -5.5608   -2.1788    9.7098 H         1 <0>         0.1256
     49 H11        -6.3742   -2.8930   11.1273 H         1 <0>         0.0858
     50 H12        -4.8326   -1.1462   11.8921 H         1 <0>         0.1394
     51 H13        -3.4923   -1.8913   10.9881 H         1 <0>         0.1318
     52 H14        -3.7980   -6.3344    9.3535 H         1 <0>         0.1245
     53 H15        -3.6964   -7.0558    7.0031 H         1 <0>         0.1406
     54 H16        -5.7546   -3.4987    5.8223 H         1 <0>         0.1287
     55 H17        -5.8648   -2.7819    8.1738 H         1 <0>         0.1249
     56 H18        -4.5634   -5.0745    4.2219 H         1 <0>         0.4207
     57 H19        -4.3595   -6.8053    2.5076 H         1 <0>         0.1461
     58 H20        -5.2787   -9.9712    6.0569 H         1 <0>         0.2006
     59 H21        -3.0123   -8.3941    0.5961 H         1 <0>         0.0784
     60 H22        -4.5087   -8.7932   -0.2812 H         1 <0>         0.0834
     61 H23        -4.4893   -7.4413    0.8765 H         1 <0>         0.0916
     62 H24        -4.3356  -10.5081   -0.5055 H         1 <0>         0.4126
     63 H25        -4.8197  -16.2847   -0.7302 H         1 <0>         0.1546
     64 H26        -7.8108  -17.1238    0.6364 H         1 <0>         0.1096
     65 H27        -6.8368  -16.8293   -0.8241 H         1 <0>         0.0610
     66 H28        -6.0336  -17.1640    0.7287 H         1 <0>         0.0609
     67 H29        -3.6841  -16.7217   -2.4308 H         1 <0>         0.0613
     68 H30        -1.9165  -16.9218   -2.3683 H         1 <0>         0.1099
     69 H31        -2.8806  -17.0558   -0.8781 H         1 <0>         0.0610
     70 H32        -4.9899   -3.1998   13.1451 H         1 <0>         0.4221
@<TRIPOS>BOND
     1    1    2 1
     2    1   39 1
     3    1   40 1
     4    1   41 1
     5    2    3 1
     6    2   42 1
     7    2   43 1
     8    3    8 1
     9    3    4 1
    10    3   70 1
    11    4    5 1
    12    4   44 1
    13    4   45 1
    14    5    6 1
    15    5   46 1
    16    5   47 1
    17    6    7 1
    18    6    9 1
    19    7    8 1
    20    7   48 1
    21    7   49 1
    22    8   50 1
    23    8   51 1
    24    9   14 ar
    25    9   10 ar
    26   10   11 ar
    27   10   52 1
    28   11   12 ar
    29   11   53 1
    30   12   13 ar
    31   12   15 1
    32   13   14 ar
    33   13   54 1
    34   14   55 1
    35   15   16 1
    36   15   56 1
    37   16   21 ar
    38   16   17 ar
    39   17   18 ar
    40   17   57 1
    41   18   19 ar
    42   18   22 1
    43   19   20 ar
    44   20   21 ar
    45   20   58 1
    46   22   23 1
    47   22   24 am
    48   23   59 1
    49   23   60 1
    50   23   61 1
    51   24   25 2
    52   24   26 am
    53   26   27 1
    54   26   62 1
    55   27   32 ar
    56   27   28 ar
    57   28   29 ar
    58   28   38 1
    59   29   30 ar
    60   29   36 1
    61   30   31 ar
    62   30   63 1
    63   31   32 ar
    64   31   34 1
    65   32   33 1
    66   34   35 1
    67   35   64 1
    68   35   65 1
    69   35   66 1
    70   36   37 1
    71   37   67 1
    72   37   68 1
    73   37   69 1
@<TRIPOS>MOLECULE
ZINC72105034
   69    72     0     0     0
SMALL
USER_CHARGES

@<TRIPOS>ATOM
      1 C1         -3.4378   -3.9375   14.6684 C.3       1 <0>        -0.1502
      2 C2         -3.5006   -3.0159   13.4488 C.3       1 <0>         0.0503
      3 N1         -4.3406   -3.6313   12.4127 N.3       1 <0>        -0.5378
      4 C3         -3.7251   -4.8621   11.8984 C.3       1 <0>         0.0363
      5 C4         -4.7086   -5.5666   10.9578 C.3       1 <0>         0.1266
      6 N2         -5.1378   -4.6085    9.9278 N.pl3     1 <0>        -0.6321
      7 C5         -5.6391   -3.2963   10.3636 C.3       1 <0>         0.1276
      8 C6         -4.6190   -2.6811   11.3275 C.3       1 <0>         0.0396
      9 C7         -5.0714   -4.9369    8.5689 C.ar      1 <0>         0.2080
     10 C8         -4.4894   -6.1336    8.1714 C.ar      1 <0>        -0.1806
     11 C9         -4.4244   -6.4578    6.8309 C.ar      1 <0>        -0.0579
     12 C10        -4.9408   -5.5873    5.8801 C.ar      1 <0>         0.0956
     13 C11        -5.5227   -4.3907    6.2776 C.ar      1 <0>        -0.0967
     14 C12        -5.5926   -4.0689    7.6185 C.ar      1 <0>        -0.1814
     15 N3         -4.8743   -5.9160    4.5202 N.pl3     1 <0>        -0.6480
     16 C13        -4.9857   -7.2392    4.1204 C.ar      1 <0>         0.4532
     17 C14        -4.7996   -7.5924    2.7862 C.ar      1 <0>        -0.3285
     18 C15        -4.9221   -8.9324    2.4366 C.ar      1 <0>         0.4515
     19 N4         -5.2108   -9.8235    3.3827 N.ar      1 <0>        -0.5423
     20 C16        -5.3796   -9.4503    4.6347 C.ar      1 <0>         0.3655
     21 N5         -5.2667   -8.1917    5.0075 N.ar      1 <0>        -0.5828
     22 N6         -4.7461   -9.3361    1.1173 N.am      1 <0>        -0.5515
     23 C17        -4.3221   -8.3659    0.1048 C.3       1 <0>         0.0649
     24 C18        -4.9656  -10.6198    0.7705 C.2       1 <0>         0.6963
     25 O1         -5.3174  -11.4249    1.6108 O.2       1 <0>        -0.4774
     26 N7         -4.7950  -11.0110   -0.5080 N.am      1 <0>        -0.6824
     27 C19        -4.9079  -12.3651   -0.8468 C.ar      1 <0>         0.2515
     28 C20        -3.8855  -12.9943   -1.5448 C.ar      1 <0>        -0.1156
     29 C21        -3.9983  -14.3355   -1.8800 C.ar      1 <0>         0.1969
     30 C22        -5.1319  -15.0480   -1.5188 C.ar      1 <0>        -0.2867
     31 C23        -6.1535  -14.4206   -0.8218 C.ar      1 <0>         0.1972
     32 C24        -6.0399  -13.0811   -0.4802 C.ar      1 <0>        -0.0912
     33 Cl1        -7.3156  -12.2980    0.3991 Cl        1 <0>        -0.0151
     34 O2         -7.2642  -15.1202   -0.4683 O.3       1 <0>        -0.2933
     35 C25        -7.3116  -16.4972   -0.8473 C.3       1 <0>         0.0224
     36 O3         -2.9975  -14.9516   -2.5633 O.3       1 <0>        -0.2955
     37 C26        -3.1804  -16.3341   -2.8753 C.3       1 <0>         0.0225
     38 Cl2        -2.4668  -12.1023   -1.9981 Cl        1 <0>        -0.0388
     39 H1         -2.8146   -3.4808   15.4373 H         1 <0>         0.0601
     40 H2         -4.4435   -4.0912   15.0599 H         1 <0>         0.0642
     41 H3         -3.0108   -4.8971   14.3771 H         1 <0>         0.0548
     42 H4         -3.9276   -2.0563   13.7401 H         1 <0>         0.0754
     43 H5         -2.4950   -2.8622   13.0574 H         1 <0>         0.0324
     44 H6         -2.8150   -4.6131   11.3528 H         1 <0>         0.0373
     45 H7         -3.4816   -5.5223   12.7308 H         1 <0>         0.0881
     46 H8         -4.2176   -6.4171   10.4850 H         1 <0>         0.0867
     47 H9         -5.5752   -5.9086   11.5236 H         1 <0>         0.0692
     48 H10        -5.7633   -2.6458    9.4978 H         1 <0>         0.0853
     49 H11        -6.5952   -3.4200   10.8723 H         1 <0>         0.0688
     50 H12        -5.0237   -1.7596   11.7460 H         1 <0>         0.0847
     51 H13        -3.6964   -2.4625   10.7899 H         1 <0>         0.0375
     52 H14        -4.0875   -6.8104    8.9108 H         1 <0>         0.1239
     53 H15        -3.9715   -7.3882    6.5217 H         1 <0>         0.1333
     54 H16        -5.9244   -3.7138    5.5381 H         1 <0>         0.1213
     55 H17        -6.0491   -3.1403    7.9278 H         1 <0>         0.1240
     56 H18        -4.7504   -5.2181    3.8580 H         1 <0>         0.4169
     57 H19        -4.5666   -6.8448    2.0425 H         1 <0>         0.1434
     58 H20        -5.6130  -10.1984    5.3779 H         1 <0>         0.1992
     59 H21        -3.2335   -8.3472    0.0528 H         1 <0>         0.0766
     60 H22        -4.7274   -8.6529   -0.8655 H         1 <0>         0.0808
     61 H23        -4.6901   -7.3757    0.3737 H         1 <0>         0.0918
     62 H24        -4.5941  -10.3546   -1.1933 H         1 <0>         0.4120
     63 H25        -5.2193  -16.0921   -1.7808 H         1 <0>         0.1535
     64 H26        -7.2478  -16.5777   -1.9325 H         1 <0>         0.0599
     65 H27        -6.4745  -17.0279   -0.3938 H         1 <0>         0.0605
     66 H28        -8.2486  -16.9363   -0.5049 H         1 <0>         0.1088
     67 H29        -3.2981  -16.9023   -1.9526 H         1 <0>         0.0606
     68 H30        -4.0718  -16.4527   -3.4913 H         1 <0>         0.0604
     69 H31        -2.3108  -16.7017   -3.4200 H         1 <0>         0.1087
@<TRIPOS>BOND
     1    1    2 1
     2    1   39 1
     3    1   40 1
     4    1   41 1
     5    2    3 1
     6    2   42 1
     7    2   43 1
     8    3    8 1
     9    3    4 1
    10    4    5 1
    11    4   44 1
    12    4   45 1
    13    5    6 1
    14    5   46 1
    15    5   47 1
    16    6    7 1
    17    6    9 1
    18    7    8 1
    19    7   48 1
    20    7   49 1
    21    8   50 1
    22    8   51 1
    23    9   14 ar
    24    9   10 ar
    25   10   11 ar
    26   10   52 1
    27   11   12 ar
    28   11   53 1
    29   12   13 ar
    30   12   15 1
    31   13   14 ar
    32   13   54 1
    33   14   55 1
    34   15   16 1
    35   15   56 1
    36   16   21 ar
    37   16   17 ar
    38   17   18 ar
    39   17   57 1
    40   18   19 ar
    41   18   22 1
    42   19   20 ar
    43   20   21 ar
    44   20   58 1
    45   22   23 1
    46   22   24 am
    47   23   59 1
    48   23   60 1
    49   23   61 1
    50   24   25 2
    51   24   26 am
    52   26   27 1
    53   26   62 1
    54   27   32 ar
    55   27   28 ar
    56   28   29 ar
    57   28   38 1
    58   29   30 ar
    59   29   36 1
    60   30   31 ar
    61   30   63 1
    62   31   32 ar
    63   31   34 1
    64   32   33 1
    65   34   35 1
    66   35   64 1
    67   35   65 1
    68   35   66 1
    69   36   37 1
    70   37   67 1
    71   37   68 1
    72   37   69 1
@<TRIPOS>MOLECULE
ZINC03938688
   39    41     0     0     0
SMALL
USER_CHARGES

@<TRIPOS>ATOM
      1 C1         -0.0095    1.3826    0.0704 C.ar      1 <0>        -0.0343
      2 C2          0.5587    1.0580   -1.1482 C.ar      1 <0>        -0.1609
      3 C3          1.7655    0.3862   -1.1955 C.ar      1 <0>         0.1753
      4 C4          2.4129    0.0342   -0.0053 C.ar      1 <0>        -0.1954
      5 C5          1.8304    0.3669    1.2233 C.ar      1 <0>         0.1741
      6 C6          0.6231    1.0388    1.2514 C.ar      1 <0>        -0.1610
      7 F1          2.4463    0.0317    2.3781 F         1 <0>        -0.1212
      8 C7          3.6999   -0.6827   -0.0456 C.2       1 <0>         0.6210
      9 O1          4.7383   -0.0615   -0.1600 O.2       1 <0>        -0.4669
     10 N1          3.7255   -2.0272    0.0446 N.am      1 <0>        -0.3962
     11 C8          4.8314   -2.8210    0.1249 C.2       1 <0>         0.5948
     12 N2          4.4249   -4.0694    0.1979 N.2       1 <0>        -0.5873
     13 C9          3.0869   -4.1118    0.1675 C.2       1 <0>         0.5191
     14 N3          2.6183   -2.8904    0.0808 N.2       1 <0>        -0.3480
     15 N4          2.3148   -5.2702    0.2247 N.pl3     1 <0>        -0.6226
     16 C10         2.9267   -6.5079    0.4407 C.ar      1 <0>         0.2365
     17 C11         4.1432   -6.5760    1.1080 C.ar      1 <0>        -0.1584
     18 C12         4.7450   -7.8008    1.3202 C.ar      1 <0>         0.0098
     19 C13         4.1379   -8.9586    0.8692 C.ar      1 <0>        -0.7033
     20 C14         2.9269   -8.8944    0.2046 C.ar      1 <0>         0.0112
     21 C15         2.3170   -7.6734   -0.0063 C.ar      1 <0>        -0.1777
     22 S1          4.9094  -10.5191    1.1415 S.o2      1 <0>         2.7034
     23 O2          4.4084  -11.3993    0.1448 O.2       1 <0>        -0.9656
     24 O3          6.2977  -10.2630    1.3036 O.2       1 <0>        -0.9650
     25 N5          4.3605  -11.0895    2.5960 N.pl3     1 <0>        -1.2510
     26 N6          6.1422   -2.3912    0.1281 N.pl3     1 <0>        -0.7911
     27 F2          2.3185    0.0697   -2.3868 F         1 <0>        -0.1201
     28 H1         -0.9506    1.9116    0.0998 H         1 <0>         0.1546
     29 H2          0.0576    1.3300   -2.0654 H         1 <0>         0.1549
     30 H3          0.1721    1.2963    2.1984 H         1 <0>         0.1546
     31 H4          1.3525   -5.2176    0.1147 H         1 <0>         0.4325
     32 H5          4.6180   -5.6722    1.4601 H         1 <0>         0.1556
     33 H6          5.6909   -7.8544    1.8385 H         1 <0>         0.1456
     34 H7          2.4556   -9.8005   -0.1466 H         1 <0>         0.1475
     35 H8          1.3691   -7.6243   -0.5215 H         1 <0>         0.1387
     36 H9          3.7284  -10.5673    3.1145 H         1 <0>         0.4165
     37 H10         4.6709  -11.9458    2.9296 H         1 <0>         0.4206
     38 H11         6.3422   -1.4439    0.0694 H         1 <0>         0.4292
     39 H12         6.8640   -3.0364    0.1890 H         1 <0>         0.4303
@<TRIPOS>BOND
     1    1    6 ar
     2    1    2 ar
     3    1   28 1
     4    2    3 ar
     5    2   29 1
     6    3    4 ar
     7    3   27 1
     8    4    5 ar
     9    4    8 1
    10    5    6 ar
    11    5    7 1
    12    6   30 1
    13    8    9 2
    14    8   10 am
    15   10   14 1
    16   10   11 1
    17   11   12 2
    18   11   26 1
    19   12   13 1
    20   13   14 2
    21   13   15 1
    22   15   16 1
    23   15   31 1
    24   16   21 ar
    25   16   17 ar
    26   17   18 ar
    27   17   32 1
    28   18   19 ar
    29   18   33 1
    30   19   20 ar
    31   19   22 1
    32   20   21 ar
    33   20   34 1
    34   21   35 1
    35   22   23 2
    36   22   24 2
    37   22   25 1
    38   25   36 1
    39   25   37 1
    40   26   38 1
    41   26   39 1
@<TRIPOS>MOLECULE
ZINC34802946
   67    71     0     0     0
SMALL
USER_CHARGES

@<TRIPOS>ATOM
      1 C1         -0.0483    1.5024    0.0098 C.3       1 <0>        -0.1268
      2 C2         -0.0195   -0.0043    0.0016 C.ar      1 <0>        -0.0386
      3 C3         -0.0178   -0.6868   -1.1996 C.ar      1 <0>        -0.1235
      4 C4          0.0085   -2.0667   -1.2158 C.ar      1 <0>        -0.0785
      5 C5          0.0330   -2.7811   -0.0158 C.ar      1 <0>        -0.1428
      6 C6          0.0314   -2.0969    1.1984 C.ar      1 <0>        -0.0380
      7 C7          0.0111   -0.7058    1.2063 C.ar      1 <0>        -0.0517
      8 C8          0.0158    0.0300    2.4946 C.ar      1 <0>        -0.0766
      9 C9          0.9293    1.0770    2.6951 C.ar      1 <0>        -0.0509
     10 C10         0.9551    1.7681    3.8654 C.ar      1 <0>        -0.1204
     11 C11         0.0589    1.4368    4.8939 C.ar      1 <0>         0.2183
     12 C12        -0.8687    0.3799    4.7012 C.ar      1 <0>        -0.2144
     13 C13        -0.8839   -0.3174    3.4865 C.ar      1 <0>        -0.0354
     14 C14        -1.7564    0.0690    5.7490 C.ar      1 <0>         0.2451
     15 N1         -1.6869    0.7718    6.8601 N.ar      1 <0>        -0.5576
     16 C15        -0.8035    1.7573    7.0067 C.ar      1 <0>         0.5740
     17 N2          0.0519    2.0930    6.0606 N.ar      1 <0>        -0.5737
     18 N3         -0.7822    2.4573    8.1995 N.pl3     1 <0>        -0.6964
     19 C16        -1.7195    2.1088    9.2701 C.3       1 <0>         0.1398
     20 C17        -1.4872    3.0285   10.4706 C.3       1 <0>         0.0428
     21 N4         -2.4271    2.6791   11.5442 N.3       1 <0>        -0.5321
     22 C18        -3.8120    2.9741   11.1487 C.3       1 <0>         0.0117
     23 C19        -4.7604    2.5406   12.2697 C.3       1 <0>         0.0630
     24 O1         -4.3910    3.2025   13.4824 O.3       1 <0>        -0.3850
     25 C20        -3.0483    2.9369   13.8974 C.3       1 <0>         0.0630
     26 C21        -2.0826    3.3743   12.7929 C.3       1 <0>         0.0183
     27 C22         0.0602   -4.2590   -0.0337 C.2       1 <0>         0.5622
     28 O2          0.0816   -4.8792    1.0117 O.2       1 <0>        -0.5109
     29 N5          0.0613   -4.9189   -1.2088 N.am      1 <0>        -0.6699
     30 C23         0.1847   -6.3117   -1.2285 C.ar      1 <0>         0.1443
     31 C24         0.8894   -6.9337   -2.2514 C.ar      1 <0>        -0.1118
     32 C25         1.0099   -8.3092   -2.2677 C.ar      1 <0>        -0.0994
     33 C26         0.4298   -9.0675   -1.2671 C.ar      1 <0>        -0.0865
     34 C27        -0.2722   -8.4516   -0.2475 C.ar      1 <0>        -0.1641
     35 C28        -0.3920   -7.0758   -0.2225 C.ar      1 <0>        -0.0722
     36 C29        -0.9025   -9.2820    0.8407 C.3       1 <0>         0.5092
     37 F1         -0.6426  -10.6360    0.6040 F         1 <0>        -0.1761
     38 F2         -0.3653   -8.9135    2.0788 F         1 <0>        -0.1725
     39 F3         -2.2849   -9.0671    0.8497 F         1 <0>        -0.1757
     40 H1          0.9721    1.8854   -0.0029 H         1 <0>         0.0793
     41 H2         -0.5817    1.8604   -0.8708 H         1 <0>         0.0726
     42 H3         -0.5562    1.8513    0.9089 H         1 <0>         0.0756
     43 H4         -0.0375   -0.1384   -2.1297 H         1 <0>         0.1346
     44 H5          0.0097   -2.5949   -2.1579 H         1 <0>         0.1271
     45 H6          0.0504   -2.6442    2.1292 H         1 <0>         0.1408
     46 H7          1.6219    1.3369    1.9082 H         1 <0>         0.1341
     47 H8          1.6644    2.5707    4.0039 H         1 <0>         0.1396
     48 H9         -1.5883   -1.1204    3.3272 H         1 <0>         0.1367
     49 H10        -2.4780   -0.7275    5.6434 H         1 <0>         0.1790
     50 H11        -0.1467    3.1789    8.3270 H         1 <0>         0.4144
     51 H12        -2.7417    2.2301    8.9119 H         1 <0>         0.0688
     52 H13        -1.5600    1.0730    9.5698 H         1 <0>         0.0789
     53 H14        -0.4650    2.9072   10.8288 H         1 <0>         0.0845
     54 H15        -1.6467    4.0643   10.1709 H         1 <0>         0.0436
     55 H16        -3.9204    4.0444   10.9738 H         1 <0>         0.0453
     56 H17        -4.0538    2.4291   10.2363 H         1 <0>         0.0911
     57 H18        -5.7831    2.8094   12.0054 H         1 <0>         0.1000
     58 H19        -4.6911    1.4617   12.4082 H         1 <0>         0.0622
     59 H20        -2.8329    3.4922   14.8102 H         1 <0>         0.1003
     60 H21        -2.9293    1.8694   14.0832 H         1 <0>         0.0619
     61 H22        -1.0621    3.1215   13.0806 H         1 <0>         0.0888
     62 H23        -2.1634    4.4511   12.6442 H         1 <0>         0.0455
     63 H24        -0.0236   -4.4277   -2.0409 H         1 <0>         0.4141
     64 H25         1.3423   -6.3421   -3.0333 H         1 <0>         0.1370
     65 H26         1.5573   -8.7933   -3.0629 H         1 <0>         0.1416
     66 H27         0.5252  -10.1432   -1.2823 H         1 <0>         0.1414
     67 H28        -0.9370   -6.5950    0.5764 H         1 <0>         0.1510
@<TRIPOS>BOND
     1    1    2 1
     2    1   40 1
     3    1   41 1
     4    1   42 1
     5    2    7 ar
     6    2    3 ar
     7    3    4 ar
     8    3   43 1
     9    4    5 ar
    10    4   44 1
    11    5    6 ar
    12    5   27 1
    13    6    7 ar
    14    6   45 1
    15    7    8 1
    16    8   13 ar
    17    8    9 ar
    18    9   10 ar
    19    9   46 1
    20   10   11 ar
    21   10   47 1
    22   11   17 ar
    23   11   12 ar
    24   12   13 ar
    25   12   14 ar
    26   13   48 1
    27   14   15 ar
    28   14   49 1
    29   15   16 ar
    30   16   17 ar
    31   16   18 1
    32   18   19 1
    33   18   50 1
    34   19   20 1
    35   19   51 1
    36   19   52 1
    37   20   21 1
    38   20   53 1
    39   20   54 1
    40   21   26 1
    41   21   22 1
    42   22   23 1
    43   22   55 1
    44   22   56 1
    45   23   24 1
    46   23   57 1
    47   23   58 1
    48   24   25 1
    49   25   26 1
    50   25   59 1
    51   25   60 1
    52   26   61 1
    53   26   62 1
    54   27   28 2
    55   27   29 am
    56   29   30 1
    57   29   63 1
    58   30   35 ar
    59   30   31 ar
    60   31   32 ar
    61   31   64 1
    62   32   33 ar
    63   32   65 1
    64   33   34 ar
    65   33   66 1
    66   34   35 ar
    67   34   36 1
    68   35   67 1
    69   36   37 1
    70   36   38 1
    71   36   39 1
@<TRIPOS>MOLECULE
ZINC34802946
   68    72     0     0     0
SMALL
USER_CHARGES

@<TRIPOS>ATOM
      1 C1         -0.0483    1.5024    0.0098 C.3       1 <0>        -0.1276
      2 C2         -0.0195   -0.0043    0.0016 C.ar      1 <0>        -0.0366
      3 C3         -0.0178   -0.6868   -1.1996 C.ar      1 <0>        -0.1221
      4 C4          0.0085   -2.0667   -1.2158 C.ar      1 <0>        -0.0731
      5 C5          0.0330   -2.7811   -0.0158 C.ar      1 <0>        -0.1410
      6 C6          0.0314   -2.0969    1.1984 C.ar      1 <0>        -0.0362
      7 C7          0.0111   -0.7058    1.2063 C.ar      1 <0>        -0.0635
      8 C8          0.0158    0.0300    2.4946 C.ar      1 <0>        -0.0553
      9 C9          0.9293    1.0770    2.6951 C.ar      1 <0>        -0.0467
     10 C10         0.9551    1.7681    3.8654 C.ar      1 <0>        -0.1170
     11 C11         0.0589    1.4368    4.8939 C.ar      1 <0>         0.2111
     12 C12        -0.8687    0.3799    4.7012 C.ar      1 <0>        -0.2001
     13 C13        -0.8839   -0.3174    3.4865 C.ar      1 <0>        -0.0453
     14 C14        -1.7564    0.0690    5.7490 C.ar      1 <0>         0.2479
     15 N1         -1.6869    0.7718    6.8601 N.ar      1 <0>        -0.5684
     16 C15        -0.8035    1.7573    7.0067 C.ar      1 <0>         0.5623
     17 N2          0.0519    2.0930    6.0606 N.ar      1 <0>        -0.5576
     18 N3         -0.7822    2.4573    8.1995 N.pl3     1 <0>        -0.7040
     19 C16        -1.7195    2.1088    9.2701 C.3       1 <0>         0.1188
     20 C17        -1.4872    3.0285   10.4706 C.3       1 <0>        -0.0230
     21 N4         -2.4271    2.6791   11.5442 N.4       1 <0>        -0.3805
     22 C18        -3.8007    2.9572   11.1027 C.3       1 <0>        -0.0511
     23 C19        -4.7779    2.5921   12.2228 C.3       1 <0>         0.0367
     24 O1         -4.4442    3.3332   13.3998 O.3       1 <0>        -0.3561
     25 C20        -3.1064    3.1140   13.8559 C.3       1 <0>         0.0359
     26 C21        -2.1261    3.4800   12.7388 C.3       1 <0>        -0.0426
     27 C22         0.0602   -4.2590   -0.0337 C.2       1 <0>         0.5618
     28 O2          0.0816   -4.8792    1.0117 O.2       1 <0>        -0.5123
     29 N5          0.0613   -4.9189   -1.2088 N.am      1 <0>        -0.6683
     30 C23         0.1847   -6.3117   -1.2285 C.ar      1 <0>         0.1414
     31 C24         0.8894   -6.9337   -2.2514 C.ar      1 <0>        -0.1102
     32 C25         1.0099   -8.3092   -2.2677 C.ar      1 <0>        -0.0984
     33 C26         0.4298   -9.0675   -1.2671 C.ar      1 <0>        -0.0844
     34 C27        -0.2722   -8.4516   -0.2475 C.ar      1 <0>        -0.1647
     35 C28        -0.3920   -7.0758   -0.2225 C.ar      1 <0>        -0.0721
     36 C29        -0.9025   -9.2820    0.8407 C.3       1 <0>         0.5095
     37 F1         -0.6426  -10.6360    0.6040 F         1 <0>        -0.1749
     38 F2         -0.3653   -8.9135    2.0788 F         1 <0>        -0.1737
     39 F3         -2.2849   -9.0671    0.8497 F         1 <0>        -0.1759
     40 H1          0.9721    1.8854   -0.0029 H         1 <0>         0.0806
     41 H2         -0.5817    1.8604   -0.8708 H         1 <0>         0.0754
     42 H3         -0.5562    1.8513    0.9089 H         1 <0>         0.0730
     43 H4         -0.0375   -0.1384   -2.1297 H         1 <0>         0.1371
     44 H5          0.0097   -2.5949   -2.1579 H         1 <0>         0.1298
     45 H6          0.0504   -2.6442    2.1292 H         1 <0>         0.1405
     46 H7          1.6219    1.3369    1.9082 H         1 <0>         0.1398
     47 H8          1.6644    2.5707    4.0039 H         1 <0>         0.1435
     48 H9         -1.5883   -1.1204    3.3272 H         1 <0>         0.1410
     49 H10        -2.4780   -0.7275    5.6434 H         1 <0>         0.1829
     50 H11        -0.1467    3.1789    8.3270 H         1 <0>         0.4205
     51 H12        -2.7417    2.2301    8.9119 H         1 <0>         0.0871
     52 H13        -1.5600    1.0730    9.5698 H         1 <0>         0.0876
     53 H14        -0.4650    2.9072   10.8288 H         1 <0>         0.1408
     54 H15        -1.6467    4.0643   10.1709 H         1 <0>         0.1388
     55 H16        -3.8989    4.0165   10.8654 H         1 <0>         0.1412
     56 H17        -4.0250    2.3635   10.2165 H         1 <0>         0.1457
     57 H18        -5.7940    2.8378   11.9139 H         1 <0>         0.1434
     58 H19        -4.7086    1.5248   12.4329 H         1 <0>         0.0831
     59 H20        -2.9127    3.7373   14.7289 H         1 <0>         0.1435
     60 H21        -2.9799    2.0645   14.1218 H         1 <0>         0.0826
     61 H22        -1.1073    3.2744   13.0672 H         1 <0>         0.1445
     62 H23        -2.2249    4.5391   12.5009 H         1 <0>         0.1407
     63 H24        -0.0236   -4.4277   -2.0409 H         1 <0>         0.4145
     64 H25         1.3423   -6.3421   -3.0333 H         1 <0>         0.1377
     65 H26         1.5573   -8.7933   -3.0629 H         1 <0>         0.1430
     66 H27         0.5252  -10.1432   -1.2823 H         1 <0>         0.1425
     67 H28        -0.9370   -6.5950    0.5764 H         1 <0>         0.1500
     68 H29        -2.3364    1.6987   11.7648 H         1 <0>         0.4260
@<TRIPOS>BOND
     1    1    2 1
     2    1   40 1
     3    1   41 1
     4    1   42 1
     5    2    7 ar
     6    2    3 ar
     7    3    4 ar
     8    3   43 1
     9    4    5 ar
    10    4   44 1
    11    5    6 ar
    12    5   27 1
    13    6    7 ar
    14    6   45 1
    15    7    8 1
    16    8   13 ar
    17    8    9 ar
    18    9   10 ar
    19    9   46 1
    20   10   11 ar
    21   10   47 1
    22   11   17 ar
    23   11   12 ar
    24   12   13 ar
    25   12   14 ar
    26   13   48 1
    27   14   15 ar
    28   14   49 1
    29   15   16 ar
    30   16   17 ar
    31   16   18 1
    32   18   19 1
    33   18   50 1
    34   19   20 1
    35   19   51 1
    36   19   52 1
    37   20   21 1
    38   20   53 1
    39   20   54 1
    40   21   26 1
    41   21   22 1
    42   21   68 1
    43   22   23 1
    44   22   55 1
    45   22   56 1
    46   23   24 1
    47   23   57 1
    48   23   58 1
    49   24   25 1
    50   25   26 1
    51   25   59 1
    52   25   60 1
    53   26   61 1
    54   26   62 1
    55   27   28 2
    56   27   29 am
    57   29   30 1
    58   29   63 1
    59   30   35 ar
    60   30   31 ar
    61   31   32 ar
    62   31   64 1
    63   32   33 ar
    64   32   65 1
    65   33   34 ar
    66   33   66 1
    67   34   35 ar
    68   34   36 1
    69   35   67 1
    70   36   37 1
    71   36   38 1
    72   36   39 1
@<TRIPOS>MOLECULE
ZINC28950516
   42    44     0     0     0
SMALL
USER_CHARGES
3-[[4-(5-hydroxy-2-methyl-anilino)pyrimidin-2-yl]amino]benzamide
@<TRIPOS>ATOM
      1 C1          3.6524   -0.4211   -1.5409 C.3       1 <0>        -0.1074
      2 C2          3.0901    0.7261   -0.7416 C.ar      1 <0>        -0.1228
      3 C3          2.4361    0.4819    0.4506 C.ar      1 <0>        -0.0695
      4 C4          1.9244    1.5320    1.1887 C.ar      1 <0>        -0.1528
      5 C5          2.0567    2.8352    0.7292 C.ar      1 <0>         0.1617
      6 C6          2.7120    3.0845   -0.4660 C.ar      1 <0>        -0.2087
      7 C7          3.2302    2.0287   -1.2038 C.ar      1 <0>         0.1818
      8 N1          3.8915    2.2760   -2.4102 N.pl3     1 <0>        -0.6774
      9 C8          3.2239    2.1086   -3.6137 C.ar      1 <0>         0.4855
     10 C9          1.8844    1.7129   -3.6319 C.ar      1 <0>        -0.3312
     11 C10         1.2584    1.5627   -4.8538 C.ar      1 <0>         0.2109
     12 N2          1.9439    1.7874   -5.9653 N.ar      1 <0>        -0.5937
     13 C11         3.2151    2.1574   -5.9184 C.ar      1 <0>         0.5994
     14 N3          3.8505    2.3170   -4.7671 N.ar      1 <0>        -0.6176
     15 N4          3.8970    2.3826   -7.1029 N.pl3     1 <0>        -0.6526
     16 C12         3.2808    2.1073   -8.3277 C.ar      1 <0>         0.1706
     17 C13         2.4061    1.0327   -8.4397 C.ar      1 <0>        -0.0892
     18 C14         1.7909    0.7594   -9.6468 C.ar      1 <0>        -0.1066
     19 C15         2.0490    1.5452  -10.7518 C.ar      1 <0>        -0.1075
     20 C16         2.9297    2.6233  -10.6512 C.ar      1 <0>        -0.1168
     21 C17         3.5466    2.9025   -9.4317 C.ar      1 <0>        -0.0935
     22 C18         3.2083    3.4663  -11.8335 C.2       1 <0>         0.5644
     23 O1          3.9760    4.4045  -11.7438 O.2       1 <0>        -0.5491
     24 N5          2.6110    3.1946  -13.0108 N.am      1 <0>        -0.8731
     25 O2          1.5488    3.8665    1.4540 O.3       1 <0>        -0.5082
     26 H1          3.4452   -1.3674   -1.0197 H         1 <0>         0.0667
     27 H2          4.7394   -0.2934   -1.6508 H         1 <0>         0.0669
     28 H3          3.1829   -0.4399   -2.5355 H         1 <0>         0.0652
     29 H4          2.3281   -0.5314    0.8084 H         1 <0>         0.1347
     30 H5          1.4172    1.3382    2.1223 H         1 <0>         0.1327
     31 H6          2.8198    4.0981   -0.8228 H         1 <0>         0.1300
     32 H7          4.9416    2.6034   -2.4047 H         1 <0>         0.4392
     33 H8          1.3494    1.5317   -2.7114 H         1 <0>         0.1382
     34 H9          0.2225    1.2614   -4.9030 H         1 <0>         0.1668
     35 H10         4.9232    2.7780   -7.0801 H         1 <0>         0.4501
     36 H11         2.2034    0.4118   -7.5796 H         1 <0>         0.1381
     37 H12         1.1093   -0.0746   -9.7268 H         1 <0>         0.1313
     38 H13         1.5697    1.3256  -11.6943 H         1 <0>         0.1256
     39 H14         4.2293    3.7351   -9.3479 H         1 <0>         0.1369
     40 H15         2.8183    3.8218  -13.8904 H         1 <0>         0.4265
     41 H16         1.9162    2.3457  -13.0921 H         1 <0>         0.4189
     42 H17         1.6538    4.8991    1.0896 H         1 <0>         0.4358
@<TRIPOS>BOND
     1    1    2 1
     2    1   26 1
     3    1   27 1
     4    1   28 1
     5    2    7 ar
     6    2    3 ar
     7    3    4 ar
     8    3   29 1
     9    4    5 ar
    10    4   30 1
    11    5    6 ar
    12    5   25 1
    13    6    7 ar
    14    6   31 1
    15    7    8 1
    16    8    9 1
    17    8   32 1
    18    9   14 ar
    19    9   10 ar
    20   10   11 ar
    21   10   33 1
    22   11   12 ar
    23   11   34 1
    24   12   13 ar
    25   13   14 ar
    26   13   15 1
    27   15   16 1
    28   15   35 1
    29   16   21 ar
    30   16   17 ar
    31   17   18 ar
    32   17   36 1
    33   18   19 ar
    34   18   37 1
    35   19   20 ar
    36   19   38 1
    37   20   21 ar
    38   20   22 1
    39   21   39 1
    40   22   23 2
    41   22   24 am
    42   24   40 1
    43   24   41 1
    44   25   42 1
@<TRIPOS>MOLECULE
ZINC22448983
   66    69     0     0     0
SMALL
USER_CHARGES
4-[(2,4-dichloro-5-methoxy-phenyl)amino]-6-methoxy-7-[3-(4-methylpiperazin-1-yl)propoxy]quinoline-3-carbonitrile
@<TRIPOS>ATOM
      1 C1        -10.0137   -6.5102   -1.8158 C.3       1 <0>        -0.0453
      2 N1         -8.6540   -6.0169   -1.5593 N.4       1 <0>        -0.4030
      3 C2         -7.7903   -6.2205   -2.7307 C.3       1 <0>        -0.0001
      4 C3         -6.3670   -5.7678   -2.3965 C.3       1 <0>         0.0245
      5 N2         -6.3862   -4.3530   -1.9994 N.3       1 <0>        -0.5385
      6 C4         -7.2499   -4.1494   -0.8281 C.3       1 <0>         0.0179
      7 C5         -8.6733   -4.6021   -1.1623 C.3       1 <0>         0.0000
      8 C6         -5.0265   -3.8597   -1.7430 C.3       1 <0>         0.0567
      9 C7         -5.0583   -2.3389   -1.5783 C.3       1 <0>        -0.1184
     10 C8         -3.6421   -1.8251   -1.3112 C.3       1 <0>         0.0518
     11 O1         -3.6719   -0.4047   -1.1574 O.3       1 <0>        -0.2957
     12 C9         -2.4875    0.2141   -0.9129 C.ar      1 <0>         0.1552
     13 C10        -1.3345   -0.5326   -0.8253 C.ar      1 <0>        -0.1775
     14 C11        -0.1099    0.1042   -0.5728 C.ar      1 <0>         0.1880
     15 C12        -0.0839    1.5107   -0.4123 C.ar      1 <0>        -0.1309
     16 C13        -1.2740    2.2476   -0.5007 C.ar      1 <0>        -0.1492
     17 C14        -2.4527    1.6062   -0.7522 C.ar      1 <0>         0.1113
     18 O2         -3.6043    2.3237   -0.8425 O.3       1 <0>        -0.3022
     19 C15        -3.5023    3.7385   -0.6693 C.3       1 <0>         0.0181
     20 C16         1.1518    2.1498   -0.1579 C.ar      1 <0>         0.3245
     21 C17         2.2996    1.3468   -0.0768 C.ar      1 <0>        -0.1668
     22 C18         2.1804   -0.0418   -0.2488 C.ar      1 <0>         0.2178
     23 N3          1.0238   -0.6069   -0.4836 N.ar      1 <0>        -0.5049
     24 C19         3.5791    1.9370    0.1785 C.1       1 <0>         0.2512
     25 N4          4.5940    2.4052    0.3811 N.1       1 <0>        -0.4037
     26 N5          1.2264    3.5186    0.0048 N.pl3     1 <0>        -0.6798
     27 C20         2.4372    4.1835   -0.2122 C.ar      1 <0>         0.1811
     28 C21         3.1043    4.7773    0.8508 C.ar      1 <0>        -0.1911
     29 C22         4.3041    5.4350    0.6325 C.ar      1 <0>         0.1715
     30 C23         4.8372    5.4992   -0.6482 C.ar      1 <0>        -0.0467
     31 C24         4.1721    4.9075   -1.7063 C.ar      1 <0>        -0.0516
     32 C25         2.9774    4.2459   -1.4914 C.ar      1 <0>        -0.0699
     33 Cl1         2.1481    3.4984   -2.8208 Cl        1 <0>        -0.0422
     34 Cl2         6.3403    6.3238   -0.9213 Cl        1 <0>        -0.0317
     35 O3          4.9590    6.0176    1.6716 O.3       1 <0>        -0.2942
     36 C26         4.4145    5.8149    2.9772 C.3       1 <0>         0.0202
     37 H1         -9.9701   -7.5691   -2.1104 H         1 <0>         0.1247
     38 H2        -10.4701   -5.9227   -2.6260 H         1 <0>         0.1201
     39 H3        -10.6190   -6.4082   -0.9030 H         1 <0>         0.1247
     40 H4         -7.7832   -7.2870   -3.0001 H         1 <0>         0.1368
     41 H5         -8.1745   -5.6313   -3.5764 H         1 <0>         0.1352
     42 H6         -5.9734   -6.3765   -1.5691 H         1 <0>         0.0623
     43 H7         -5.7253   -5.8927   -3.2811 H         1 <0>         0.1248
     44 H8         -6.8657   -4.7386    0.0176 H         1 <0>         0.0625
     45 H9         -7.2570   -3.0829   -0.5587 H         1 <0>         0.1270
     46 H10        -9.0676   -3.9944   -1.9901 H         1 <0>         0.1353
     47 H11        -9.3157   -4.4781   -0.2780 H         1 <0>         0.1365
     48 H12        -4.6368   -4.3201   -0.8231 H         1 <0>         0.0524
     49 H13        -4.3751   -4.1233   -2.5893 H         1 <0>         0.0947
     50 H14        -5.4480   -1.8786   -2.4982 H         1 <0>         0.0902
     51 H15        -5.7097   -2.0753   -0.7320 H         1 <0>         0.0766
     52 H16        -3.2525   -2.2855   -0.3913 H         1 <0>         0.0692
     53 H17        -2.9907   -2.0887   -2.1575 H         1 <0>         0.0725
     54 H18        -1.3723   -1.6047   -0.9499 H         1 <0>         0.1520
     55 H19        -1.2569    3.3205   -0.3782 H         1 <0>         0.1400
     56 H20        -4.4995    4.1926   -0.7662 H         1 <0>         0.1079
     57 H21        -2.8337    4.1546   -1.4373 H         1 <0>         0.0600
     58 H22        -3.0952    3.9573    0.3289 H         1 <0>         0.0585
     59 H23         3.0649   -0.6582   -0.1860 H         1 <0>         0.1683
     60 H24         0.3333    4.0863    0.3052 H         1 <0>         0.4433
     61 H25         2.6888    4.7264    1.8464 H         1 <0>         0.1497
     62 H26         4.5888    4.9585   -2.7013 H         1 <0>         0.1559
     63 H27         5.0369    6.3367    3.7191 H         1 <0>         0.1117
     64 H28         4.3977    4.7388    3.2044 H         1 <0>         0.0607
     65 H29         3.3898    6.2132    3.0130 H         1 <0>         0.0594
     66 H30        -8.2365   -6.5985   -0.7241 H         1 <0>         0.4406
@<TRIPOS>BOND
     1    1    2 1
     2    1   37 1
     3    1   38 1
     4    1   39 1
     5    2    7 1
     6    2    3 1
     7    2   66 1
     8    3    4 1
     9    3   40 1
    10    3   41 1
    11    4    5 1
    12    4   42 1
    13    4   43 1
    14    5    6 1
    15    5    8 1
    16    6    7 1
    17    6   44 1
    18    6   45 1
    19    7   46 1
    20    7   47 1
    21    8    9 1
    22    8   48 1
    23    8   49 1
    24    9   10 1
    25    9   50 1
    26    9   51 1
    27   10   11 1
    28   10   52 1
    29   10   53 1
    30   11   12 1
    31   12   17 ar
    32   12   13 ar
    33   13   14 ar
    34   13   54 1
    35   14   23 ar
    36   14   15 ar
    37   15   16 ar
    38   15   20 ar
    39   16   17 ar
    40   16   55 1
    41   17   18 1
    42   18   19 1
    43   19   56 1
    44   19   57 1
    45   19   58 1
    46   20   21 ar
    47   20   26 1
    48   21   22 ar
    49   21   24 1
    50   22   23 ar
    51   22   59 1
    52   24   25 3
    53   26   27 1
    54   26   60 1
    55   27   32 ar
    56   27   28 ar
    57   28   29 ar
    58   28   61 1
    59   29   30 ar
    60   29   35 1
    61   30   31 ar
    62   30   34 1
    63   31   32 ar
    64   31   62 1
    65   32   33 1
    66   35   36 1
    67   36   63 1
    68   36   64 1
    69   36   65 1
@<TRIPOS>MOLECULE
ZINC22448983
   66    69     0     0     0
SMALL
USER_CHARGES
4-[(2,4-dichloro-5-methoxy-phenyl)amino]-6-methoxy-7-[3-(4-methylpiperazin-1-yl)propoxy]quinoline-3-carbonitrile
@<TRIPOS>ATOM
      1 C1        -10.0137   -6.5102   -1.8158 C.3       1 <0>         0.0169
      2 N1         -8.6540   -6.0169   -1.5593 N.3       1 <0>        -0.5441
      3 C2         -7.7903   -6.2205   -2.7307 C.3       1 <0>         0.0228
      4 C3         -6.3670   -5.7678   -2.3965 C.3       1 <0>         0.0009
      5 N2         -6.3862   -4.3530   -1.9994 N.4       1 <0>        -0.3998
      6 C4         -7.2499   -4.1494   -0.8281 C.3       1 <0>        -0.0049
      7 C5         -8.6733   -4.6021   -1.1623 C.3       1 <0>         0.0237
      8 C6         -5.0265   -3.8597   -1.7430 C.3       1 <0>        -0.0032
      9 C7         -5.0583   -2.3389   -1.5783 C.3       1 <0>        -0.1498
     10 C8         -3.6421   -1.8251   -1.3112 C.3       1 <0>         0.0546
     11 O1         -3.6719   -0.4047   -1.1574 O.3       1 <0>        -0.2954
     12 C9         -2.4875    0.2141   -0.9129 C.ar      1 <0>         0.1508
     13 C10        -1.3345   -0.5326   -0.8253 C.ar      1 <0>        -0.1739
     14 C11        -0.1099    0.1042   -0.5728 C.ar      1 <0>         0.1865
     15 C12        -0.0839    1.5107   -0.4123 C.ar      1 <0>        -0.1289
     16 C13        -1.2740    2.2476   -0.5007 C.ar      1 <0>        -0.1461
     17 C14        -2.4527    1.6062   -0.7522 C.ar      1 <0>         0.1109
     18 O2         -3.6043    2.3237   -0.8425 O.3       1 <0>        -0.3036
     19 C15        -3.5023    3.7385   -0.6693 C.3       1 <0>         0.0176
     20 C16         1.1518    2.1498   -0.1579 C.ar      1 <0>         0.3244
     21 C17         2.2996    1.3468   -0.0768 C.ar      1 <0>        -0.1637
     22 C18         2.1804   -0.0418   -0.2488 C.ar      1 <0>         0.2201
     23 N3          1.0238   -0.6069   -0.4836 N.ar      1 <0>        -0.5059
     24 C19         3.5791    1.9370    0.1785 C.1       1 <0>         0.2491
     25 N4          4.5940    2.4052    0.3811 N.1       1 <0>        -0.4000
     26 N5          1.2264    3.5186    0.0048 N.pl3     1 <0>        -0.6785
     27 C20         2.4372    4.1835   -0.2122 C.ar      1 <0>         0.1791
     28 C21         3.1043    4.7773    0.8508 C.ar      1 <0>        -0.1908
     29 C22         4.3041    5.4350    0.6325 C.ar      1 <0>         0.1720
     30 C23         4.8372    5.4992   -0.6482 C.ar      1 <0>        -0.0462
     31 C24         4.1721    4.9075   -1.7063 C.ar      1 <0>        -0.0515
     32 C25         2.9774    4.2459   -1.4914 C.ar      1 <0>        -0.0696
     33 Cl1         2.1481    3.4984   -2.8208 Cl        1 <0>        -0.0433
     34 Cl2         6.3403    6.3238   -0.9213 Cl        1 <0>        -0.0302
     35 O3          4.9590    6.0176    1.6716 O.3       1 <0>        -0.2936
     36 C26         4.4145    5.8149    2.9772 C.3       1 <0>         0.0200
     37 H1         -9.9701   -7.5691   -2.1104 H         1 <0>         0.0846
     38 H2        -10.4701   -5.9227   -2.6260 H         1 <0>         0.0401
     39 H3        -10.6190   -6.4082   -0.9030 H         1 <0>         0.0850
     40 H4         -7.7832   -7.2870   -3.0001 H         1 <0>         0.1245
     41 H5         -8.1745   -5.6313   -3.5764 H         1 <0>         0.0612
     42 H6         -5.9734   -6.3765   -1.5691 H         1 <0>         0.1366
     43 H7         -5.7253   -5.8927   -3.2811 H         1 <0>         0.1378
     44 H8         -6.8657   -4.7386    0.0176 H         1 <0>         0.1367
     45 H9         -7.2570   -3.0829   -0.5587 H         1 <0>         0.1381
     46 H10        -9.0676   -3.9944   -1.9901 H         1 <0>         0.0613
     47 H11        -9.3157   -4.4781   -0.2780 H         1 <0>         0.1241
     48 H12        -4.6368   -4.3201   -0.8231 H         1 <0>         0.1339
     49 H13        -4.3751   -4.1233   -2.5893 H         1 <0>         0.1372
     50 H14        -5.4480   -1.8786   -2.4982 H         1 <0>         0.1006
     51 H15        -5.7097   -2.0753   -0.7320 H         1 <0>         0.0999
     52 H16        -3.2525   -2.2855   -0.3913 H         1 <0>         0.0789
     53 H17        -2.9907   -2.0887   -2.1575 H         1 <0>         0.0790
     54 H18        -1.3723   -1.6047   -0.9499 H         1 <0>         0.1517
     55 H19        -1.2569    3.3205   -0.3782 H         1 <0>         0.1413
     56 H20        -4.4995    4.1926   -0.7662 H         1 <0>         0.1090
     57 H21        -2.8337    4.1546   -1.4373 H         1 <0>         0.0608
     58 H22        -3.0952    3.9573    0.3289 H         1 <0>         0.0597
     59 H23         3.0649   -0.6582   -0.1860 H         1 <0>         0.1696
     60 H24         0.3333    4.0863    0.3052 H         1 <0>         0.4436
     61 H25         2.6888    4.7264    1.8464 H         1 <0>         0.1501
     62 H26         4.5888    4.9585   -2.7013 H         1 <0>         0.1563
     63 H27         5.0369    6.3367    3.7191 H         1 <0>         0.1123
     64 H28         4.3977    4.7388    3.2044 H         1 <0>         0.0608
     65 H29         3.3898    6.2132    3.0130 H         1 <0>         0.0596
     66 H30        -6.8037   -3.7713   -2.8345 H         1 <0>         0.4393
@<TRIPOS>BOND
     1    1    2 1
     2    1   37 1
     3    1   38 1
     4    1   39 1
     5    2    7 1
     6    2    3 1
     7    3    4 1
     8    3   40 1
     9    3   41 1
    10    4    5 1
    11    4   42 1
    12    4   43 1
    13    5    6 1
    14    5    8 1
    15    5   66 1
    16    6    7 1
    17    6   44 1
    18    6   45 1
    19    7   46 1
    20    7   47 1
    21    8    9 1
    22    8   48 1
    23    8   49 1
    24    9   10 1
    25    9   50 1
    26    9   51 1
    27   10   11 1
    28   10   52 1
    29   10   53 1
    30   11   12 1
    31   12   17 ar
    32   12   13 ar
    33   13   14 ar
    34   13   54 1
    35   14   23 ar
    36   14   15 ar
    37   15   16 ar
    38   15   20 ar
    39   16   17 ar
    40   16   55 1
    41   17   18 1
    42   18   19 1
    43   19   56 1
    44   19   57 1
    45   19   58 1
    46   20   21 ar
    47   20   26 1
    48   21   22 ar
    49   21   24 1
    50   22   23 ar
    51   22   59 1
    52   24   25 3
    53   26   27 1
    54   26   60 1
    55   27   32 ar
    56   27   28 ar
    57   28   29 ar
    58   28   61 1
    59   29   30 ar
    60   29   35 1
    61   30   31 ar
    62   30   34 1
    63   31   32 ar
    64   31   62 1
    65   32   33 1
    66   35   36 1
    67   36   63 1
    68   36   64 1
    69   36   65 1
@<TRIPOS>MOLECULE
ZINC13489140
   41    43     0     0     0
SMALL
USER_CHARGES
N-[7-(4-methoxyphenyl)-1,6-naphthyridin-5-yl]ethane-1,2-diamine
@<TRIPOS>ATOM
      1 C1         -3.3787    9.9667    0.0671 C.3       1 <0>         0.0197
      2 O1         -2.1342    9.2645    0.0579 O.3       1 <0>        -0.3137
      3 C2         -2.1919    7.9073    0.0516 C.ar      1 <0>         0.1485
      4 C3         -1.0190    7.1640    0.0425 C.ar      1 <0>        -0.1624
      5 C4         -1.0742    5.7865    0.0362 C.ar      1 <0>        -0.0375
      6 C5         -2.3096    5.1397    0.0390 C.ar      1 <0>        -0.0983
      7 C6         -3.4856    5.8890    0.0423 C.ar      1 <0>        -0.0504
      8 C7         -3.4236    7.2662    0.0539 C.ar      1 <0>        -0.2099
      9 C8         -2.3725    3.6586    0.0322 C.ar      1 <0>         0.2267
     10 C9         -3.6071    3.0366    0.0351 C.ar      1 <0>        -0.1920
     11 C10        -3.6581    1.6315    0.0282 C.ar      1 <0>         0.1963
     12 C11        -2.4319    0.9183    0.0186 C.ar      1 <0>        -0.1980
     13 C12        -2.4610   -0.4837    0.0116 C.ar      1 <0>        -0.0348
     14 C13        -3.6815   -1.1030    0.0153 C.ar      1 <0>        -0.1853
     15 C14        -4.8475   -0.3437    0.0249 C.ar      1 <0>         0.1630
     16 N1         -4.8165    0.9690    0.0309 N.ar      1 <0>        -0.4772
     17 C15        -1.2182    1.6410    0.0167 C.ar      1 <0>         0.4532
     18 N2         -1.2361    2.9593    0.0294 N.ar      1 <0>        -0.5524
     19 N3         -0.0111    0.9658    0.0074 N.pl3     1 <0>        -0.7297
     20 C16         1.2475    1.7155   -0.0006 C.3       1 <0>         0.1090
     21 C17         2.4238    0.7372   -0.0171 C.3       1 <0>        -0.0154
     22 N4          3.6858    1.4890   -0.0251 N.4       1 <0>        -0.6822
     23 H1         -3.1884   11.0501    0.0715 H         1 <0>         0.1071
     24 H2         -3.9487    9.6909    0.9666 H         1 <0>         0.0607
     25 H3         -3.9570    9.6996   -0.8297 H         1 <0>         0.0607
     26 H4         -0.0625    7.6655    0.0408 H         1 <0>         0.1342
     27 H5         -0.1616    5.2089    0.0288 H         1 <0>         0.1345
     28 H6         -4.4439    5.3909    0.0396 H         1 <0>         0.1340
     29 H7         -4.3341    7.8471    0.0610 H         1 <0>         0.1365
     30 H8         -4.5162    3.6196    0.0429 H         1 <0>         0.1482
     31 H9         -1.5465   -1.0582    0.0043 H         1 <0>         0.1329
     32 H10        -3.7396   -2.1815    0.0105 H         1 <0>         0.1451
     33 H11        -5.8030   -0.8472    0.0277 H         1 <0>         0.1685
     34 H12         0.0039   -0.1341    0.0060 H         1 <0>         0.4358
     35 H13         1.2886    2.3535   -0.8958 H         1 <0>         0.0851
     36 H14         1.3058    2.3438    0.9004 H         1 <0>         0.0851
     37 H15         2.3827    0.0992    0.8781 H         1 <0>         0.1340
     38 H16         2.3656    0.1089   -0.9181 H         1 <0>         0.1340
     39 H17         4.5315    0.7857   -0.0370 H         1 <0>         0.4654
     40 H18         3.7440    2.1173    0.8759 H         1 <0>         0.4604
     41 H19         3.7269    2.1270   -0.9203 H         1 <0>         0.4605
@<TRIPOS>BOND
     1    1    2 1
     2    1   23 1
     3    1   24 1
     4    1   25 1
     5    2    3 1
     6    3    8 ar
     7    3    4 ar
     8    4    5 ar
     9    4   26 1
    10    5    6 ar
    11    5   27 1
    12    6    7 ar
    13    6    9 1
    14    7    8 ar
    15    7   28 1
    16    8   29 1
    17    9   18 ar
    18    9   10 ar
    19   10   11 ar
    20   10   30 1
    21   11   16 ar
    22   11   12 ar
    23   12   13 ar
    24   12   17 ar
    25   13   14 ar
    26   13   31 1
    27   14   15 ar
    28   14   32 1
    29   15   16 ar
    30   15   33 1
    31   17   18 ar
    32   17   19 1
    33   19   20 1
    34   19   34 1
    35   20   21 1
    36   20   35 1
    37   20   36 1
    38   21   22 1
    39   21   37 1
    40   21   38 1
    41   22   39 1
    42   22   40 1
    43   22   41 1
@<TRIPOS>MOLECULE
ZINC13538921
   37    40     0     0     0
SMALL
USER_CHARGES

@<TRIPOS>ATOM
      1 C1          0.7590    0.8808    2.1775 C.ar      1 <0>        -0.1302
      2 C2          1.8282    1.6709    1.7814 C.ar      1 <0>        -0.1042
      3 C3          2.7268    1.2160    0.8413 C.ar      1 <0>        -0.1186
      4 C4          2.5656   -0.0472    0.2801 C.ar      1 <0>         0.0785
      5 C5          1.4832   -0.8447    0.6824 C.ar      1 <0>        -0.0695
      6 C6          0.5825   -0.3729    1.6332 C.ar      1 <0>        -0.0826
      7 C7          1.5957   -2.1000   -0.0863 C.2       1 <0>        -0.2224
      8 C8          2.7171   -1.9671   -0.8797 C.2       1 <0>         0.1719
      9 N1          3.2844   -0.7572   -0.6604 N.pl3     1 <0>        -0.5746
     10 H1          4.0851   -0.4344   -1.1026 H         1 <0>         0.4217
     11 C9          0.7279   -3.2164   -0.0219 C.2       1 <0>         0.1156
     12 C10         1.2371   -4.4938   -0.1383 C.2       1 <0>        -0.2221
     13 C11         0.4773   -5.7581   -0.2624 C.ar      1 <0>        -0.1084
     14 C12        -0.8812   -6.0548   -0.2993 C.ar      1 <0>         0.0304
     15 C13        -1.2920   -7.3663   -0.4249 C.ar      1 <0>        -0.6972
     16 C14        -0.3547   -8.3823   -0.5133 C.ar      1 <0>         0.0110
     17 C15         0.9953   -8.0985   -0.4772 C.ar      1 <0>        -0.1559
     18 C16         1.4287   -6.7830   -0.3519 C.ar      1 <0>         0.1981
     19 N2          2.7018   -6.2299   -0.2911 N.am      1 <0>        -0.6530
     20 C17         2.6497   -4.8924   -0.1724 C.2       1 <0>         0.5623
     21 O1          3.6071   -4.1422   -0.1023 O.2       1 <0>        -0.5039
     22 S1         -3.0113   -7.7490   -0.4724 S.o2      1 <0>         2.7052
     23 O2         -3.1389   -9.0986   -0.0464 O.2       1 <0>        -0.9629
     24 O3         -3.6836   -6.6785    0.1766 O.2       1 <0>        -0.9628
     25 N3         -3.4784   -7.7078   -2.0606 N.pl3     1 <0>        -1.2506
     26 H2          0.0645    1.2479    2.9187 H         1 <0>         0.1272
     27 H3          1.9572    2.6521    2.2138 H         1 <0>         0.1285
     28 H4          3.5555    1.8395    0.5398 H         1 <0>         0.1225
     29 H5         -0.2508   -0.9863    1.9426 H         1 <0>         0.1258
     30 H6          3.0851   -2.7126   -1.5690 H         1 <0>         0.1814
     31 H7         -0.3327   -3.0685    0.1183 H         1 <0>         0.1425
     32 H8         -1.6114   -5.2621   -0.2296 H         1 <0>         0.1481
     33 H9         -0.6835   -9.4064   -0.6111 H         1 <0>         0.1510
     34 H10         1.7165   -8.8994   -0.5466 H         1 <0>         0.1392
     35 H11         3.5236   -6.7435   -0.3336 H         1 <0>         0.4198
     36 H12        -2.8305   -7.4983   -2.7514 H         1 <0>         0.4169
     37 H13        -4.3999   -7.8932   -2.3000 H         1 <0>         0.4213
@<TRIPOS>BOND
     1    1    6 ar
     2    1    2 ar
     3    1   26 1
     4    2    3 ar
     5    2   27 1
     6    3    4 ar
     7    3   28 1
     8    4    9 1
     9    4    5 ar
    10    5    6 ar
    11    5    7 1
    12    6   29 1
    13    7    8 2
    14    7   11 1
    15    8    9 1
    16    8   30 1
    17    9   10 1
    18   11   12 2
    19   11   31 1
    20   12   20 1
    21   12   13 1
    22   13   18 ar
    23   13   14 ar
    24   14   15 ar
    25   14   32 1
    26   15   16 ar
    27   15   22 1
    28   16   17 ar
    29   16   33 1
    30   17   18 ar
    31   17   34 1
    32   18   19 1
    33   19   20 am
    34   19   35 1
    35   20   21 2
    36   22   23 2
    37   22   24 2
    38   22   25 1
    39   25   36 1
    40   25   37 1
@<TRIPOS>MOLECULE
ZINC13831338
   48    51     0     0     0
SMALL
USER_CHARGES

@<TRIPOS>ATOM
      1 C1          3.6884   -4.5470    0.7630 C.ar      1 <0>        -0.1011
      2 C2          4.7553   -3.8912    0.1758 C.ar      1 <0>        -0.0894
      3 C3          4.5952   -2.6108   -0.3208 C.ar      1 <0>        -0.1622
      4 C4          3.3684   -1.9823   -0.2319 C.ar      1 <0>        -0.1014
      5 C5          2.2951   -2.6379    0.3571 C.ar      1 <0>         0.1580
      6 C6          2.4594   -3.9244    0.8551 C.ar      1 <0>        -0.0836
      7 N1          1.0523   -2.0045    0.4492 N.pl3     1 <0>        -0.6496
      8 C7         -0.1136   -2.7447    0.3274 C.ar      1 <0>         0.4659
      9 C8         -1.3605   -2.1179    0.3881 C.ar      1 <0>        -0.3243
     10 C9         -2.4952   -2.8950    0.2615 C.ar      1 <0>         0.2163
     11 N2         -2.3694   -4.2025    0.0875 N.ar      1 <0>        -0.5803
     12 C10        -1.1738   -4.7705    0.0338 C.ar      1 <0>         0.5960
     13 N3         -0.0613   -4.0602    0.1458 N.ar      1 <0>        -0.6075
     14 N4         -1.0847   -6.1407   -0.1494 N.pl3     1 <0>        -0.6357
     15 C11        -2.2410   -6.8917   -0.3809 C.ar      1 <0>         0.1846
     16 C12        -3.2942   -6.3427   -1.1026 C.ar      1 <0>        -0.1235
     17 C13        -4.4369   -7.0841   -1.3317 C.ar      1 <0>        -0.0802
     18 C14        -4.5371   -8.3732   -0.8441 C.ar      1 <0>        -0.1359
     19 C15        -3.4882   -8.9276   -0.1216 C.ar      1 <0>         0.1654
     20 C16        -2.3362   -8.1880    0.1047 C.ar      1 <0>        -0.1759
     21 N5         -3.5910  -10.2326    0.3726 N.am      1 <0>        -0.6704
     22 C17        -4.2799  -11.1625   -0.3182 C.2       1 <0>         0.5439
     23 O1         -4.7267  -10.8964   -1.4139 O.2       1 <0>        -0.5155
     24 C18        -4.4949  -12.5329    0.2707 C.3       1 <0>        -0.1994
     25 C19        -3.7732  -13.7079   -0.3922 C.3       1 <0>        -0.1512
     26 C20        -5.2848  -13.5440   -0.5626 C.3       1 <0>        -0.1443
     27 C21         5.7605   -1.9000   -0.9594 C.3       1 <0>         0.5094
     28 F1          6.8854   -2.7313   -0.9323 F         1 <0>        -0.1753
     29 F2          5.4450   -1.5853   -2.2855 F         1 <0>        -0.1758
     30 F3          6.0330   -0.7235   -0.2531 F         1 <0>        -0.1762
     31 H1          3.8157   -5.5487    1.1459 H         1 <0>         0.1381
     32 H2          5.7156   -4.3803    0.1054 H         1 <0>         0.1395
     33 H3          3.2441   -0.9820   -0.6197 H         1 <0>         0.1355
     34 H4          1.6266   -4.4371    1.3134 H         1 <0>         0.1478
     35 H5          1.0057   -1.0472    0.5982 H         1 <0>         0.4256
     36 H6         -1.4355   -1.0501    0.5311 H         1 <0>         0.1455
     37 H7         -3.4746   -2.4418    0.3042 H         1 <0>         0.1731
     38 H8         -0.2200   -6.5791   -0.1170 H         1 <0>         0.4224
     39 H9         -3.2192   -5.3352   -1.4845 H         1 <0>         0.1365
     40 H10        -5.2540   -6.6552   -1.8928 H         1 <0>         0.1295
     41 H11        -5.4321   -8.9501   -1.0246 H         1 <0>         0.1340
     42 H12        -1.5173   -8.6186    0.6618 H         1 <0>         0.1271
     43 H13        -3.1665  -10.4681    1.2124 H         1 <0>         0.4121
     44 H14        -4.6207  -12.5650    1.3530 H         1 <0>         0.1280
     45 H15        -3.1429  -13.4897   -1.2543 H         1 <0>         0.1008
     46 H16        -3.4240  -14.5133    0.2539 H         1 <0>         0.1075
     47 H17        -5.9301  -14.2416   -0.0287 H         1 <0>         0.1064
     48 H18        -5.6490  -13.2180   -1.5369 H         1 <0>         0.1097
@<TRIPOS>BOND
     1    1    6 ar
     2    1    2 ar
     3    1   31 1
     4    2    3 ar
     5    2   32 1
     6    3    4 ar
     7    3   27 1
     8    4    5 ar
     9    4   33 1
    10    5    6 ar
    11    5    7 1
    12    6   34 1
    13    7    8 1
    14    7   35 1
    15    8   13 ar
    16    8    9 ar
    17    9   10 ar
    18    9   36 1
    19   10   11 ar
    20   10   37 1
    21   11   12 ar
    22   12   13 ar
    23   12   14 1
    24   14   15 1
    25   14   38 1
    26   15   20 ar
    27   15   16 ar
    28   16   17 ar
    29   16   39 1
    30   17   18 ar
    31   17   40 1
    32   18   19 ar
    33   18   41 1
    34   19   20 ar
    35   19   21 1
    36   20   42 1
    37   21   22 am
    38   21   43 1
    39   22   23 2
    40   22   24 1
    41   24   26 1
    42   24   25 1
    43   24   44 1
    44   25   26 1
    45   25   45 1
    46   25   46 1
    47   26   47 1
    48   26   48 1
    49   27   28 1
    50   27   29 1
    51   27   30 1
@<TRIPOS>MOLECULE
ZINC28950583
   44    47     0     0     0
SMALL
USER_CHARGES
3-[[4-[(5-methyl-1H-indazol-4-yl)amino]pyrimidin-2-yl]amino]benzamide
@<TRIPOS>ATOM
      1 C1         -1.9860   -0.1503    0.5089 C.3       1 <0>        -0.1055
      2 C2         -0.7365   -0.7545   -0.0785 C.ar      1 <0>        -0.1195
      3 C3         -0.6690   -2.1241   -0.2949 C.ar      1 <0>        -0.0596
      4 C4          0.4627   -2.6956   -0.8302 C.ar      1 <0>        -0.1348
      5 C5          1.5565   -1.8985   -1.1607 C.ar      1 <0>         0.1213
      6 C6          1.4959   -0.5090   -0.9512 C.ar      1 <0>        -0.1779
      7 C7          0.3336    0.0586   -0.3982 C.ar      1 <0>         0.2179
      8 N1          0.2599    1.4344   -0.1795 N.pl3     1 <0>        -0.6744
      9 C8          0.9531    2.0066    0.8760 C.ar      1 <0>         0.4848
     10 C9          1.8315    1.2402    1.6454 C.ar      1 <0>        -0.3284
     11 C10         2.5010    1.8523    2.6868 C.ar      1 <0>         0.2108
     12 N2          2.2924    3.1392    2.9242 N.ar      1 <0>        -0.5928
     13 C11         1.4533    3.8421    2.1780 C.ar      1 <0>         0.5987
     14 N3          0.7957    3.2939    1.1671 N.ar      1 <0>        -0.6151
     15 N4          1.2624    5.1850    2.4588 N.pl3     1 <0>        -0.6520
     16 C12         1.8735    5.7591    3.5780 C.ar      1 <0>         0.1706
     17 C13         2.0515    5.0084    4.7344 C.ar      1 <0>        -0.0901
     18 C14         2.6600    5.5694    5.8412 C.ar      1 <0>        -0.1068
     19 C15         3.0849    6.8823    5.8097 C.ar      1 <0>        -0.1082
     20 C16         2.9056    7.6464    4.6555 C.ar      1 <0>        -0.1169
     21 C17         2.2966    7.0785    3.5364 C.ar      1 <0>        -0.0940
     22 C18         3.3594    9.0532    4.6193 C.2       1 <0>         0.5644
     23 O1          3.2019    9.7169    3.6132 O.2       1 <0>        -0.5491
     24 N5          3.9475    9.5996    5.7019 N.am      1 <0>        -0.8732
     25 C19         2.7374    0.0252   -1.3699 C.2       1 <0>         0.0751
     26 N6          3.4842   -0.9480   -1.8048 N.2       1 <0>        -0.2330
     27 N7          2.7926   -2.1604   -1.6941 N.pl3     1 <0>        -0.5126
     28 H1          3.0738   -3.1926   -1.9498 H         1 <0>         0.4735
     29 H2         -2.7237   -0.9443    0.6971 H         1 <0>         0.0676
     30 H3         -2.4065    0.5810   -0.1970 H         1 <0>         0.0682
     31 H4         -1.7398    0.3533    1.4553 H         1 <0>         0.0661
     32 H5         -1.5135   -2.7476   -0.0408 H         1 <0>         0.1361
     33 H6          0.5031   -3.7624   -0.9938 H         1 <0>         0.1307
     34 H7         -0.3482    2.0652   -0.8445 H         1 <0>         0.4405
     35 H8          1.9839    0.1928    1.4307 H         1 <0>         0.1376
     36 H9          3.1870    1.2882    3.3013 H         1 <0>         0.1656
     37 H10         0.6301    5.7999    1.8014 H         1 <0>         0.4502
     38 H11         1.7168    3.9820    4.7666 H         1 <0>         0.1402
     39 H12         2.7997    4.9799    6.7353 H         1 <0>         0.1309
     40 H13         3.5556    7.3185    6.6784 H         1 <0>         0.1252
     41 H14         2.1549    7.6649    2.6406 H         1 <0>         0.1369
     42 H15         4.2851   10.6462    5.6750 H         1 <0>         0.4263
     43 H16         4.0899    8.9990    6.6124 H         1 <0>         0.4188
     44 H17         3.0170    1.0679   -1.3383 H         1 <0>         0.1857
@<TRIPOS>BOND
     1    1    2 1
     2    1   29 1
     3    1   30 1
     4    1   31 1
     5    2    7 ar
     6    2    3 ar
     7    3    4 ar
     8    3   32 1
     9    4    5 ar
    10    4   33 1
    11    5   27 1
    12    5    6 ar
    13    6    7 ar
    14    6   25 1
    15    7    8 1
    16    8    9 1
    17    8   34 1
    18    9   14 ar
    19    9   10 ar
    20   10   11 ar
    21   10   35 1
    22   11   12 ar
    23   11   36 1
    24   12   13 ar
    25   13   14 ar
    26   13   15 1
    27   15   16 1
    28   15   37 1
    29   16   21 ar
    30   16   17 ar
    31   17   18 ar
    32   17   38 1
    33   18   19 ar
    34   18   39 1
    35   19   20 ar
    36   19   40 1
    37   20   21 ar
    38   20   22 1
    39   21   41 1
    40   22   23 2
    41   22   24 am
    42   24   42 1
    43   24   43 1
    44   25   26 2
    45   25   44 1
    46   26   27 1
    47   27   28 1
@<TRIPOS>MOLECULE
ZINC53214756
   71    77     0     0     0
SMALL
USER_CHARGES

@<TRIPOS>ATOM
      1 C1          0.5182    1.2656    0.0086 C.3       1 <0>        -0.1155
      2 C2          0.2506   -0.2166    0.0604 C.ar      1 <0>        -0.0497
      3 C3          0.2481   -0.9597   -1.1037 C.ar      1 <0>        -0.1186
      4 C4          0.0026   -2.3198   -1.0570 C.ar      1 <0>        -0.0884
      5 C5         -0.2415   -2.9401    0.1545 C.ar      1 <0>        -0.1186
      6 C6         -0.2408   -2.2025    1.3222 C.ar      1 <0>        -0.0496
      7 C7          0.0119   -0.8376    1.2794 C.ar      1 <0>         0.1132
      8 N1          0.0195   -0.0880    2.4621 N.am      1 <0>        -0.4628
      9 C8          1.1754    0.0671    3.1395 C.2       1 <0>         0.5876
     10 O1          2.2055   -0.4366    2.7329 O.2       1 <0>        -0.4766
     11 C9          1.1651    0.8564    4.3771 C.ar      1 <0>        -0.3314
     12 C10         2.3164    1.0650    5.1361 C.ar      1 <0>         0.2960
     13 N2          2.2205    1.7893    6.2384 N.ar      1 <0>        -0.5681
     14 C11         1.0592    2.3086    6.6198 C.ar      1 <0>         0.6153
     15 N3         -0.0593    2.1343    5.9278 N.ar      1 <0>        -0.5809
     16 C12        -0.0503    1.4225    4.8116 C.ar      1 <0>         0.4906
     17 N4         -1.1953    1.2203    4.0642 N.pl3     1 <0>        -0.4382
     18 C13        -1.1579    0.4842    2.9105 C.2       1 <0>         0.5183
     19 N5         -2.3621    0.4426    2.3823 N.2       1 <0>        -0.4645
     20 C14        -3.2306    1.1446    3.1528 C.ar      1 <0>         0.0828
     21 C15        -2.5030    1.6464    4.2441 C.ar      1 <0>         0.0493
     22 C16        -3.1402    2.4112    5.2088 C.ar      1 <0>        -0.0820
     23 C17        -4.4924    2.6647    5.1012 C.ar      1 <0>        -0.1037
     24 C18        -5.2191    2.1593    4.0338 C.ar      1 <0>        -0.1042
     25 C19        -4.5978    1.4166    3.0545 C.ar      1 <0>        -0.0679
     26 N6          1.0141    3.0568    7.7788 N.pl3     1 <0>        -0.6227
     27 C20         2.1976    3.3550    8.4664 C.ar      1 <0>         0.1197
     28 C21         3.3516    3.6665    7.7596 C.ar      1 <0>        -0.0547
     29 C22         4.5180    3.9609    8.4372 C.ar      1 <0>        -0.1652
     30 C23         4.5370    3.9455    9.8258 C.ar      1 <0>         0.1889
     31 C24         3.3829    3.6340   10.5327 C.ar      1 <0>        -0.1650
     32 C25         2.2152    3.3448    9.8549 C.ar      1 <0>        -0.0878
     33 N7          5.7192    4.2434   10.5127 N.pl3     1 <0>        -0.6448
     34 C26         5.7951    4.1201   11.9766 C.3       1 <0>         0.0998
     35 C27         7.0337    3.2905   12.3307 C.3       1 <0>        -0.0233
     36 N8          8.2199    3.8949   11.7112 N.4       1 <0>        -0.3839
     37 C28         8.1071    3.8319   10.2485 C.3       1 <0>        -0.0234
     38 C29         6.9233    4.6829    9.7908 C.3       1 <0>         0.0984
     39 C30         9.4200    3.1642   12.1398 C.3       1 <0>        -0.0472
     40 C31        -0.5079   -2.8791    2.6420 C.3       1 <0>        -0.1156
     41 H1          1.5892    1.4449    0.1025 H         1 <0>         0.0752
     42 H2          0.1648    1.6656   -0.9418 H         1 <0>         0.0779
     43 H3         -0.0059    1.7582    0.8276 H         1 <0>         0.0553
     44 H4          0.4377   -0.4780   -2.0516 H         1 <0>         0.1329
     45 H5          0.0011   -2.8987   -1.9688 H         1 <0>         0.1325
     46 H6         -0.4333   -4.0024    0.1877 H         1 <0>         0.1329
     47 H7          3.2634    0.6449    4.8311 H         1 <0>         0.1986
     48 H8         -2.5798    2.8074    6.0427 H         1 <0>         0.1350
     49 H9         -4.9880    3.2604    5.8535 H         1 <0>         0.1380
     50 H10        -6.2769    2.3646    3.9605 H         1 <0>         0.1394
     51 H11        -5.1692    1.0284    2.2243 H         1 <0>         0.1404
     52 H12         0.1630    3.3761    8.1171 H         1 <0>         0.4293
     53 H13         3.3369    3.6781    6.6797 H         1 <0>         0.1348
     54 H14         5.4156    4.2027    7.8875 H         1 <0>         0.1280
     55 H15         3.3977    3.6218   11.6125 H         1 <0>         0.1290
     56 H16         1.3165    3.1070   10.4046 H         1 <0>         0.1330
     57 H17         5.8776    5.1107   12.4239 H         1 <0>         0.0880
     58 H18         4.9008    3.6203   12.3489 H         1 <0>         0.1262
     59 H19         7.1599    3.2695   13.4132 H         1 <0>         0.1409
     60 H20         6.9082    2.2734   11.9595 H         1 <0>         0.1326
     61 H21         9.0242    4.2099    9.7966 H         1 <0>         0.1415
     62 H22         7.9491    2.7984    9.9403 H         1 <0>         0.1328
     63 H23         6.7746    4.5550    8.7185 H         1 <0>         0.1273
     64 H24         7.1217    5.7313   10.0135 H         1 <0>         0.0878
     65 H25         9.3399    2.1216   11.8321 H         1 <0>         0.1218
     66 H26        10.3013    3.6119   11.6806 H         1 <0>         0.1253
     67 H27         9.5093    3.2170   13.2249 H         1 <0>         0.1251
     68 H28         0.4336   -3.2206    3.0723 H         1 <0>         0.0751
     69 H29        -0.9835   -2.1730    3.3226 H         1 <0>         0.0555
     70 H30        -1.1669   -3.7331    2.4857 H         1 <0>         0.0778
     71 H31         8.2947    4.8587   12.0003 H         1 <0>         0.4247
@<TRIPOS>BOND
     1    1    2 1
     2    1   41 1
     3    1   42 1
     4    1   43 1
     5    2    7 ar
     6    2    3 ar
     7    3    4 ar
     8    3   44 1
     9    4    5 ar
    10    4   45 1
    11    5    6 ar
    12    5   46 1
    13    6    7 ar
    14    6   40 1
    15    7    8 1
    16    8   18 1
    17    8    9 am
    18    9   10 2
    19    9   11 1
    20   11   16 ar
    21   11   12 ar
    22   12   13 ar
    23   12   47 1
    24   13   14 ar
    25   14   15 ar
    26   14   26 1
    27   15   16 ar
    28   16   17 1
    29   17   21 1
    30   17   18 1
    31   18   19 2
    32   19   20 1
    33   20   25 ar
    34   20   21 ar
    35   21   22 ar
    36   22   23 ar
    37   22   48 1
    38   23   24 ar
    39   23   49 1
    40   24   25 ar
    41   24   50 1
    42   25   51 1
    43   26   27 1
    44   26   52 1
    45   27   32 ar
    46   27   28 ar
    47   28   29 ar
    48   28   53 1
    49   29   30 ar
    50   29   54 1
    51   30   31 ar
    52   30   33 1
    53   31   32 ar
    54   31   55 1
    55   32   56 1
    56   33   38 1
    57   33   34 1
    58   34   35 1
    59   34   57 1
    60   34   58 1
    61   35   36 1
    62   35   59 1
    63   35   60 1
    64   36   37 1
    65   36   39 1
    66   36   71 1
    67   37   38 1
    68   37   61 1
    69   37   62 1
    70   38   63 1
    71   38   64 1
    72   39   65 1
    73   39   66 1
    74   39   67 1
    75   40   68 1
    76   40   69 1
    77   40   70 1
@<TRIPOS>MOLECULE
ZINC53214756
   72    78     0     0     0
SMALL
USER_CHARGES

@<TRIPOS>ATOM
      1 C1          0.4332    1.8459   -0.0966 C.3       1 <0>        -0.1154
      2 C2          0.2320    0.3535   -0.1552 C.ar      1 <0>        -0.0494
      3 C3          0.2374   -0.2975   -1.3733 C.ar      1 <0>        -0.1170
      4 C4          0.0529   -1.6668   -1.4279 C.ar      1 <0>        -0.0843
      5 C5         -0.1376   -2.3888   -0.2640 C.ar      1 <0>        -0.1169
      6 C6         -0.1441   -1.7437    0.9572 C.ar      1 <0>        -0.0493
      7 C7          0.0466   -0.3694    1.0159 C.ar      1 <0>         0.1062
      8 N1          0.0458    0.2869    2.2529 N.am      1 <0>        -0.4581
      9 C8          1.2077    0.4423    2.9199 C.2       1 <0>         0.5837
     10 O1          2.2504    0.0192    2.4575 O.2       1 <0>        -0.4684
     11 C9          1.1882    1.1328    4.2153 C.ar      1 <0>        -0.3093
     12 C10         2.3447    1.3349    4.9680 C.ar      1 <0>         0.2949
     13 N2          2.2398    1.9671    6.1250 N.ar      1 <0>        -0.5762
     14 C11         1.0649    2.4016    6.5657 C.ar      1 <0>         0.6033
     15 N3         -0.0588    2.2303    5.8818 N.ar      1 <0>        -0.5679
     16 C12        -0.0417    1.6073    4.7137 C.ar      1 <0>         0.4949
     17 N4         -1.1920    1.4109    3.9729 N.pl3     1 <0>        -0.4383
     18 C13        -1.1461    0.7687    2.7648 C.2       1 <0>         0.5148
     19 N5         -2.3580    0.7132    2.2558 N.2       1 <0>        -0.4542
     20 C14        -3.2403    1.3137    3.0934 C.ar      1 <0>         0.0841
     21 C15        -2.5132    1.7616    4.2083 C.ar      1 <0>         0.0453
     22 C16        -3.1633    2.4198    5.2406 C.ar      1 <0>        -0.0844
     23 C17        -4.5274    2.6186    5.1767 C.ar      1 <0>        -0.0994
     24 C18        -5.2533    2.1637    4.0862 C.ar      1 <0>        -0.1007
     25 C19        -4.6199    1.5297    3.0403 C.ar      1 <0>        -0.0629
     26 N6          1.0109    3.0553    7.7807 N.pl3     1 <0>        -0.6267
     27 C20         2.1918    3.3530    8.4676 C.ar      1 <0>         0.2440
     28 C21         3.3467    3.6671    7.7627 C.ar      1 <0>        -0.0966
     29 C22         4.5113    3.9611    8.4442 C.ar      1 <0>        -0.0517
     30 C23         4.5287    3.9425    9.8268 C.ar      1 <0>        -0.1063
     31 C24         3.3807    3.6297   10.5316 C.ar      1 <0>        -0.0594
     32 C25         2.2112    3.3408    9.8564 C.ar      1 <0>        -0.1283
     33 N7          5.7094    4.2401   10.5136 N.4       1 <0>        -0.3154
     34 C26         6.1000    3.0885   11.3378 C.3       1 <0>        -0.0320
     35 C27         7.3923    3.4142   12.0894 C.3       1 <0>        -0.0299
     36 N8          7.1755    4.5831   12.9524 N.4       1 <0>        -0.3958
     37 C28         6.7848    5.7346   12.1282 C.3       1 <0>        -0.0299
     38 C29         5.4926    5.4089   11.3766 C.3       1 <0>        -0.0317
     39 C30         8.4162    4.8958   13.6741 C.3       1 <0>        -0.0515
     40 C31        -0.3524   -2.5311    2.2252 C.3       1 <0>        -0.1155
     41 H1          1.4971    2.0659   -0.0081 H         1 <0>         0.0749
     42 H2          0.0425    2.3012   -1.0067 H         1 <0>         0.0799
     43 H3         -0.0945    2.2500    0.7673 H         1 <0>         0.0533
     44 H4          0.3856    0.2636   -2.2841 H         1 <0>         0.1349
     45 H5          0.0572   -2.1735   -2.3817 H         1 <0>         0.1350
     46 H6         -0.2818   -3.4581   -0.3099 H         1 <0>         0.1349
     47 H7          3.3029    0.9834    4.6148 H         1 <0>         0.2058
     48 H8         -2.6037    2.7758    6.0929 H         1 <0>         0.1328
     49 H9         -5.0331    3.1315    5.9815 H         1 <0>         0.1400
     50 H10        -6.3205    2.3246    4.0480 H         1 <0>         0.1431
     51 H11        -5.1908    1.1813    2.1923 H         1 <0>         0.1441
     52 H12         0.1537    3.3081    8.1578 H         1 <0>         0.4399
     53 H13         3.3340    3.6811    6.6828 H         1 <0>         0.1649
     54 H14         5.4096    4.2054    7.8967 H         1 <0>         0.1526
     55 H15         3.3978    3.6153   11.6114 H         1 <0>         0.1443
     56 H16         1.3138    3.1009   10.4075 H         1 <0>         0.1574
     57 H17         5.3084    2.8693   12.0543 H         1 <0>         0.1525
     58 H18         6.2609    2.2213   10.6974 H         1 <0>         0.1780
     59 H19         7.6821    2.5598   12.7010 H         1 <0>         0.1778
     60 H20         8.1839    3.6335   11.3729 H         1 <0>         0.1555
     61 H21         6.6240    6.6019   12.7686 H         1 <0>         0.1777
     62 H22         7.5765    5.9538   11.4118 H         1 <0>         0.1554
     63 H23         5.2028    6.2633   10.7651 H         1 <0>         0.1776
     64 H24         4.7010    5.1897   12.0931 H         1 <0>         0.1526
     65 H25         9.2078    5.1150   12.9576 H         1 <0>         0.1316
     66 H26         8.2553    5.7631   14.3145 H         1 <0>         0.1380
     67 H27         8.7060    4.0414   14.2856 H         1 <0>         0.1380
     68 H28         0.6124   -2.8612    2.6104 H         1 <0>         0.0749
     69 H29        -0.8438   -1.9018    2.9671 H         1 <0>         0.0535
     70 H30        -0.9763   -3.3998    2.0150 H         1 <0>         0.0799
     71 H31         6.4426    4.3801   13.6157 H         1 <0>         0.4359
     72 H32         6.4422    4.4430    9.8504 H         1 <0>         0.4352
@<TRIPOS>BOND
     1    1    2 1
     2    1   41 1
     3    1   42 1
     4    1   43 1
     5    2    7 ar
     6    2    3 ar
     7    3    4 ar
     8    3   44 1
     9    4    5 ar
    10    4   45 1
    11    5    6 ar
    12    5   46 1
    13    6    7 ar
    14    6   40 1
    15    7    8 1
    16    8   18 1
    17    8    9 am
    18    9   10 2
    19    9   11 1
    20   11   16 ar
    21   11   12 ar
    22   12   13 ar
    23   12   47 1
    24   13   14 ar
    25   14   15 ar
    26   14   26 1
    27   15   16 ar
    28   16   17 1
    29   17   21 1
    30   17   18 1
    31   18   19 2
    32   19   20 1
    33   20   25 ar
    34   20   21 ar
    35   21   22 ar
    36   22   23 ar
    37   22   48 1
    38   23   24 ar
    39   23   49 1
    40   24   25 ar
    41   24   50 1
    42   25   51 1
    43   26   27 1
    44   26   52 1
    45   27   32 ar
    46   27   28 ar
    47   28   29 ar
    48   28   53 1
    49   29   30 ar
    50   29   54 1
    51   30   31 ar
    52   30   33 1
    53   31   32 ar
    54   31   55 1
    55   32   56 1
    56   33   38 1
    57   33   34 1
    58   33   72 1
    59   34   35 1
    60   34   57 1
    61   34   58 1
    62   35   36 1
    63   35   59 1
    64   35   60 1
    65   36   37 1
    66   36   39 1
    67   36   71 1
    68   37   38 1
    69   37   61 1
    70   37   62 1
    71   38   63 1
    72   38   64 1
    73   39   65 1
    74   39   66 1
    75   39   67 1
    76   40   68 1
    77   40   69 1
    78   40   70 1
@<TRIPOS>MOLECULE
ZINC01209349
   47    50     0     0     0
SMALL
USER_CHARGES
methyl 2-[5-[(3-benzyl-4-oxo-2-thioxo-thiazolidin-5-ylidene)methyl]-2-furyl]benzoate
@<TRIPOS>ATOM
      1 C1          0.6182    5.6135   -4.0279 C.3       1 <0>         0.0414
      2 O1          1.6162    6.0615   -3.0731 O.3       1 <0>        -0.3563
      3 C2          1.9730    5.1916   -2.1074 C.2       1 <0>         0.4985
      4 O2          1.4639    4.0891   -2.0645 O.2       1 <0>        -0.4702
      5 C3          2.9804    5.5777   -1.1034 C.ar      1 <0>        -0.0996
      6 C4          3.5651    6.8442   -1.1452 C.ar      1 <0>        -0.0632
      7 C5          4.5112    7.1982   -0.2063 C.ar      1 <0>        -0.1178
      8 C6          4.8859    6.3058    0.7862 C.ar      1 <0>        -0.0830
      9 C7          4.3179    5.0509    0.8496 C.ar      1 <0>        -0.1002
     10 C8          3.3576    4.6713   -0.0904 C.ar      1 <0>         0.0290
     11 C9          2.7476    3.3324   -0.0283 C.2       1 <0>         0.0701
     12 C10         3.4313    2.1408    0.0750 C.2       1 <0>        -0.2039
     13 C11         2.4751    1.1231    0.1029 C.2       1 <0>        -0.1297
     14 C12         1.2369    1.7344    0.0151 C.2       1 <0>        -0.0391
     15 O3          1.4285    3.0668   -0.0684 O.3       1 <0>        -0.0687
     16 C13        -0.0126    1.0758    0.0080 C.2       1 <0>         0.1183
     17 C14        -1.1667    1.8022    0.0455 C.2       1 <0>        -0.2534
     18 C15        -1.3594    3.2628    0.0001 C.2       1 <0>         0.5268
     19 O4         -0.4169    4.0293   -0.0825 O.2       1 <0>        -0.4119
     20 N1         -2.6067    3.6993    0.0492 N.am      1 <0>        -0.5160
     21 C16        -3.6474    2.8472    0.1485 C.2       1 <0>         0.2860
     22 S1         -5.3177    3.2133    0.2330 S.2       1 <0>        -0.3477
     23 S2         -2.8605    1.2445    0.1710 S.3       1 <0>         0.0734
     24 C17        -2.8633    5.1409    0.0025 C.3       1 <0>         0.1302
     25 C18        -2.8668    5.6961    1.4035 C.ar      1 <0>        -0.1231
     26 C19        -4.0459    5.7492    2.1230 C.ar      1 <0>        -0.0926
     27 C20        -4.0483    6.2540    3.4099 C.ar      1 <0>        -0.1242
     28 C21        -2.8733    6.7152    3.9735 C.ar      1 <0>        -0.1052
     29 C22        -1.6952    6.6674    3.2519 C.ar      1 <0>        -0.1264
     30 C23        -1.6919    6.1577    1.9670 C.ar      1 <0>        -0.0923
     31 H1         -0.3035    5.3665   -3.5011 H         1 <0>         0.0603
     32 H2          0.4231    6.4074   -4.7489 H         1 <0>         0.1036
     33 H3          0.9859    4.7304   -4.5504 H         1 <0>         0.0630
     34 H4          3.2794    7.5456   -1.9152 H         1 <0>         0.1441
     35 H5          4.9639    8.1781   -0.2447 H         1 <0>         0.1381
     36 H6          5.6285    6.5954    1.5149 H         1 <0>         0.1391
     37 H7          4.6154    4.3620    1.6263 H         1 <0>         0.1404
     38 H8          4.5030    2.0170    0.1250 H         1 <0>         0.1573
     39 H9          2.6656    0.0628    0.1790 H         1 <0>         0.1618
     40 H10        -0.0543   -0.0026   -0.0317 H         1 <0>         0.1789
     41 H11        -2.0829    5.6301   -0.5803 H         1 <0>         0.1080
     42 H12        -3.8321    5.3225   -0.4628 H         1 <0>         0.1188
     43 H13        -4.9647    5.3927    1.6811 H         1 <0>         0.1393
     44 H14        -4.9687    6.2917    3.9735 H         1 <0>         0.1265
     45 H15        -2.8758    7.1131    4.9775 H         1 <0>         0.1242
     46 H16        -0.7773    7.0280    3.6921 H         1 <0>         0.1232
     47 H17        -0.7715    6.1204    1.4032 H         1 <0>         0.1241
@<TRIPOS>BOND
     1    1    2 1
     2    1   31 1
     3    1   32 1
     4    1   33 1
     5    2    3 1
     6    3    4 2
     7    3    5 1
     8    5   10 ar
     9    5    6 ar
    10    6    7 ar
    11    6   34 1
    12    7    8 ar
    13    7   35 1
    14    8    9 ar
    15    8   36 1
    16    9   10 ar
    17    9   37 1
    18   10   11 1
    19   11   15 1
    20   11   12 2
    21   12   13 1
    22   12   38 1
    23   13   14 2
    24   13   39 1
    25   14   15 1
    26   14   16 1
    27   16   17 2
    28   16   40 1
    29   17   23 1
    30   17   18 1
    31   18   19 2
    32   18   20 am
    33   20   21 1
    34   20   24 1
    35   21   22 2
    36   21   23 1
    37   24   25 1
    38   24   41 1
    39   24   42 1
    40   25   30 ar
    41   25   26 ar
    42   26   27 ar
    43   26   43 1
    44   27   28 ar
    45   27   44 1
    46   28   29 ar
    47   28   45 1
    48   29   30 ar
    49   29   46 1
    50   30   47 1
@<TRIPOS>MOLECULE
ZINC00117601
   35    36     0     0     0
SMALL
USER_CHARGES
[2-methoxy-4-(2-nitrovinyl)phenyl] benzoate
@<TRIPOS>ATOM
      1 C1         -7.2483   -0.1707   -0.0535 C.3       1 <0>         0.0216
      2 O1         -7.3279    1.2556   -0.0169 O.3       1 <0>        -0.3048
      3 C2         -6.1528    1.9390    0.0096 C.ar      1 <0>         0.1291
      4 C3         -4.9526    1.2519   -0.0059 C.ar      1 <0>        -0.1593
      5 C4         -3.7484    1.9564    0.0258 C.ar      1 <0>        -0.0452
      6 C5         -3.7600    3.3516    0.0626 C.ar      1 <0>        -0.1148
      7 C6         -4.9600    4.0315    0.0725 C.ar      1 <0>        -0.0778
      8 C7         -6.1574    3.3315    0.0459 C.ar      1 <0>         0.0806
      9 O2         -7.3377    4.0059    0.0558 O.3       1 <0>        -0.2790
     10 C8         -7.9682    4.1178    1.2409 C.2       1 <0>         0.5112
     11 O3         -7.4330    3.7143    2.2542 O.2       1 <0>        -0.4856
     12 C9         -9.3102    4.7313    1.3085 C.ar      1 <0>        -0.1263
     13 C10        -9.9258    5.2014    0.1467 C.ar      1 <0>        -0.0603
     14 C11       -11.1814    5.7684    0.2163 C.ar      1 <0>        -0.1322
     15 C12       -11.8259    5.8822    1.4354 C.ar      1 <0>        -0.0797
     16 C13       -11.2195    5.4232    2.5913 C.ar      1 <0>        -0.1305
     17 C14        -9.9666    4.8488    2.5354 C.ar      1 <0>        -0.0526
     18 C15        -2.4634    1.2267    0.0141 C.2       1 <0>         0.0145
     19 C16        -1.3198    1.8975    0.0386 C.2       1 <0>        -0.1024
     20 N1         -0.0325    1.1666    0.0270 N.pl3     1 <0>         0.0192
     21 O4         -0.0238   -0.0509   -0.0052 O.2       1 <0>        -0.1737
     22 O5          1.0179    1.7829    0.0444 O.3       1 <0>        -0.1528
     23 H1         -6.7215   -0.5281    0.8313 H         1 <0>         0.0612
     24 H2         -8.2540   -0.5905   -0.0719 H         1 <0>         0.1084
     25 H3         -6.7084   -0.4816   -0.9480 H         1 <0>         0.0623
     26 H4         -4.9474    0.1725   -0.0389 H         1 <0>         0.1489
     27 H5         -2.8292    3.8989    0.0830 H         1 <0>         0.1423
     28 H6         -4.9674    5.1111    0.1006 H         1 <0>         0.1500
     29 H7         -9.4217    5.1175   -0.8048 H         1 <0>         0.1392
     30 H8        -11.6604    6.1287   -0.6821 H         1 <0>         0.1345
     31 H9        -12.8070    6.3310    1.4849 H         1 <0>         0.1323
     32 H10       -11.7285    5.5144    3.5395 H         1 <0>         0.1356
     33 H11        -9.4942    4.4913    3.4384 H         1 <0>         0.1384
     34 H12        -2.4556    0.1472   -0.0144 H         1 <0>         0.1580
     35 H13        -1.3276    2.9771    0.0671 H         1 <0>         0.1894
@<TRIPOS>BOND
     1    1    2 1
     2    1   23 1
     3    1   24 1
     4    1   25 1
     5    2    3 1
     6    3    8 ar
     7    3    4 ar
     8    4    5 ar
     9    4   26 1
    10    5    6 ar
    11    5   18 1
    12    6    7 ar
    13    6   27 1
    14    7    8 ar
    15    7   28 1
    16    8    9 1
    17    9   10 1
    18   10   11 2
    19   10   12 1
    20   12   17 ar
    21   12   13 ar
    22   13   14 ar
    23   13   29 1
    24   14   15 ar
    25   14   30 1
    26   15   16 ar
    27   15   31 1
    28   16   17 ar
    29   16   32 1
    30   17   33 1
    31   18   19 2
    32   18   34 1
    33   19   20 1
    34   19   35 1
    35   20   21 2
    36   20   22 1
@<TRIPOS>MOLECULE
ZINC02007259
   40    41     0     0     0
SMALL
USER_CHARGES
2-(2-aminoethylamino)-4-[3-(trifluoromethyl)phenyl]amino-pyrimidine-5-carboxamide
@<TRIPOS>ATOM
      1 C1          1.0868    1.7836   -0.4787 C.ar      1 <0>        -0.1040
      2 C2         -0.0459    1.0943   -0.0852 C.ar      1 <0>        -0.0874
      3 C3         -1.1849    1.7847    0.2860 C.ar      1 <0>        -0.1578
      4 C4         -1.1913    3.1659    0.2758 C.ar      1 <0>        -0.0941
      5 C5         -0.0556    3.8611   -0.1188 C.ar      1 <0>         0.1419
      6 C6          1.0853    3.1643   -0.4966 C.ar      1 <0>        -0.1047
      7 N1         -0.0604    5.2591   -0.1353 N.pl3     1 <0>        -0.6166
      8 C7          1.1173    5.9553    0.0452 C.ar      1 <0>         0.5219
      9 C8          1.1027    7.3533    0.2436 C.ar      1 <0>        -0.3475
     10 C9          2.3261    8.0077    0.4218 C.ar      1 <0>         0.2639
     11 N2          3.4413    7.3011    0.3983 N.ar      1 <0>        -0.6034
     12 C10         3.4174    5.9874    0.2093 C.ar      1 <0>         0.6166
     13 N3          2.2843    5.3219    0.0409 N.ar      1 <0>        -0.6113
     14 N4          4.6092    5.2929    0.1928 N.pl3     1 <0>        -0.6957
     15 C11         5.8750    6.0055    0.3823 C.3       1 <0>         0.1112
     16 C12         7.0351    5.0098    0.3207 C.3       1 <0>        -0.0182
     17 C13        -0.1648    8.1014    0.2619 C.2       1 <0>         0.5871
     18 O1         -1.2239    7.5033    0.2690 O.2       1 <0>        -0.5480
     19 N5         -0.1519    9.4490    0.2709 N.am      1 <0>        -0.8429
     20 C14        -2.4187    1.0293    0.7081 C.3       1 <0>         0.5085
     21 F1         -2.1689   -0.3456    0.6430 F         1 <0>        -0.1741
     22 F2         -2.7546    1.3807    2.0200 F         1 <0>        -0.1745
     23 F3         -3.4782    1.3518   -0.1467 F         1 <0>        -0.1735
     24 H1          1.9733    1.2413   -0.7726 H         1 <0>         0.1373
     25 H2         -0.0420    0.0144   -0.0720 H         1 <0>         0.1414
     26 H3         -2.0800    3.7046    0.5698 H         1 <0>         0.1396
     27 H4          1.9702    3.7020   -0.8036 H         1 <0>         0.1687
     28 H5         -0.8916    5.7396   -0.2737 H         1 <0>         0.4408
     29 H6          2.3581    9.0760    0.5768 H         1 <0>         0.1772
     30 H7          4.6090    4.3326    0.0558 H         1 <0>         0.4224
     31 H8          5.9937    6.7507   -0.4043 H         1 <0>         0.0924
     32 H9          5.8718    6.4999    1.3537 H         1 <0>         0.0925
     33 H10         6.9164    4.2646    1.1072 H         1 <0>         0.1430
     34 H11         7.0383    4.5154   -0.6507 H         1 <0>         0.1403
     35 H12         8.3010    6.2439    1.3756 H         1 <0>         0.4414
     36 H13         9.0866    5.0881    0.4741 H         1 <0>         0.4472
     37 H14         0.6927    9.9260    0.2652 H         1 <0>         0.4013
     38 H15        -0.9872    9.9420    0.2829 H         1 <0>         0.4135
     39 N6          8.3038    5.7397    0.4905 N.4       1 <0>        -0.6400
     40 H16         8.4117    6.4123   -0.2778 H         1 <0>         0.4437
@<TRIPOS>BOND
     1    1    6 ar
     2    1    2 ar
     3    1   24 1
     4    2    3 ar
     5    2   25 1
     6    3    4 ar
     7    3   20 1
     8    4    5 ar
     9    4   26 1
    10    5    6 ar
    11    5    7 1
    12    6   27 1
    13    7    8 1
    14    7   28 1
    15    8   13 ar
    16    8    9 ar
    17    9   10 ar
    18    9   17 1
    19   10   11 ar
    20   10   29 1
    21   11   12 ar
    22   12   13 ar
    23   12   14 1
    24   14   15 1
    25   14   30 1
    26   15   16 1
    27   15   31 1
    28   15   32 1
    29   16   33 1
    30   16   34 1
    31   16   39 1
    32   17   18 2
    33   17   19 am
    34   19   37 1
    35   19   38 1
    36   20   21 1
    37   20   22 1
    38   20   23 1
    39   35   39 1
    40   36   39 1
    41   39   40 1
@<TRIPOS>MOLECULE
ZINC06745792
   57    60     0     0     0
SMALL
USER_CHARGES

@<TRIPOS>ATOM
      1 C1          0.2499   -2.0794    2.4711 C.3       1 <0>        -0.1715
      2 C2          0.1654   -0.5539    2.3903 C.3       1 <0>         0.1038
      3 C3          0.9035    0.0525    3.5566 C.2       1 <0>         0.5072
      4 O1          0.3142    0.2973    4.5880 O.2       1 <0>        -0.4926
      5 N1          2.2222    0.3220    3.4505 N.am      1 <0>        -0.6440
      6 C4          2.8751    0.0632    2.2418 C.ar      1 <0>         0.3402
      7 C5          2.1134   -0.1507    1.0937 C.ar      1 <0>         0.0068
      8 C6          2.7513   -0.4066   -0.1099 C.ar      1 <0>        -0.0339
      9 C7          4.1377   -0.4414   -0.1262 C.ar      1 <0>        -0.1972
     10 C8          4.8362   -0.2206    1.0537 C.ar      1 <0>         0.3807
     11 N2          4.1963    0.0222    2.1882 N.ar      1 <0>        -0.4682
     12 N3          6.2296   -0.2547    1.0442 N.pl3     1 <0>        -0.6251
     13 C9          6.9396    0.0715    2.1914 C.ar      1 <0>         0.4405
     14 C10         8.3356    0.1463    2.1646 C.ar      1 <0>        -0.1005
     15 C11         9.0001    0.4747    3.3315 C.ar      1 <0>         0.1894
     16 N4          8.2995    0.7071    4.4326 N.ar      1 <0>        -0.5557
     17 C12         6.9777    0.6288    4.4280 C.ar      1 <0>         0.5806
     18 N5          6.3026    0.3227    3.3301 N.ar      1 <0>        -0.5273
     19 N6          6.2822    0.8792    5.6006 N.pl3     1 <0>        -0.6290
     20 C13         6.9671    1.3158    6.7410 C.ar      1 <0>         0.2399
     21 C14         8.0840    2.1300    6.6104 C.ar      1 <0>        -0.2287
     22 C15         8.7623    2.5630    7.7390 C.ar      1 <0>         0.1699
     23 C16         8.3239    2.1820    9.0015 C.ar      1 <0>         0.0111
     24 C17         7.2058    1.3670    9.1315 C.ar      1 <0>         0.1716
     25 C18         6.5255    0.9391    8.0022 C.ar      1 <0>        -0.2632
     26 O2          6.7764    0.9933   10.3666 O.3       1 <0>        -0.2988
     27 C19         5.6207    0.1549   10.4254 C.3       1 <0>         0.0239
     28 O3          8.9900    2.6066   10.1108 O.3       1 <0>        -0.3106
     29 C20         8.5624    3.8402   10.6918 C.3       1 <0>         0.0344
     30 O4          9.8566    3.3601    7.6108 O.3       1 <0>        -0.2988
     31 C21        10.2509    3.7120    6.2831 C.3       1 <0>         0.0256
     32 F1          9.0191   -0.0971    1.0249 F         1 <0>        -0.1261
     33 O5          0.7564   -0.1080    1.1664 O.3       1 <0>        -0.2895
     34 C22        -1.3015   -0.1215    2.4353 C.3       1 <0>        -0.1312
     35 H1          1.2950   -2.3876    2.4387 H         1 <0>         0.0633
     36 H2         -0.2003   -2.4194    3.4037 H         1 <0>         0.0844
     37 H3         -0.2846   -2.5180    1.6285 H         1 <0>         0.0895
     38 H4          2.7103    0.6908    4.2032 H         1 <0>         0.4188
     39 H5          2.1829   -0.5743   -1.0128 H         1 <0>         0.1580
     40 H6          4.6682   -0.6384   -1.0461 H         1 <0>         0.1505
     41 H7          6.7031   -0.5063    0.2359 H         1 <0>         0.4381
     42 H8         10.0780    0.5408    3.3459 H         1 <0>         0.1845
     43 H9          5.3211    0.7520    5.6311 H         1 <0>         0.4256
     44 H10         8.4247    2.4257    5.6291 H         1 <0>         0.1507
     45 H11         5.6541    0.3092    8.1032 H         1 <0>         0.1375
     46 H12         4.7763    0.6672    9.9643 H         1 <0>         0.0572
     47 H13         5.8181   -0.7741    9.8905 H         1 <0>         0.0580
     48 H14         5.3861   -0.0680   11.4663 H         1 <0>         0.1040
     49 H15         8.6689    4.6421    9.9612 H         1 <0>         0.0434
     50 H16         7.5176    3.7578   10.9912 H         1 <0>         0.0432
     51 H17         9.1745    4.0615   11.5661 H         1 <0>         0.0917
     52 H18        11.1348    4.3486    6.3233 H         1 <0>         0.1024
     53 H19        10.4801    2.8072    5.7202 H         1 <0>         0.0623
     54 H20         9.4386    4.2488    5.7930 H         1 <0>         0.0534
     55 H21        -1.7521   -0.4616    3.3677 H         1 <0>         0.0934
     56 H22        -1.3619    0.9653    2.3778 H         1 <0>         0.0727
     57 H23        -1.8356   -0.5602    1.5925 H         1 <0>         0.0837
@<TRIPOS>BOND
     1    1    2 1
     2    1   35 1
     3    1   36 1
     4    1   37 1
     5    2   33 1
     6    2    3 1
     7    2   34 1
     8    3    4 2
     9    3    5 am
    10    5    6 1
    11    5   38 1
    12    6   11 ar
    13    6    7 ar
    14    7    8 ar
    15    7   33 1
    16    8    9 ar
    17    8   39 1
    18    9   10 ar
    19    9   40 1
    20   10   11 ar
    21   10   12 1
    22   12   13 1
    23   12   41 1
    24   13   18 ar
    25   13   14 ar
    26   14   15 ar
    27   14   32 1
    28   15   16 ar
    29   15   42 1
    30   16   17 ar
    31   17   18 ar
    32   17   19 1
    33   19   20 1
    34   19   43 1
    35   20   25 ar
    36   20   21 ar
    37   21   22 ar
    38   21   44 1
    39   22   23 ar
    40   22   30 1
    41   23   24 ar
    42   23   28 1
    43   24   25 ar
    44   24   26 1
    45   25   45 1
    46   26   27 1
    47   27   46 1
    48   27   47 1
    49   27   48 1
    50   28   29 1
    51   29   49 1
    52   29   50 1
    53   29   51 1
    54   30   31 1
    55   31   52 1
    56   31   53 1
    57   31   54 1
    58   34   55 1
    59   34   56 1
    60   34   57 1
@<TRIPOS>MOLECULE
ZINC03817467
   36    38     0     0     0
SMALL
USER_CHARGES
3-[5-fluoro-2-(3-hydroxyphenyl)amino-pyrimidin-4-yl]aminophenol
@<TRIPOS>ATOM
      1 C1         -0.9442    1.8016   -0.9313 C.ar      1 <0>        -0.0813
      2 C2         -0.9900    3.0877   -0.4287 C.ar      1 <0>        -0.1545
      3 C3          0.0011    4.0014   -0.7649 C.ar      1 <0>         0.1704
      4 C4          1.0376    3.6201   -1.6061 C.ar      1 <0>        -0.1400
      5 C5          1.0832    2.3273   -2.1030 C.ar      1 <0>         0.1243
      6 C6          0.0868    1.4205   -1.7686 C.ar      1 <0>        -0.1602
      7 O1          2.0997    1.9491   -2.9219 O.3       1 <0>        -0.4967
      8 N1         -0.0456    5.3028   -0.2573 N.pl3     1 <0>        -0.6441
      9 C7          1.1306    5.9634    0.0674 C.ar      1 <0>         0.4505
     10 C8          1.1027    7.2964    0.4891 C.ar      1 <0>        -0.1112
     11 C9          2.2995    7.9134    0.8018 C.ar      1 <0>         0.1982
     12 N2          3.4293    7.2285    0.6935 N.ar      1 <0>        -0.5608
     13 C10         3.4250    5.9669    0.2914 C.ar      1 <0>         0.5920
     14 N3          2.2999    5.3372   -0.0126 N.ar      1 <0>        -0.5823
     15 N4          4.6284    5.2856    0.1919 N.pl3     1 <0>        -0.6338
     16 C11         5.8342    5.9634    0.3940 C.ar      1 <0>         0.1794
     17 C12         5.9967    7.2546   -0.0933 C.ar      1 <0>        -0.1163
     18 C13         7.1861    7.9263    0.1115 C.ar      1 <0>        -0.0838
     19 C14         8.2212    7.3125    0.7913 C.ar      1 <0>        -0.1573
     20 C15         8.0667    6.0211    1.2753 C.ar      1 <0>         0.1248
     21 C16         6.8726    5.3457    1.0768 C.ar      1 <0>        -0.1708
     22 O2          9.0856    5.4189    1.9431 O.3       1 <0>        -0.4976
     23 F1         -0.0667    7.9657    0.5881 F         1 <0>        -0.1271
     24 H1         -1.7155    1.0926   -0.6689 H         1 <0>         0.1328
     25 H2         -1.7969    3.3830    0.2256 H         1 <0>         0.1287
     26 H3          1.8094    4.3283   -1.8691 H         1 <0>         0.1389
     27 H4          0.1198    0.4144   -2.1599 H         1 <0>         0.1303
     28 H5          1.9239    2.0970   -3.8612 H         1 <0>         0.3917
     29 H6         -0.9002    5.7442   -0.1321 H         1 <0>         0.4280
     30 H7          2.3138    8.9419    1.1311 H         1 <0>         0.1845
     31 H8          4.6337    4.3386   -0.0180 H         1 <0>         0.4265
     32 H9          5.1910    7.7348   -0.6287 H         1 <0>         0.1311
     33 H10         7.3090    8.9314   -0.2641 H         1 <0>         0.1315
     34 H11         9.1518    7.8385    0.9457 H         1 <0>         0.1302
     35 H12         6.7505    4.3408    1.4531 H         1 <0>         0.1313
     36 H13         9.6896    4.9223    1.3741 H         1 <0>         0.3923
@<TRIPOS>BOND
     1    1    6 ar
     2    1    2 ar
     3    1   24 1
     4    2    3 ar
     5    2   25 1
     6    3    4 ar
     7    3    8 1
     8    4    5 ar
     9    4   26 1
    10    5    6 ar
    11    5    7 1
    12    6   27 1
    13    7   28 1
    14    8    9 1
    15    8   29 1
    16    9   14 ar
    17    9   10 ar
    18   10   11 ar
    19   10   23 1
    20   11   12 ar
    21   11   30 1
    22   12   13 ar
    23   13   14 ar
    24   13   15 1
    25   15   16 1
    26   15   31 1
    27   16   21 ar
    28   16   17 ar
    29   17   18 ar
    30   17   32 1
    31   18   19 ar
    32   18   33 1
    33   19   20 ar
    34   19   34 1
    35   20   21 ar
    36   20   22 1
    37   21   35 1
    38   22   36 1
@<TRIPOS>MOLECULE
ZINC03820040
   62    66     0     0     0
SMALL
USER_CHARGES
N-[4-[4-(4-methylpiperazin-1-yl)-6-[(5-methyl-2H-pyrazol-3-yl)amino]pyrimidin-2-yl]sulfanylphenyl]cyclopropanecarboxamide
@<TRIPOS>ATOM
      1 C1          1.8035   -7.6837    0.5070 C.3       1 <0>        -0.0779
      2 C2          2.3685   -6.3674    0.0389 C.2       1 <0>         0.0949
      3 C3          1.9325   -5.1020    0.4407 C.2       1 <0>        -0.2905
      4 C4          2.6904   -4.1743   -0.2066 C.2       1 <0>         0.3252
      5 N1          3.5799   -4.8447   -0.9836 N.pl3     1 <0>        -0.4853
      6 H1          4.2729   -4.4328   -1.5753 H         1 <0>         0.4473
      7 N2          3.3537   -6.2159   -0.8085 N.2       1 <0>        -0.2711
      8 N3          2.5778   -2.7905   -0.0888 N.pl3     1 <0>        -0.6296
      9 C5          1.3376   -2.2123    0.1391 C.ar      1 <0>         0.4706
     10 C6          0.1755   -2.9717    0.0343 C.ar      1 <0>        -0.2983
     11 C7         -1.0466   -2.3490    0.2714 C.ar      1 <0>         0.3791
     12 N4         -1.0643   -1.0564    0.5886 N.ar      1 <0>        -0.5664
     13 C8          0.0620   -0.3646    0.6795 C.ar      1 <0>         0.3511
     14 N5          1.2425   -0.9231    0.4557 N.ar      1 <0>        -0.5606
     15 S1         -0.0125    1.3444    1.1018 S.3       1 <0>         0.1303
     16 C9          1.7078    1.7032    1.2298 C.ar      1 <0>        -0.1638
     17 C10         2.3806    1.4637    2.4214 C.ar      1 <0>        -0.0284
     18 C11         3.7293    1.7409    2.5200 C.ar      1 <0>        -0.1315
     19 C12         4.4114    2.2681    1.4313 C.ar      1 <0>         0.1902
     20 C13         3.7379    2.5125    0.2417 C.ar      1 <0>        -0.1573
     21 C14         2.3903    2.2311    0.1410 C.ar      1 <0>        -0.0288
     22 N6          5.7793    2.5539    1.5333 N.am      1 <0>        -0.6744
     23 C15         6.5739    1.7808    2.2997 C.2       1 <0>         0.5466
     24 O1          6.1269    0.7811    2.8213 O.2       1 <0>        -0.5140
     25 C16         8.0178    2.1584    2.5086 C.3       1 <0>        -0.2022
     26 C17         9.0818    1.2604    1.8742 C.3       1 <0>        -0.1494
     27 C18         8.8679    1.2402    3.3890 C.3       1 <0>        -0.1425
     28 N7         -2.2296   -3.0657    0.1789 N.pl3     1 <0>        -0.4710
     29 C19        -2.3617   -3.6957   -1.1422 C.3       1 <0>         0.0277
     30 C20        -3.6379   -4.5399   -1.1765 C.3       1 <0>         0.0040
     31 C21        -4.6643   -3.0537    0.4349 C.3       1 <0>        -0.0004
     32 C22        -3.3881   -2.2095    0.4692 C.3       1 <0>         0.0347
     33 C23        -6.0501   -4.4431   -0.9842 C.3       1 <0>        -0.0407
     34 H2          2.3381   -8.0122    1.3982 H         1 <0>         0.0831
     35 H3          0.7460   -7.5623    0.7417 H         1 <0>         0.0784
     36 H4          1.9177   -8.4287   -0.2805 H         1 <0>         0.0774
     37 H5          1.1347   -4.8964    1.1389 H         1 <0>         0.1550
     38 H6          3.3667   -2.2314   -0.1662 H         1 <0>         0.4241
     39 H7          0.2211   -4.0192   -0.2246 H         1 <0>         0.1631
     40 H8          1.8494    1.0573    3.2693 H         1 <0>         0.1319
     41 H9          4.2533    1.5509    3.4451 H         1 <0>         0.1405
     42 H10         4.2686    2.9225   -0.6049 H         1 <0>         0.1339
     43 H11         1.8666    2.4209   -0.7843 H         1 <0>         0.1341
     44 H12         6.1543    3.3081    1.0523 H         1 <0>         0.4168
     45 H13         8.2224    3.2282    2.5520 H         1 <0>         0.1306
     46 H14         8.7374    0.3965    1.3057 H         1 <0>         0.0995
     47 H15         9.9866    1.7393    1.5000 H         1 <0>         0.1100
     48 H16         9.6320    1.7059    4.0114 H         1 <0>         0.1092
     49 H17         8.3827    0.3633    3.8175 H         1 <0>         0.1093
     50 H18        -2.4158   -2.9234   -1.9095 H         1 <0>         0.0737
     51 H19        -1.4982   -4.3342   -1.3286 H         1 <0>         0.1318
     52 H20        -3.5722   -5.3290   -0.4274 H         1 <0>         0.1439
     53 H21        -3.7533   -4.9852   -2.1646 H         1 <0>         0.1412
     54 H22        -4.6102   -3.8259    1.2022 H         1 <0>         0.1407
     55 H23        -5.5278   -2.4152    0.6217 H         1 <0>         0.1407
     56 H24        -3.2729   -1.7645    1.4575 H         1 <0>         0.1357
     57 H25        -3.4537   -1.4201   -0.2796 H         1 <0>         0.0793
     58 H26        -6.8948   -3.7714   -0.8313 H         1 <0>         0.1238
     59 H27        -6.1225   -4.8989   -1.9717 H         1 <0>         0.1230
     60 H28        -6.0632   -5.2226   -0.2224 H         1 <0>         0.1251
     61 N8         -4.7966   -3.6630   -0.9051 N.4       1 <0>        -0.4014
     62 H29        -4.8229   -2.9169   -1.6099 H         1 <0>         0.4281
@<TRIPOS>BOND
     1    1    2 1
     2    1   34 1
     3    1   35 1
     4    1   36 1
     5    2    7 2
     6    2    3 1
     7    3    4 2
     8    3   37 1
     9    4    5 1
    10    4    8 1
    11    5    6 1
    12    5    7 1
    13    8    9 1
    14    8   38 1
    15    9   14 ar
    16    9   10 ar
    17   10   11 ar
    18   10   39 1
    19   11   12 ar
    20   11   28 1
    21   12   13 ar
    22   13   14 ar
    23   13   15 1
    24   15   16 1
    25   16   21 ar
    26   16   17 ar
    27   17   18 ar
    28   17   40 1
    29   18   19 ar
    30   18   41 1
    31   19   20 ar
    32   19   22 1
    33   20   21 ar
    34   20   42 1
    35   21   43 1
    36   22   23 am
    37   22   44 1
    38   23   24 2
    39   23   25 1
    40   25   27 1
    41   25   26 1
    42   25   45 1
    43   26   27 1
    44   26   46 1
    45   26   47 1
    46   27   48 1
    47   27   49 1
    48   28   32 1
    49   28   29 1
    50   29   30 1
    51   29   50 1
    52   29   51 1
    53   30   52 1
    54   30   53 1
    55   30   61 1
    56   31   32 1
    57   31   54 1
    58   31   55 1
    59   31   61 1
    60   32   56 1
    61   32   57 1
    62   33   58 1
    63   33   59 1
    64   33   60 1
    65   33   61 1
    66   61   62 1
@<TRIPOS>MOLECULE
ZINC23247639
   69    72     0     0     0
SMALL
USER_CHARGES
1-[4-[(4-ethylpiperazin-1-yl)methyl]-3-(trifluoromethyl)phenyl]-3-[4-(6-methylaminopyrimidin-4-yl)oxyphenyl]urea
@<TRIPOS>ATOM
      1 C1          8.9417    3.3719    8.2172 C.3       1 <0>        -0.1901
      2 C2         10.1498    2.9102    7.3997 C.3       1 <0>        -0.0070
      3 N1          9.9972    3.3533    6.0075 N.4       1 <0>        -0.4011
      4 C3         11.2367    3.1387    5.2477 C.3       1 <0>         0.0016
      5 C4         11.0629    3.6845    3.8284 C.3       1 <0>         0.0271
      6 N2          9.9288    3.0094    3.1822 N.3       1 <0>        -0.5300
      7 C5          8.6893    3.2240    3.9420 C.3       1 <0>         0.0232
      8 C6          8.8631    2.6781    5.3612 C.3       1 <0>        -0.0016
      9 C7          9.7762    3.4524    1.7899 C.3       1 <0>         0.0786
     10 C8          8.7879    2.5601    1.0842 C.ar      1 <0>        -0.0666
     11 C9          7.5022    3.0092    0.8434 C.ar      1 <0>        -0.0932
     12 C10         6.5958    2.1959    0.1923 C.ar      1 <0>        -0.0888
     13 C11         6.9731    0.9214   -0.2106 C.ar      1 <0>         0.1880
     14 C12         8.2646    0.4735    0.0326 C.ar      1 <0>        -0.1043
     15 C13         9.1683    1.2940    0.6793 C.ar      1 <0>        -0.1369
     16 C14        10.5702    0.8086    0.9441 C.3       1 <0>         0.5111
     17 F1         10.7250   -0.4786    0.4184 F         1 <0>        -0.1776
     18 F2         11.4860    1.6739    0.3362 F         1 <0>        -0.1774
     19 F3         10.8008    0.7797    2.3237 F         1 <0>        -0.1628
     20 N3          6.0552    0.0926   -0.8655 N.am      1 <0>        -0.6979
     21 C15         4.7513    0.1311   -0.5266 C.2       1 <0>         0.7117
     22 O1          4.3858    0.8194    0.4067 O.2       1 <0>        -0.5623
     23 N4          3.8526   -0.5934   -1.2222 N.am      1 <0>        -0.6900
     24 C16         2.4863   -0.4790   -0.9335 C.ar      1 <0>         0.1635
     25 C17         1.5516   -0.5518   -1.9576 C.ar      1 <0>        -0.1265
     26 C18         0.2052   -0.4394   -1.6724 C.ar      1 <0>        -0.0923
     27 C19        -0.2137   -0.2543   -0.3628 C.ar      1 <0>         0.0841
     28 C20         0.7198   -0.1815    0.6609 C.ar      1 <0>        -0.0957
     29 C21         2.0665   -0.2932    0.3769 C.ar      1 <0>        -0.1058
     30 O2         -1.5393   -0.1385   -0.0833 O.3       1 <0>        -0.2424
     31 C22        -2.3129   -1.2454   -0.1983 C.ar      1 <0>         0.3836
     32 C23        -3.6894   -1.1637   -0.0277 C.ar      1 <0>        -0.3134
     33 C24        -4.4409   -2.3284   -0.1601 C.ar      1 <0>         0.4631
     34 N5         -3.8165   -3.4721   -0.4341 N.ar      1 <0>        -0.5936
     35 C25        -2.5082   -3.5081   -0.5840 C.ar      1 <0>         0.3760
     36 N6         -1.7644   -2.4263   -0.4707 N.ar      1 <0>        -0.6039
     37 N7         -5.8178   -2.2988   -0.0034 N.pl3     1 <0>        -0.7218
     38 C26        -6.4937   -1.0344    0.2979 C.3       1 <0>         0.0891
     39 H1          9.0560    3.0401    9.2597 H         1 <0>         0.1066
     40 H2          8.0243    2.9380    7.7928 H         1 <0>         0.0798
     41 H3          8.8763    4.4695    8.1868 H         1 <0>         0.0803
     42 H4         11.0672    3.3441    7.8241 H         1 <0>         0.1306
     43 H5         10.2153    1.8126    7.4301 H         1 <0>         0.1269
     44 H6         12.0665    3.6630    5.7442 H         1 <0>         0.1361
     45 H7         11.4577    2.0621    5.2031 H         1 <0>         0.1357
     46 H8         10.8699    4.7665    3.8728 H         1 <0>         0.0625
     47 H9         11.9796    3.4990    3.2494 H         1 <0>         0.1239
     48 H10         8.4684    4.3007    3.9867 H         1 <0>         0.0621
     49 H11         7.8594    2.6998    3.4455 H         1 <0>         0.1239
     50 H12         9.0569    1.5962    5.3178 H         1 <0>         0.1351
     51 H13         7.9470    2.8635    5.9412 H         1 <0>         0.1359
     52 H14         9.4106    4.4897    1.7732 H         1 <0>         0.0663
     53 H15        10.7489    3.3982    1.2791 H         1 <0>         0.1073
     54 H16         7.2082    3.9988    1.1607 H         1 <0>         0.1358
     55 H17         5.5933    2.5489    0.0003 H         1 <0>         0.1466
     56 H18         8.5625   -0.5152   -0.2838 H         1 <0>         0.1447
     57 H19         6.3979   -0.5903   -1.6569 H         1 <0>         0.4387
     58 H20         4.1917   -1.2745   -2.0166 H         1 <0>         0.4355
     59 H21         1.8775   -0.6959   -2.9771 H         1 <0>         0.1334
     60 H22        -0.5220   -0.4960   -2.4689 H         1 <0>         0.1303
     61 H23         0.3932   -0.0371    1.6801 H         1 <0>         0.1327
     62 H24         2.7931   -0.2369    1.1740 H         1 <0>         0.1442
     63 H25        -4.1646   -0.2205    0.1982 H         1 <0>         0.1466
     64 H26        -2.0315   -4.4515   -0.8058 H         1 <0>         0.2000
     65 H27        -6.4030   -3.2246   -0.1053 H         1 <0>         0.4376
     66 H28        -7.5762   -1.2091    0.3856 H         1 <0>         0.0864
     67 H29        -6.3028   -0.3146   -0.5117 H         1 <0>         0.0603
     68 H30        -6.1096   -0.6302    1.2461 H         1 <0>         0.0599
     69 H31         9.7882    4.4332    6.0188 H         1 <0>         0.4364
@<TRIPOS>BOND
     1    1    2 1
     2    1   39 1
     3    1   40 1
     4    1   41 1
     5    2    3 1
     6    2   42 1
     7    2   43 1
     8    3    8 1
     9    3    4 1
    10    3   69 1
    11    4    5 1
    12    4   44 1
    13    4   45 1
    14    5    6 1
    15    5   46 1
    16    5   47 1
    17    6    7 1
    18    6    9 1
    19    7    8 1
    20    7   48 1
    21    7   49 1
    22    8   50 1
    23    8   51 1
    24    9   10 1
    25    9   52 1
    26    9   53 1
    27   10   15 ar
    28   10   11 ar
    29   11   12 ar
    30   11   54 1
    31   12   13 ar
    32   12   55 1
    33   13   14 ar
    34   13   20 1
    35   14   15 ar
    36   14   56 1
    37   15   16 1
    38   16   17 1
    39   16   18 1
    40   16   19 1
    41   20   21 am
    42   20   57 1
    43   21   22 2
    44   21   23 am
    45   23   24 1
    46   23   58 1
    47   24   29 ar
    48   24   25 ar
    49   25   26 ar
    50   25   59 1
    51   26   27 ar
    52   26   60 1
    53   27   28 ar
    54   27   30 1
    55   28   29 ar
    56   28   61 1
    57   29   62 1
    58   30   31 1
    59   31   36 ar
    60   31   32 ar
    61   32   33 ar
    62   32   63 1
    63   33   34 ar
    64   33   37 1
    65   34   35 ar
    66   35   36 ar
    67   35   64 1
    68   37   38 1
    69   37   65 1
    70   38   66 1
    71   38   67 1
    72   38   68 1
@<TRIPOS>MOLECULE
ZINC23247639
   69    72     0     0     0
SMALL
USER_CHARGES
1-[4-[(4-ethylpiperazin-1-yl)methyl]-3-(trifluoromethyl)phenyl]-3-[4-(6-methylaminopyrimidin-4-yl)oxyphenyl]urea
@<TRIPOS>ATOM
      1 C1          8.9417    3.3719    8.2172 C.3       1 <0>        -0.1569
      2 C2         10.1498    2.9102    7.3997 C.3       1 <0>         0.0486
      3 N1          9.9972    3.3533    6.0075 N.3       1 <0>        -0.5379
      4 C3         11.2367    3.1387    5.2477 C.3       1 <0>         0.0250
      5 C4         11.0629    3.6845    3.8284 C.3       1 <0>         0.0004
      6 N2          9.9288    3.0094    3.1822 N.4       1 <0>        -0.4202
      7 C5          8.6893    3.2240    3.9420 C.3       1 <0>        -0.0009
      8 C6          8.8631    2.6781    5.3612 C.3       1 <0>         0.0222
      9 C7          9.7762    3.4524    1.7899 C.3       1 <0>         0.0266
     10 C8          8.7879    2.5601    1.0842 C.ar      1 <0>        -0.1272
     11 C9          7.5022    3.0092    0.8434 C.ar      1 <0>        -0.0630
     12 C10         6.5958    2.1959    0.1923 C.ar      1 <0>        -0.0846
     13 C11         6.9731    0.9214   -0.2106 C.ar      1 <0>         0.2154
     14 C12         8.2646    0.4735    0.0326 C.ar      1 <0>        -0.0955
     15 C13         9.1683    1.2940    0.6793 C.ar      1 <0>        -0.1507
     16 C14        10.5702    0.8086    0.9441 C.3       1 <0>         0.5109
     17 F1         10.7250   -0.4786    0.4184 F         1 <0>        -0.1491
     18 F2         11.4860    1.6739    0.3362 F         1 <0>        -0.1584
     19 F3         10.8008    0.7797    2.3237 F         1 <0>        -0.1724
     20 N3          6.0552    0.0926   -0.8655 N.am      1 <0>        -0.6988
     21 C15         4.7513    0.1311   -0.5266 C.2       1 <0>         0.7114
     22 O1          4.3858    0.8194    0.4067 O.2       1 <0>        -0.5584
     23 N4          3.8526   -0.5934   -1.2222 N.am      1 <0>        -0.6858
     24 C16         2.4863   -0.4790   -0.9335 C.ar      1 <0>         0.1577
     25 C17         1.5516   -0.5518   -1.9576 C.ar      1 <0>        -0.1240
     26 C18         0.2052   -0.4394   -1.6724 C.ar      1 <0>        -0.0926
     27 C19        -0.2137   -0.2543   -0.3628 C.ar      1 <0>         0.0883
     28 C20         0.7198   -0.1815    0.6609 C.ar      1 <0>        -0.0957
     29 C21         2.0665   -0.2932    0.3769 C.ar      1 <0>        -0.1046
     30 O2         -1.5393   -0.1385   -0.0833 O.3       1 <0>        -0.2426
     31 C22        -2.3129   -1.2454   -0.1983 C.ar      1 <0>         0.3832
     32 C23        -3.6894   -1.1637   -0.0277 C.ar      1 <0>        -0.3126
     33 C24        -4.4409   -2.3284   -0.1601 C.ar      1 <0>         0.4635
     34 N5         -3.8165   -3.4721   -0.4341 N.ar      1 <0>        -0.5931
     35 C25        -2.5082   -3.5081   -0.5840 C.ar      1 <0>         0.3762
     36 N6         -1.7644   -2.4263   -0.4707 N.ar      1 <0>        -0.6049
     37 N7         -5.8178   -2.2988   -0.0034 N.pl3     1 <0>        -0.7212
     38 C26        -6.4937   -1.0344    0.2979 C.3       1 <0>         0.0887
     39 H1          9.0560    3.0401    9.2597 H         1 <0>         0.0714
     40 H2          8.0243    2.9380    7.7928 H         1 <0>         0.0562
     41 H3          8.8763    4.4695    8.1868 H         1 <0>         0.0696
     42 H4         11.0672    3.3441    7.8241 H         1 <0>         0.0895
     43 H5         10.2153    1.8126    7.4301 H         1 <0>         0.0455
     44 H6         12.0665    3.6630    5.7442 H         1 <0>         0.1253
     45 H7         11.4577    2.0621    5.2031 H         1 <0>         0.0582
     46 H8         10.8699    4.7665    3.8728 H         1 <0>         0.1369
     47 H9         11.9796    3.4990    3.2494 H         1 <0>         0.1329
     48 H10         8.4684    4.3007    3.9867 H         1 <0>         0.1355
     49 H11         7.8594    2.6998    3.4455 H         1 <0>         0.1312
     50 H12         9.0569    1.5962    5.3178 H         1 <0>         0.0572
     51 H13         7.9470    2.8635    5.9412 H         1 <0>         0.1266
     52 H14         9.4106    4.4897    1.7732 H         1 <0>         0.1472
     53 H15        10.7489    3.3982    1.2791 H         1 <0>         0.1420
     54 H16         7.2082    3.9988    1.1607 H         1 <0>         0.1512
     55 H17         5.5933    2.5489    0.0003 H         1 <0>         0.1583
     56 H18         8.5625   -0.5152   -0.2838 H         1 <0>         0.1556
     57 H19         6.3979   -0.5903   -1.6569 H         1 <0>         0.4440
     58 H20         4.1917   -1.2745   -2.0166 H         1 <0>         0.4371
     59 H21         1.8775   -0.6959   -2.9771 H         1 <0>         0.1338
     60 H22        -0.5220   -0.4960   -2.4689 H         1 <0>         0.1313
     61 H23         0.3932   -0.0371    1.6801 H         1 <0>         0.1341
     62 H24         2.7931   -0.2369    1.1740 H         1 <0>         0.1440
     63 H25        -4.1646   -0.2205    0.1982 H         1 <0>         0.1470
     64 H26        -2.0315   -4.4515   -0.8058 H         1 <0>         0.2001
     65 H27        -6.4030   -3.2246   -0.1053 H         1 <0>         0.4380
     66 H28        -7.5762   -1.2091    0.3856 H         1 <0>         0.0868
     67 H29        -6.3028   -0.3146   -0.5117 H         1 <0>         0.0604
     68 H30        -6.1096   -0.6302    1.2461 H         1 <0>         0.0603
     69 H31        10.1379    1.9295    3.1711 H         1 <0>         0.4253
@<TRIPOS>BOND
     1    1    2 1
     2    1   39 1
     3    1   40 1
     4    1   41 1
     5    2    3 1
     6    2   42 1
     7    2   43 1
     8    3    8 1
     9    3    4 1
    10    4    5 1
    11    4   44 1
    12    4   45 1
    13    5    6 1
    14    5   46 1
    15    5   47 1
    16    6    7 1
    17    6    9 1
    18    6   69 1
    19    7    8 1
    20    7   48 1
    21    7   49 1
    22    8   50 1
    23    8   51 1
    24    9   10 1
    25    9   52 1
    26    9   53 1
    27   10   15 ar
    28   10   11 ar
    29   11   12 ar
    30   11   54 1
    31   12   13 ar
    32   12   55 1
    33   13   14 ar
    34   13   20 1
    35   14   15 ar
    36   14   56 1
    37   15   16 1
    38   16   17 1
    39   16   18 1
    40   16   19 1
    41   20   21 am
    42   20   57 1
    43   21   22 2
    44   21   23 am
    45   23   24 1
    46   23   58 1
    47   24   29 ar
    48   24   25 ar
    49   25   26 ar
    50   25   59 1
    51   26   27 ar
    52   26   60 1
    53   27   28 ar
    54   27   30 1
    55   28   29 ar
    56   28   61 1
    57   29   62 1
    58   30   31 1
    59   31   36 ar
    60   31   32 ar
    61   32   33 ar
    62   32   63 1
    63   33   34 ar
    64   33   37 1
    65   34   35 ar
    66   35   36 ar
    67   35   64 1
    68   37   38 1
    69   37   65 1
    70   38   66 1
    71   38   67 1
    72   38   68 1
@<TRIPOS>MOLECULE
ZINC23247639
   68    71     0     0     0
SMALL
USER_CHARGES
1-[4-[(4-ethylpiperazin-1-yl)methyl]-3-(trifluoromethyl)phenyl]-3-[4-(6-methylaminopyrimidin-4-yl)oxyphenyl]urea
@<TRIPOS>ATOM
      1 C1          8.9417    3.3719    8.2172 C.3       1 <0>        -0.1510
      2 C2         10.1498    2.9102    7.3997 C.3       1 <0>         0.0499
      3 N1          9.9972    3.3533    6.0075 N.3       1 <0>        -0.5402
      4 C3         11.2367    3.1387    5.2477 C.3       1 <0>         0.0569
      5 C4         11.0629    3.6845    3.8284 C.3       1 <0>         0.0590
      6 N2          9.9288    3.0094    3.1822 N.3       1 <0>        -0.5268
      7 C5          8.6893    3.2240    3.9420 C.3       1 <0>         0.0561
      8 C6          8.8631    2.6781    5.3612 C.3       1 <0>         0.0550
      9 C7          9.7762    3.4524    1.7899 C.3       1 <0>         0.0729
     10 C8          8.7879    2.5601    1.0842 C.ar      1 <0>        -0.0447
     11 C9          7.5022    3.0092    0.8434 C.ar      1 <0>        -0.0942
     12 C10         6.5958    2.1959    0.1923 C.ar      1 <0>        -0.0884
     13 C11         6.9731    0.9214   -0.2106 C.ar      1 <0>         0.1720
     14 C12         8.2646    0.4735    0.0326 C.ar      1 <0>        -0.1038
     15 C13         9.1683    1.2940    0.6793 C.ar      1 <0>        -0.1404
     16 C14        10.5702    0.8086    0.9441 C.3       1 <0>         0.5095
     17 F1         10.7250   -0.4786    0.4184 F         1 <0>        -0.1841
     18 F2         11.4860    1.6739    0.3362 F         1 <0>        -0.1795
     19 F3         10.8008    0.7797    2.3237 F         1 <0>        -0.1519
     20 N3          6.0552    0.0926   -0.8655 N.am      1 <0>        -0.6948
     21 C15         4.7513    0.1311   -0.5266 C.2       1 <0>         0.7096
     22 O1          4.3858    0.8194    0.4067 O.2       1 <0>        -0.5587
     23 N4          3.8526   -0.5934   -1.2222 N.am      1 <0>        -0.6930
     24 C16         2.4863   -0.4790   -0.9335 C.ar      1 <0>         0.1697
     25 C17         1.5516   -0.5518   -1.9576 C.ar      1 <0>        -0.1297
     26 C18         0.2052   -0.4394   -1.6724 C.ar      1 <0>        -0.0930
     27 C19        -0.2137   -0.2543   -0.3628 C.ar      1 <0>         0.0783
     28 C20         0.7198   -0.1815    0.6609 C.ar      1 <0>        -0.0936
     29 C21         2.0665   -0.2932    0.3769 C.ar      1 <0>        -0.1059
     30 O2         -1.5393   -0.1385   -0.0833 O.3       1 <0>        -0.2412
     31 C22        -2.3129   -1.2454   -0.1983 C.ar      1 <0>         0.3851
     32 C23        -3.6894   -1.1637   -0.0277 C.ar      1 <0>        -0.3141
     33 C24        -4.4409   -2.3284   -0.1601 C.ar      1 <0>         0.4620
     34 N5         -3.8165   -3.4721   -0.4341 N.ar      1 <0>        -0.5954
     35 C25        -2.5082   -3.5081   -0.5840 C.ar      1 <0>         0.3753
     36 N6         -1.7644   -2.4263   -0.4707 N.ar      1 <0>        -0.6017
     37 N7         -5.8178   -2.2988   -0.0034 N.pl3     1 <0>        -0.7231
     38 C26        -6.4937   -1.0344    0.2979 C.3       1 <0>         0.0898
     39 H1          9.0560    3.0401    9.2597 H         1 <0>         0.0595
     40 H2          8.0243    2.9380    7.7928 H         1 <0>         0.0547
     41 H3          8.8763    4.4695    8.1868 H         1 <0>         0.0631
     42 H4         11.0672    3.3441    7.8241 H         1 <0>         0.0746
     43 H5         10.2153    1.8126    7.4301 H         1 <0>         0.0335
     44 H6         12.0665    3.6630    5.7442 H         1 <0>         0.0800
     45 H7         11.4577    2.0621    5.2031 H         1 <0>         0.0441
     46 H8         10.8699    4.7665    3.8728 H         1 <0>         0.0445
     47 H9         11.9796    3.4990    3.2494 H         1 <0>         0.0809
     48 H10         8.4684    4.3007    3.9867 H         1 <0>         0.0435
     49 H11         7.8594    2.6998    3.4455 H         1 <0>         0.0808
     50 H12         9.0569    1.5962    5.3178 H         1 <0>         0.0425
     51 H13         7.9470    2.8635    5.9412 H         1 <0>         0.0819
     52 H14         9.4106    4.4897    1.7732 H         1 <0>         0.0550
     53 H15        10.7489    3.3982    1.2791 H         1 <0>         0.0962
     54 H16         7.2082    3.9988    1.1607 H         1 <0>         0.1355
     55 H17         5.5933    2.5489    0.0003 H         1 <0>         0.1427
     56 H18         8.5625   -0.5152   -0.2838 H         1 <0>         0.1409
     57 H19         6.3979   -0.5903   -1.6569 H         1 <0>         0.4343
     58 H20         4.1917   -1.2745   -2.0166 H         1 <0>         0.4332
     59 H21         1.8775   -0.6959   -2.9771 H         1 <0>         0.1323
     60 H22        -0.5220   -0.4960   -2.4689 H         1 <0>         0.1282
     61 H23         0.3932   -0.0371    1.6801 H         1 <0>         0.1328
     62 H24         2.7931   -0.2369    1.1740 H         1 <0>         0.1466
     63 H25        -4.1646   -0.2205    0.1982 H         1 <0>         0.1463
     64 H26        -2.0315   -4.4515   -0.8058 H         1 <0>         0.1996
     65 H27        -6.4030   -3.2246   -0.1053 H         1 <0>         0.4362
     66 H28        -7.5762   -1.2091    0.3856 H         1 <0>         0.0851
     67 H29        -6.3028   -0.3146   -0.5117 H         1 <0>         0.0598
     68 H30        -6.1096   -0.6302    1.2461 H         1 <0>         0.0599
@<TRIPOS>BOND
     1    1    2 1
     2    1   39 1
     3    1   40 1
     4    1   41 1
     5    2    3 1
     6    2   42 1
     7    2   43 1
     8    3    8 1
     9    3    4 1
    10    4    5 1
    11    4   44 1
    12    4   45 1
    13    5    6 1
    14    5   46 1
    15    5   47 1
    16    6    7 1
    17    6    9 1
    18    7    8 1
    19    7   48 1
    20    7   49 1
    21    8   50 1
    22    8   51 1
    23    9   10 1
    24    9   52 1
    25    9   53 1
    26   10   15 ar
    27   10   11 ar
    28   11   12 ar
    29   11   54 1
    30   12   13 ar
    31   12   55 1
    32   13   14 ar
    33   13   20 1
    34   14   15 ar
    35   14   56 1
    36   15   16 1
    37   16   17 1
    38   16   18 1
    39   16   19 1
    40   20   21 am
    41   20   57 1
    42   21   22 2
    43   21   23 am
    44   23   24 1
    45   23   58 1
    46   24   29 ar
    47   24   25 ar
    48   25   26 ar
    49   25   59 1
    50   26   27 ar
    51   26   60 1
    52   27   28 ar
    53   27   30 1
    54   28   29 ar
    55   28   61 1
    56   29   62 1
    57   30   31 1
    58   31   36 ar
    59   31   32 ar
    60   32   33 ar
    61   32   63 1
    62   33   34 ar
    63   33   37 1
    64   34   35 ar
    65   35   36 ar
    66   35   64 1
    67   37   38 1
    68   37   65 1
    69   38   66 1
    70   38   67 1
    71   38   68 1
@<TRIPOS>MOLECULE
ZINC00602803
   57    59     0     0     0
SMALL
USER_CHARGES

@<TRIPOS>ATOM
      1 C1         -1.3402   -4.8618    1.2145 C.3       1 <0>        -0.1534
      2 C2         -0.8181   -3.6495    0.4408 C.3       1 <0>         0.0511
      3 O1         -0.7742   -2.5142    1.3074 O.3       1 <0>        -0.3148
      4 C3         -0.3304   -1.3470    0.7727 C.ar      1 <0>         0.1525
      5 C4          0.0498   -1.3049   -0.5488 C.ar      1 <0>        -0.1831
      6 C5          0.5092   -0.1023   -1.1071 C.ar      1 <0>         0.1876
      7 C6          0.5748    1.0570   -0.2965 C.ar      1 <0>        -0.1304
      8 C7          0.1883    0.9932    1.0499 C.ar      1 <0>        -0.0592
      9 C8         -0.2650   -0.1967    1.5740 C.ar      1 <0>         0.1185
     10 N1         -0.6575   -0.2608    2.9161 N.am      1 <0>        -0.6449
     11 C9         -0.1566    0.6173    3.8075 C.2       1 <0>         0.5328
     12 O2          0.7152    1.3957    3.4703 O.2       1 <0>        -0.5071
     13 C10        -0.6641    0.6344    5.1877 C.2       1 <0>        -0.1271
     14 C11        -0.1697    1.5011    6.0673 C.2       1 <0>        -0.1492
     15 C12        -0.6897    1.5186    7.4817 C.3       1 <0>         0.0302
     16 C13         1.3312    2.5206    8.3617 C.3       1 <0>        -0.0486
     17 C14        -0.0528    1.1357    9.7861 C.3       1 <0>        -0.0433
     18 C15         1.0386    2.2666   -0.8642 C.ar      1 <0>         0.2844
     19 C16         1.4144    2.2536   -2.2161 C.ar      1 <0>        -0.1029
     20 C17         1.3165    1.0573   -2.9447 C.ar      1 <0>         0.2010
     21 N2          0.8834   -0.0478   -2.3940 N.ar      1 <0>        -0.4743
     22 C18         1.8922    3.4476   -2.8459 C.1       1 <0>         0.2469
     23 N3          2.2712    4.3948   -3.3456 N.1       1 <0>        -0.3851
     24 N4          1.1194    3.4219   -0.1130 N.pl3     1 <0>        -0.6979
     25 C19         2.3677    3.9814    0.1773 C.ar      1 <0>         0.1846
     26 C20         3.4715    3.1592    0.3659 C.ar      1 <0>        -0.1231
     27 C21         4.7048    3.7137    0.6463 C.ar      1 <0>        -0.1069
     28 C22         4.8398    5.0877    0.7520 C.ar      1 <0>         0.0844
     29 C23         3.7394    5.9099    0.5700 C.ar      1 <0>        -0.0407
     30 C24         2.5044    5.3592    0.2831 C.ar      1 <0>        -0.1222
     31 Cl1         3.9119    7.6322    0.7020 Cl        1 <0>        -0.0373
     32 F1          6.0462    5.6274    1.0324 F         1 <0>        -0.1244
     33 H1         -2.3423   -4.6506    1.5877 H         1 <0>         0.0676
     34 H2         -1.3737   -5.7279    0.5535 H         1 <0>         0.0859
     35 H3         -0.6765   -5.0706    2.0536 H         1 <0>         0.0665
     36 H4         -1.4818   -3.4407   -0.3983 H         1 <0>         0.0727
     37 H5          0.1840   -3.8607    0.0676 H         1 <0>         0.0719
     38 H6         -0.0049   -2.1965   -1.1558 H         1 <0>         0.1557
     39 H7          0.2375    1.8756    1.6707 H         1 <0>         0.1646
     40 H8         -1.2900   -0.9373    3.2047 H         1 <0>         0.4221
     41 H9         -1.4381   -0.0567    5.4870 H         1 <0>         0.1454
     42 H10         0.6043    2.1922    5.7680 H         1 <0>         0.1533
     43 H11        -1.1915    2.4672    7.6726 H         1 <0>         0.1468
     44 H12        -1.3959    0.6999    7.6193 H         1 <0>         0.1366
     45 H13         0.7789    3.4221    8.6269 H         1 <0>         0.1257
     46 H14         2.1523    2.3777    9.0642 H         1 <0>         0.1250
     47 H15         1.7302    2.6227    7.3524 H         1 <0>         0.1232
     48 H16        -0.6601    0.2309    9.8124 H         1 <0>         0.1226
     49 H17         0.7976    1.0222   10.4584 H         1 <0>         0.1252
     50 H18        -0.6553    1.9870   10.1029 H         1 <0>         0.1250
     51 H19         1.6056    1.0492   -3.9853 H         1 <0>         0.1765
     52 H20         0.3102    3.8456    0.2136 H         1 <0>         0.4201
     53 H21         3.3660    2.0871    0.2888 H         1 <0>         0.1375
     54 H22         5.5639    3.0747    0.7881 H         1 <0>         0.1500
     55 H23         1.6466    6.0000    0.1416 H         1 <0>         0.1457
     56 N5          0.4465    1.3376    8.4096 N.4       1 <0>        -0.3970
     57 H24         0.9816    0.5092    8.1241 H         1 <0>         0.4334
@<TRIPOS>BOND
     1    1    2 1
     2    1   33 1
     3    1   34 1
     4    1   35 1
     5    2    3 1
     6    2   36 1
     7    2   37 1
     8    3    4 1
     9    4    9 ar
    10    4    5 ar
    11    5    6 ar
    12    5   38 1
    13    6   21 ar
    14    6    7 ar
    15    7    8 ar
    16    7   18 ar
    17    8    9 ar
    18    8   39 1
    19    9   10 1
    20   10   11 am
    21   10   40 1
    22   11   12 2
    23   11   13 1
    24   13   14 2
    25   13   41 1
    26   14   15 1
    27   14   42 1
    28   15   43 1
    29   15   44 1
    30   15   56 1
    31   16   45 1
    32   16   46 1
    33   16   47 1
    34   16   56 1
    35   17   48 1
    36   17   49 1
    37   17   50 1
    38   17   56 1
    39   18   19 ar
    40   18   24 1
    41   19   20 ar
    42   19   22 1
    43   20   21 ar
    44   20   51 1
    45   22   23 3
    46   24   25 1
    47   24   52 1
    48   25   30 ar
    49   25   26 ar
    50   26   27 ar
    51   26   53 1
    52   27   28 ar
    53   27   54 1
    54   28   29 ar
    55   28   32 1
    56   29   30 ar
    57   29   31 1
    58   30   55 1
    59   56   57 1
@<TRIPOS>MOLECULE
ZINC00014036
   30    31     0     0     0
SMALL
USER_CHARGES

@<TRIPOS>ATOM
      1 C1         -0.0169    1.3930    0.0097 C.ar      1 <0>        -0.1036
      2 C2          1.1683    2.0985    0.0022 C.ar      1 <0>        -0.1276
      3 C3          2.3804    1.4246   -0.0130 C.ar      1 <0>         0.0834
      4 C4          2.4072    0.0312   -0.0208 C.ar      1 <0>         0.0827
      5 C5          1.2242   -0.6828   -0.0138 C.ar      1 <0>        -0.1171
      6 C6          0.0021   -0.0041    0.0020 C.ar      1 <0>        -0.0509
      7 C7         -1.2626   -0.7600    0.0105 C.2       1 <0>        -0.0980
      8 C8         -2.4354   -0.1063    0.0257 C.2       1 <0>        -0.1063
      9 C9         -3.7005   -0.8625    0.0342 C.ar      1 <0>        -0.0228
     10 C10        -3.6821   -2.2592    0.0323 C.ar      1 <0>        -0.1495
     11 C11        -4.8732   -2.9651    0.0408 C.ar      1 <0>         0.1269
     12 C12        -6.0840   -2.2872    0.0507 C.ar      1 <0>        -0.1720
     13 C13        -6.1077   -0.8997    0.0521 C.ar      1 <0>         0.1262
     14 C14        -4.9219   -0.1848    0.0499 C.ar      1 <0>        -0.1427
     15 O1         -7.2966   -0.2415    0.0613 O.3       1 <0>        -0.4957
     16 O2         -4.8566   -4.3240    0.0391 O.3       1 <0>        -0.4957
     17 O3          3.5978   -0.6258   -0.0357 O.3       1 <0>        -0.4869
     18 O4          3.5454    2.1251   -0.0208 O.3       1 <0>        -0.4875
     19 H1         -0.9593    1.9204    0.0260 H         1 <0>         0.1342
     20 H2          1.1524    3.1784    0.0078 H         1 <0>         0.1368
     21 H3          1.2437   -1.7626   -0.0205 H         1 <0>         0.1370
     22 H4         -1.2463   -1.8399    0.0046 H         1 <0>         0.1270
     23 H5         -2.4517    0.9735    0.0316 H         1 <0>         0.1287
     24 H6         -2.7402   -2.7877    0.0240 H         1 <0>         0.1353
     25 H7         -7.0110   -2.8413    0.0570 H         1 <0>         0.1365
     26 H8         -4.9412    0.8950    0.0559 H         1 <0>         0.1354
     27 H9         -7.6343   -0.0518    0.9474 H         1 <0>         0.3943
     28 H10        -4.8448   -4.7183    0.9219 H         1 <0>         0.3942
     29 H11         3.9506   -0.8205    0.8434 H         1 <0>         0.3888
     30 H12         3.8911    2.3233    0.8603 H         1 <0>         0.3889
@<TRIPOS>BOND
     1    1    6 ar
     2    1    2 ar
     3    1   19 1
     4    2    3 ar
     5    2   20 1
     6    3    4 ar
     7    3   18 1
     8    4    5 ar
     9    4   17 1
    10    5    6 ar
    11    5   21 1
    12    6    7 1
    13    7    8 2
    14    7   22 1
    15    8    9 1
    16    8   23 1
    17    9   14 ar
    18    9   10 ar
    19   10   11 ar
    20   10   24 1
    21   11   12 ar
    22   11   16 1
    23   12   13 ar
    24   12   25 1
    25   13   14 ar
    26   13   15 1
    27   14   26 1
    28   15   27 1
    29   16   28 1
    30   17   29 1
    31   18   30 1
@<TRIPOS>MOLECULE
ZINC19632618
   69    73     0     0     0
SMALL
USER_CHARGES

@<TRIPOS>ATOM
      1 C1         -0.1643    1.5374    0.2772 C.3       1 <0>        -0.1166
      2 C2          0.0708    0.1281   -0.2021 C.ar      1 <0>        -0.1228
      3 C3         -0.6192   -0.3521   -1.2987 C.ar      1 <0>        -0.0806
      4 C4         -0.4070   -1.6434   -1.7410 C.ar      1 <0>        -0.1294
      5 C5          0.5017   -2.4641   -1.0837 C.ar      1 <0>         0.1504
      6 C6          1.1965   -1.9850    0.0175 C.ar      1 <0>        -0.1394
      7 C7          0.9852   -0.6852    0.4558 C.ar      1 <0>         0.1826
      8 N1          1.6874   -0.1967    1.5617 N.pl3     1 <0>        -0.6314
      9 C8          2.1285   -1.0695    2.5429 C.ar      1 <0>         0.5659
     10 N2          1.7764   -2.3456    2.4776 N.ar      1 <0>        -0.5577
     11 C9          2.1776   -3.2107    3.3953 C.ar      1 <0>         0.1910
     12 C10         2.9764   -2.7714    4.4364 C.ar      1 <0>        -0.2706
     13 C11         3.3313   -1.4207    4.4789 C.ar      1 <0>         0.2697
     14 N3          2.8950   -0.6087    3.5185 N.ar      1 <0>        -0.5576
     15 C12         4.1856   -0.9008    5.5740 C.ar      1 <0>        -0.1200
     16 C13         4.4510    0.4679    5.6793 C.ar      1 <0>        -0.0267
     17 C14         5.2541    0.9026    6.7193 C.ar      1 <0>        -0.1772
     18 C15         5.7636   -0.0222    7.6129 C.ar      1 <0>         0.1192
     19 N4          5.4957   -1.3077    7.4879 N.ar      1 <0>        -0.4844
     20 C16         4.7320   -1.7677    6.5181 C.ar      1 <0>         0.1336
     21 N5          0.7153   -3.7716   -1.5315 N.am      1 <0>        -0.6649
     22 C17         0.7404   -4.0356   -2.8529 C.2       1 <0>         0.5545
     23 O1          0.4912   -3.1555   -3.6535 O.2       1 <0>        -0.5086
     24 C18         1.0709   -5.3955   -3.3287 C.ar      1 <0>        -0.1216
     25 C19         1.3519   -6.4100   -2.4119 C.ar      1 <0>        -0.0841
     26 C20         1.6592   -7.6771   -2.8626 C.ar      1 <0>        -0.1244
     27 C21         1.6892   -7.9435   -4.2200 C.ar      1 <0>        -0.0692
     28 C22         1.4117   -6.9425   -5.1341 C.ar      1 <0>        -0.0994
     29 C23         1.0978   -5.6724   -4.6966 C.ar      1 <0>        -0.0536
     30 C24         2.0262   -9.3299   -4.7050 C.3       1 <0>         0.0939
     31 N6          0.7933  -10.1196   -4.8258 N.3       1 <0>        -0.5345
     32 C25         0.1866  -10.3538   -3.5078 C.3       1 <0>         0.0185
     33 C26        -1.1228  -11.1262   -3.6823 C.3       1 <0>        -0.0025
     34 N7         -0.8513  -12.4061   -4.3498 N.4       1 <0>        -0.3884
     35 C27        -0.2685  -12.1554   -5.6746 C.3       1 <0>        -0.0024
     36 C28         1.0481  -11.3916   -5.5166 C.3       1 <0>         0.0250
     37 C29        -2.1059  -13.1551   -4.5009 C.3       1 <0>        -0.0460
     38 H1          0.5251    2.2130   -0.2290 H         1 <0>         0.0728
     39 H2         -1.1901    1.8307    0.0540 H         1 <0>         0.0743
     40 H3          0.0021    1.5877    1.3533 H         1 <0>         0.0627
     41 H4         -1.3262    0.2836   -1.8111 H         1 <0>         0.1320
     42 H5         -0.9481   -2.0158   -2.5982 H         1 <0>         0.1349
     43 H6          1.9030   -2.6209    0.5302 H         1 <0>         0.1479
     44 H7          1.8658    0.7534    1.6418 H         1 <0>         0.4260
     45 H8          1.8844   -4.2483    3.3325 H         1 <0>         0.1734
     46 H9          3.3172   -3.4566    5.1985 H         1 <0>         0.1507
     47 H10         4.0401    1.1680    4.9670 H         1 <0>         0.1466
     48 H11         5.4807    1.9525    6.8318 H         1 <0>         0.1437
     49 H12         6.3909    0.3135    8.4254 H         1 <0>         0.1633
     50 H13         4.5316   -2.8268    6.4514 H         1 <0>         0.1617
     51 H14         0.8453   -4.4884   -0.8911 H         1 <0>         0.4084
     52 H15         1.3291   -6.2032   -1.3521 H         1 <0>         0.1294
     53 H16         1.8771   -8.4627   -2.1544 H         1 <0>         0.1265
     54 H17         1.4372   -7.1570   -6.1922 H         1 <0>         0.1340
     55 H18         0.8770   -4.8931   -5.4110 H         1 <0>         0.1424
     56 H19         2.5135   -9.2661   -5.6779 H         1 <0>         0.1008
     57 H20         2.6973   -9.8107   -3.9933 H         1 <0>         0.0595
     58 H21         0.8718  -10.9344   -2.8900 H         1 <0>         0.0618
     59 H22        -0.0167   -9.3975   -3.0259 H         1 <0>         0.1265
     60 H23        -1.5673  -11.3133   -2.7048 H         1 <0>         0.1359
     61 H24        -1.8127  -10.5393   -4.2887 H         1 <0>         0.1379
     62 H25        -0.0795  -13.1056   -6.1741 H         1 <0>         0.1367
     63 H26        -0.9627  -11.5633   -6.2708 H         1 <0>         0.1381
     64 H27         1.4733  -11.1924   -6.5003 H         1 <0>         0.1253
     65 H28         1.7474  -11.9892   -4.9320 H         1 <0>         0.0621
     66 H29        -2.8061  -12.5737   -5.1008 H         1 <0>         0.1233
     67 H30        -1.9046  -14.1049   -4.9963 H         1 <0>         0.1246
     68 H31        -2.5379  -13.3423   -3.5179 H         1 <0>         0.1243
     69 H32        -0.2036  -12.9443   -3.7940 H         1 <0>         0.4222
@<TRIPOS>BOND
     1    1    2 1
     2    1   38 1
     3    1   39 1
     4    1   40 1
     5    2    7 ar
     6    2    3 ar
     7    3    4 ar
     8    3   41 1
     9    4    5 ar
    10    4   42 1
    11    5    6 ar
    12    5   21 1
    13    6    7 ar
    14    6   43 1
    15    7    8 1
    16    8    9 1
    17    8   44 1
    18    9   14 ar
    19    9   10 ar
    20   10   11 ar
    21   11   12 ar
    22   11   45 1
    23   12   13 ar
    24   12   46 1
    25   13   14 ar
    26   13   15 1
    27   15   20 ar
    28   15   16 ar
    29   16   17 ar
    30   16   47 1
    31   17   18 ar
    32   17   48 1
    33   18   19 ar
    34   18   49 1
    35   19   20 ar
    36   20   50 1
    37   21   22 am
    38   21   51 1
    39   22   23 2
    40   22   24 1
    41   24   29 ar
    42   24   25 ar
    43   25   26 ar
    44   25   52 1
    45   26   27 ar
    46   26   53 1
    47   27   28 ar
    48   27   30 1
    49   28   29 ar
    50   28   54 1
    51   29   55 1
    52   30   31 1
    53   30   56 1
    54   30   57 1
    55   31   36 1
    56   31   32 1
    57   32   33 1
    58   32   58 1
    59   32   59 1
    60   33   34 1
    61   33   60 1
    62   33   61 1
    63   34   35 1
    64   34   37 1
    65   34   69 1
    66   35   36 1
    67   35   62 1
    68   35   63 1
    69   36   64 1
    70   36   65 1
    71   37   66 1
    72   37   67 1
    73   37   68 1
@<TRIPOS>MOLECULE
ZINC19632618
   69    73     0     0     0
SMALL
USER_CHARGES

@<TRIPOS>ATOM
      1 C1         -0.1643    1.5374    0.2772 C.3       1 <0>        -0.1179
      2 C2          0.0708    0.1281   -0.2021 C.ar      1 <0>        -0.1195
      3 C3         -0.6192   -0.3521   -1.2987 C.ar      1 <0>        -0.0803
      4 C4         -0.4070   -1.6434   -1.7410 C.ar      1 <0>        -0.1287
      5 C5          0.5017   -2.4641   -1.0837 C.ar      1 <0>         0.1452
      6 C6          1.1965   -1.9850    0.0175 C.ar      1 <0>        -0.1374
      7 C7          0.9852   -0.6852    0.4558 C.ar      1 <0>         0.1839
      8 N1          1.6874   -0.1967    1.5617 N.pl3     1 <0>        -0.6318
      9 C8          2.1285   -1.0695    2.5429 C.ar      1 <0>         0.5654
     10 N2          1.7764   -2.3456    2.4776 N.ar      1 <0>        -0.5590
     11 C9          2.1776   -3.2107    3.3953 C.ar      1 <0>         0.1907
     12 C10         2.9764   -2.7714    4.4364 C.ar      1 <0>        -0.2695
     13 C11         3.3313   -1.4207    4.4789 C.ar      1 <0>         0.2707
     14 N3          2.8950   -0.6087    3.5185 N.ar      1 <0>        -0.5571
     15 C12         4.1856   -0.9008    5.5740 C.ar      1 <0>        -0.1213
     16 C13         4.4510    0.4679    5.6793 C.ar      1 <0>        -0.0264
     17 C14         5.2541    0.9026    6.7193 C.ar      1 <0>        -0.1772
     18 C15         5.7636   -0.0222    7.6129 C.ar      1 <0>         0.1201
     19 N4          5.4957   -1.3077    7.4879 N.ar      1 <0>        -0.4842
     20 C16         4.7320   -1.7677    6.5181 C.ar      1 <0>         0.1342
     21 N5          0.7153   -3.7716   -1.5315 N.am      1 <0>        -0.6603
     22 C17         0.7404   -4.0356   -2.8529 C.2       1 <0>         0.5491
     23 O1          0.4912   -3.1555   -3.6535 O.2       1 <0>        -0.5015
     24 C18         1.0709   -5.3955   -3.3287 C.ar      1 <0>        -0.0938
     25 C19         1.3519   -6.4100   -2.4119 C.ar      1 <0>        -0.0834
     26 C20         1.6592   -7.6771   -2.8626 C.ar      1 <0>        -0.1009
     27 C21         1.6892   -7.9435   -4.2200 C.ar      1 <0>        -0.1382
     28 C22         1.4117   -6.9425   -5.1341 C.ar      1 <0>        -0.0966
     29 C23         1.0978   -5.6724   -4.6966 C.ar      1 <0>        -0.0538
     30 C24         2.0262   -9.3299   -4.7050 C.3       1 <0>         0.0425
     31 N6          0.7933  -10.1196   -4.8258 N.4       1 <0>        -0.3856
     32 C25         0.1989  -10.3052   -3.4955 C.3       1 <0>        -0.0078
     33 C26        -1.0954  -11.1117   -3.6230 C.3       1 <0>         0.0256
     34 N7         -0.7986  -12.4159   -4.2323 N.3       1 <0>        -0.5431
     35 C27        -0.1799  -12.2456   -5.5546 C.3       1 <0>         0.0239
     36 C28         1.1068  -11.4297   -5.4112 C.3       1 <0>        -0.0024
     37 C29        -2.0090  -13.2436   -4.3201 C.3       1 <0>         0.0192
     38 H1          0.5251    2.2130   -0.2290 H         1 <0>         0.0738
     39 H2         -1.1901    1.8307    0.0540 H         1 <0>         0.0752
     40 H3          0.0021    1.5877    1.3533 H         1 <0>         0.0636
     41 H4         -1.3262    0.2836   -1.8111 H         1 <0>         0.1330
     42 H5         -0.9481   -2.0158   -2.5982 H         1 <0>         0.1345
     43 H6          1.9030   -2.6209    0.5302 H         1 <0>         0.1487
     44 H7          1.8658    0.7534    1.6418 H         1 <0>         0.4265
     45 H8          1.8844   -4.2483    3.3325 H         1 <0>         0.1737
     46 H9          3.3172   -3.4566    5.1985 H         1 <0>         0.1513
     47 H10         4.0401    1.1680    4.9670 H         1 <0>         0.1465
     48 H11         5.4807    1.9525    6.8318 H         1 <0>         0.1439
     49 H12         6.3909    0.3135    8.4254 H         1 <0>         0.1636
     50 H13         4.5316   -2.8268    6.4514 H         1 <0>         0.1618
     51 H14         0.8453   -4.4884   -0.8911 H         1 <0>         0.4091
     52 H15         1.3291   -6.2032   -1.3521 H         1 <0>         0.1399
     53 H16         1.8771   -8.4627   -2.1544 H         1 <0>         0.1405
     54 H17         1.4372   -7.1570   -6.1922 H         1 <0>         0.1409
     55 H18         0.8770   -4.8931   -5.4110 H         1 <0>         0.1513
     56 H19         2.5135   -9.2661   -5.6779 H         1 <0>         0.1411
     57 H20         2.6973   -9.8107   -3.9933 H         1 <0>         0.1402
     58 H21         0.8998  -10.8418   -2.8560 H         1 <0>         0.1385
     59 H22        -0.0212   -9.3320   -3.0568 H         1 <0>         0.1352
     60 H23        -1.5289  -11.2624   -2.6343 H         1 <0>         0.1235
     61 H24        -1.8016  -10.5690   -4.2513 H         1 <0>         0.0601
     62 H25         0.0544  -13.2235   -5.9751 H         1 <0>         0.1247
     63 H26        -0.8711  -11.7216   -6.2147 H         1 <0>         0.0606
     64 H27         1.5598  -11.2902   -6.3927 H         1 <0>         0.1372
     65 H28         1.8030  -11.9606   -4.7619 H         1 <0>         0.1392
     66 H29        -2.7542  -12.7340   -4.9308 H         1 <0>         0.0396
     67 H30        -1.7610  -14.2028   -4.7745 H         1 <0>         0.0842
     68 H31        -2.4099  -13.4082   -3.3199 H         1 <0>         0.0844
     69 H32         0.1396   -9.6332   -5.4209 H         1 <0>         0.4206
@<TRIPOS>BOND
     1    1    2 1
     2    1   38 1
     3    1   39 1
     4    1   40 1
     5    2    7 ar
     6    2    3 ar
     7    3    4 ar
     8    3   41 1
     9    4    5 ar
    10    4   42 1
    11    5    6 ar
    12    5   21 1
    13    6    7 ar
    14    6   43 1
    15    7    8 1
    16    8    9 1
    17    8   44 1
    18    9   14 ar
    19    9   10 ar
    20   10   11 ar
    21   11   12 ar
    22   11   45 1
    23   12   13 ar
    24   12   46 1
    25   13   14 ar
    26   13   15 1
    27   15   20 ar
    28   15   16 ar
    29   16   17 ar
    30   16   47 1
    31   17   18 ar
    32   17   48 1
    33   18   19 ar
    34   18   49 1
    35   19   20 ar
    36   20   50 1
    37   21   22 am
    38   21   51 1
    39   22   23 2
    40   22   24 1
    41   24   29 ar
    42   24   25 ar
    43   25   26 ar
    44   25   52 1
    45   26   27 ar
    46   26   53 1
    47   27   28 ar
    48   27   30 1
    49   28   29 ar
    50   28   54 1
    51   29   55 1
    52   30   31 1
    53   30   56 1
    54   30   57 1
    55   31   36 1
    56   31   32 1
    57   31   69 1
    58   32   33 1
    59   32   58 1
    60   32   59 1
    61   33   34 1
    62   33   60 1
    63   33   61 1
    64   34   35 1
    65   34   37 1
    66   35   36 1
    67   35   62 1
    68   35   63 1
    69   36   64 1
    70   36   65 1
    71   37   66 1
    72   37   67 1
    73   37   68 1
@<TRIPOS>MOLECULE
ZINC19632618
   68    72     0     0     0
SMALL
USER_CHARGES

@<TRIPOS>ATOM
      1 C1         -0.1643    1.5374    0.2772 C.3       1 <0>        -0.1139
      2 C2          0.0708    0.1281   -0.2021 C.ar      1 <0>        -0.1276
      3 C3         -0.6192   -0.3521   -1.2987 C.ar      1 <0>        -0.0809
      4 C4         -0.4070   -1.6434   -1.7410 C.ar      1 <0>        -0.1296
      5 C5          0.5017   -2.4641   -1.0837 C.ar      1 <0>         0.1575
      6 C6          1.1965   -1.9850    0.0175 C.ar      1 <0>        -0.1408
      7 C7          0.9852   -0.6852    0.4558 C.ar      1 <0>         0.1805
      8 N1          1.6874   -0.1967    1.5617 N.pl3     1 <0>        -0.6310
      9 C8          2.1285   -1.0695    2.5429 C.ar      1 <0>         0.5658
     10 N2          1.7764   -2.3456    2.4776 N.ar      1 <0>        -0.5548
     11 C9          2.1776   -3.2107    3.3953 C.ar      1 <0>         0.1930
     12 C10         2.9764   -2.7714    4.4364 C.ar      1 <0>        -0.2707
     13 C11         3.3313   -1.4207    4.4789 C.ar      1 <0>         0.2660
     14 N3          2.8950   -0.6087    3.5185 N.ar      1 <0>        -0.5591
     15 C12         4.1856   -0.9008    5.5740 C.ar      1 <0>        -0.1161
     16 C13         4.4510    0.4679    5.6793 C.ar      1 <0>        -0.0277
     17 C14         5.2541    0.9026    6.7193 C.ar      1 <0>        -0.1780
     18 C15         5.7636   -0.0222    7.6129 C.ar      1 <0>         0.1167
     19 N4          5.4957   -1.3077    7.4879 N.ar      1 <0>        -0.4846
     20 C16         4.7320   -1.7677    6.5181 C.ar      1 <0>         0.1331
     21 N5          0.7153   -3.7716   -1.5315 N.am      1 <0>        -0.6684
     22 C17         0.7404   -4.0356   -2.8529 C.2       1 <0>         0.5607
     23 O1          0.4912   -3.1555   -3.6535 O.2       1 <0>        -0.5149
     24 C18         1.0709   -5.3955   -3.3287 C.ar      1 <0>        -0.1367
     25 C19         1.3519   -6.4100   -2.4119 C.ar      1 <0>        -0.0845
     26 C20         1.6592   -7.6771   -2.8626 C.ar      1 <0>        -0.1214
     27 C21         1.6892   -7.9435   -4.2200 C.ar      1 <0>        -0.0481
     28 C22         1.4117   -6.9425   -5.1341 C.ar      1 <0>        -0.1045
     29 C23         1.0978   -5.6724   -4.6966 C.ar      1 <0>        -0.0549
     30 C24         2.0262   -9.3299   -4.7050 C.3       1 <0>         0.0887
     31 N6          0.7933  -10.1196   -4.8258 N.3       1 <0>        -0.5346
     32 C25         0.1854  -10.3517   -3.5082 C.3       1 <0>         0.0528
     33 C26        -1.1341  -11.1069   -3.6840 C.3       1 <0>         0.0560
     34 N7         -0.8794  -12.3787   -4.3748 N.3       1 <0>        -0.5467
     35 C27        -0.2715  -12.1466   -5.6924 C.3       1 <0>         0.0557
     36 C28         1.0481  -11.3914   -5.5165 C.3       1 <0>         0.0569
     37 C29        -2.1122  -13.1683   -4.4955 C.3       1 <0>         0.0243
     38 H1          0.5251    2.2130   -0.2290 H         1 <0>         0.0707
     39 H2         -1.1901    1.8307    0.0540 H         1 <0>         0.0727
     40 H3          0.0021    1.5877    1.3533 H         1 <0>         0.0612
     41 H4         -1.3262    0.2836   -1.8111 H         1 <0>         0.1306
     42 H5         -0.9481   -2.0158   -2.5982 H         1 <0>         0.1361
     43 H6          1.9030   -2.6209    0.5302 H         1 <0>         0.1478
     44 H7          1.8658    0.7534    1.6418 H         1 <0>         0.4247
     45 H8          1.8844   -4.2483    3.3325 H         1 <0>         0.1749
     46 H9          3.3172   -3.4566    5.1985 H         1 <0>         0.1504
     47 H10         4.0401    1.1680    4.9670 H         1 <0>         0.1465
     48 H11         5.4807    1.9525    6.8318 H         1 <0>         0.1424
     49 H12         6.3909    0.3135    8.4254 H         1 <0>         0.1620
     50 H13         4.5316   -2.8268    6.4514 H         1 <0>         0.1624
     51 H14         0.8453   -4.4884   -0.8911 H         1 <0>         0.4098
     52 H15         1.3291   -6.2032   -1.3521 H         1 <0>         0.1256
     53 H16         1.8771   -8.4627   -2.1544 H         1 <0>         0.1277
     54 H17         1.4372   -7.1570   -6.1922 H         1 <0>         0.1323
     55 H18         0.8770   -4.8931   -5.4110 H         1 <0>         0.1380
     56 H19         2.5135   -9.2661   -5.6779 H         1 <0>         0.0885
     57 H20         2.6973   -9.8107   -3.9933 H         1 <0>         0.0490
     58 H21         0.8640  -10.9435   -2.8938 H         1 <0>         0.0436
     59 H22        -0.0051   -9.3950   -3.0219 H         1 <0>         0.0840
     60 H23        -1.5725  -11.3056   -2.7060 H         1 <0>         0.0799
     61 H24        -1.8225  -10.5033   -4.2756 H         1 <0>         0.0432
     62 H25        -0.0810  -13.1033   -6.1787 H         1 <0>         0.0811
     63 H26        -0.9501  -11.5548   -6.3068 H         1 <0>         0.0437
     64 H27         1.4864  -11.1926   -6.4945 H         1 <0>         0.0821
     65 H28         1.7364  -11.9950   -4.9250 H         1 <0>         0.0450
     66 H29        -2.8511  -12.6037   -5.0641 H         1 <0>         0.0271
     67 H30        -1.8953  -14.1043   -5.0104 H         1 <0>         0.0693
     68 H31        -2.5051  -13.3830   -3.5017 H         1 <0>         0.0693
@<TRIPOS>BOND
     1    1    2 1
     2    1   38 1
     3    1   39 1
     4    1   40 1
     5    2    7 ar
     6    2    3 ar
     7    3    4 ar
     8    3   41 1
     9    4    5 ar
    10    4   42 1
    11    5    6 ar
    12    5   21 1
    13    6    7 ar
    14    6   43 1
    15    7    8 1
    16    8    9 1
    17    8   44 1
    18    9   14 ar
    19    9   10 ar
    20   10   11 ar
    21   11   12 ar
    22   11   45 1
    23   12   13 ar
    24   12   46 1
    25   13   14 ar
    26   13   15 1
    27   15   20 ar
    28   15   16 ar
    29   16   17 ar
    30   16   47 1
    31   17   18 ar
    32   17   48 1
    33   18   19 ar
    34   18   49 1
    35   19   20 ar
    36   20   50 1
    37   21   22 am
    38   21   51 1
    39   22   23 2
    40   22   24 1
    41   24   29 ar
    42   24   25 ar
    43   25   26 ar
    44   25   52 1
    45   26   27 ar
    46   26   53 1
    47   27   28 ar
    48   27   30 1
    49   28   29 ar
    50   28   54 1
    51   29   55 1
    52   30   31 1
    53   30   56 1
    54   30   57 1
    55   31   36 1
    56   31   32 1
    57   32   33 1
    58   32   58 1
    59   32   59 1
    60   33   34 1
    61   33   60 1
    62   33   61 1
    63   34   35 1
    64   34   37 1
    65   35   36 1
    66   35   62 1
    67   35   63 1
    68   36   64 1
    69   36   65 1
    70   37   66 1
    71   37   67 1
    72   37   68 1
