@<TRIPOS>MOLECULE
ZINC06521293
   32    33     0     0     0
SMALL
USER_CHARGES
1-[5-(azidomethyl)-4-hydroxy-tetrahydrofuran-2-yl]-5-methyl-pyrimidine-2,4-dione
@<TRIPOS>ATOM
      1 C1         -0.0127    1.0858    0.0080 C.3       1 <0>        -0.0868
      2 C2         -0.7181    1.5718    1.2479 C.2       1 <0>        -0.2535
      3 C3         -0.8575    2.8943    1.4817 C.2       1 <0>         0.1651
      4 N1         -1.5047    3.3184    2.6103 N.am      1 <0>        -0.5314
      5 C4         -1.9946    2.4301    3.4940 C.2       1 <0>         0.6993
      6 O1         -2.5626    2.8287    4.4924 O.2       1 <0>        -0.5259
      7 N2         -1.8651    1.1062    3.2883 N.am      1 <0>        -0.6633
      8 H1         -2.2352    0.4600    3.9557 H         1 <0>         0.4382
      9 C5         -1.2383    0.6479    2.1860 C.2       1 <0>         0.5531
     10 O2         -1.1203   -0.5498    1.9993 O.2       1 <0>        -0.5082
     11 C6         -1.6609    4.7532    2.8613 C.3       1 <0>         0.3063
     12 H2         -1.1178    5.3226    2.1070 H         1 <0>         0.1224
     13 C7         -3.1545    5.1314    2.8284 C.3       1 <0>        -0.1936
     14 C8         -3.4222    5.7415    4.2258 C.3       1 <0>         0.0827
     15 H3         -3.8530    4.9995    4.8981 H         1 <0>         0.0947
     16 C9         -1.9967    6.1416    4.6841 C.3       1 <0>         0.0988
     17 H4         -1.7073    7.0975    4.2475 H         1 <0>         0.0920
     18 O3         -1.1670    5.0768    4.1719 O.3       1 <0>        -0.3402
     19 C10        -1.9188    6.2029    6.2108 C.3       1 <0>         0.0806
     20 N3         -0.5998    6.6973    6.6131 N.2       1 <0>        -0.3715
     21 N4         -0.5137    7.6405    7.2184 N.1       1 <0>         0.2755
     22 N5         -0.4277    8.5837    7.8237 N.1       1 <0>        -0.1761
     23 O4         -4.2680    6.8891    4.1277 O.3       1 <0>        -0.5567
     24 H5          0.0021   -0.0041    0.0020 H         1 <0>         0.0816
     25 H6          1.0099    1.4631    0.0003 H         1 <0>         0.0723
     26 H7         -0.5399    1.4469   -0.8751 H         1 <0>         0.0719
     27 H8         -0.4635    3.6140    0.7794 H         1 <0>         0.1796
     28 H9         -3.3444    5.8680    2.0478 H         1 <0>         0.1040
     29 H10        -3.7693    4.2445    2.6752 H         1 <0>         0.0929
     30 H11        -2.6894    6.8758    6.5872 H         1 <0>         0.0878
     31 H12        -2.0743    5.2058    6.6229 H         1 <0>         0.1181
     32 H13        -5.1427    6.7028    3.7600 H         1 <0>         0.3901
@<TRIPOS>BOND
     1    1    2 1
     2    1   24 1
     3    1   25 1
     4    1   26 1
     5    2    9 1
     6    2    3 2
     7    3    4 1
     8    3   27 1
     9    4    5 am
    10    4   11 1
    11    5    6 2
    12    5    7 am
    13    7    8 1
    14    7    9 am
    15    9   10 2
    16   11   12 1
    17   11   18 1
    18   11   13 1
    19   13   14 1
    20   13   28 1
    21   13   29 1
    22   14   15 1
    23   14   16 1
    24   14   23 1
    25   16   17 1
    26   16   18 1
    27   16   19 1
    28   19   20 1
    29   19   30 1
    30   19   31 1
    31   20   21 2
    32   21   22 2
    33   23   32 1
@<TRIPOS>MOLECULE
ZINC01081243
   28    29     0     0     0
SMALL
USER_CHARGES

@<TRIPOS>ATOM
      1 C1         -0.0165    1.3649    0.0095 C.2       1 <0>         0.2202
      2 C2          1.1477    2.0493    0.0021 C.2       1 <0>        -0.2753
      3 C3          2.3687    1.3316   -0.0134 C.2       1 <0>         0.5615
      4 O1          3.4313    1.9266   -0.0200 O.2       1 <0>        -0.4859
      5 N1          2.3437   -0.0165   -0.0204 N.am      1 <0>        -0.6533
      6 H1          3.1758   -0.5149   -0.0310 H         1 <0>         0.4372
      7 C4          1.1690   -0.6735   -0.0123 C.2       1 <0>         0.6986
      8 O2          1.1624   -1.8893   -0.0183 O.2       1 <0>        -0.5089
      9 N2          0.0021   -0.0041    0.0020 N.am      1 <0>        -0.5240
     10 C5         -1.2606   -0.7470    0.0101 C.3       1 <0>         0.3021
     11 H2         -2.1017   -0.0630    0.1233 H         1 <0>         0.1242
     12 C6         -1.4082   -1.5706   -1.2885 C.3       1 <0>        -0.1948
     13 C7         -2.0847   -2.8809   -0.8271 C.3       1 <0>         0.0853
     14 H3         -1.4410   -3.7361   -1.0330 H         1 <0>         0.0848
     15 C8         -2.2657   -2.6939    0.6956 C.3       1 <0>         0.0919
     16 H4         -3.2620   -2.3099    0.9150 H         1 <0>         0.0969
     17 O3         -1.2615   -1.7253    1.0725 O.3       1 <0>        -0.3445
     18 C9         -2.0336   -4.0180    1.4262 C.3       1 <0>         0.0847
     19 O4         -2.3188   -3.8514    2.8165 O.3       1 <0>        -0.5666
     20 O5         -3.3513   -3.0432   -1.4685 O.3       1 <0>        -0.5554
     21 Br1         1.1477    3.9403    0.0116 Br        1 <0>         0.0259
     22 H5         -0.9574    1.8948    0.0259 H         1 <0>         0.1905
     23 H6         -2.0410   -1.0454   -2.0039 H         1 <0>         0.1026
     24 H7         -0.4301   -1.7780   -1.7225 H         1 <0>         0.0979
     25 H8         -2.6895   -4.7825    1.0098 H         1 <0>         0.0692
     26 H9         -0.9947   -4.3239    1.3025 H         1 <0>         0.0609
     27 H10        -2.1928   -4.6528    3.3426 H         1 <0>         0.3855
     28 H11        -3.2991   -3.1057   -2.4320 H         1 <0>         0.3889
@<TRIPOS>BOND
     1    1    9 1
     2    1    2 2
     3    1   22 1
     4    2    3 1
     5    2   21 1
     6    3    4 2
     7    3    5 am
     8    5    6 1
     9    5    7 am
    10    7    8 2
    11    7    9 am
    12    9   10 1
    13   10   11 1
    14   10   17 1
    15   10   12 1
    16   12   13 1
    17   12   23 1
    18   12   24 1
    19   13   14 1
    20   13   15 1
    21   13   20 1
    22   15   16 1
    23   15   17 1
    24   15   18 1
    25   18   19 1
    26   18   25 1
    27   18   26 1
    28   19   27 1
    29   20   28 1
@<TRIPOS>MOLECULE
ZINC12503817
   35    36     0     0     0
SMALL
USER_CHARGES
[(2S,3S,5R)-3-azido-5-(5-methyl-2,4-dioxo-pyrimidin-1-yl)tetrahydrofuran-2-yl]methyl dihydrogen phosphate
@<TRIPOS>ATOM
      1 C1          3.0254    6.4397   -0.6385 C.3       1 <0>        -0.0734
      2 C2          2.2995    5.4054    0.1828 C.2       1 <0>        -0.2765
      3 C3          2.1715    4.1396   -0.2692 C.2       1 <0>         0.1826
      4 N1          1.5098    3.2128    0.4894 N.am      1 <0>        -0.5250
      5 C4          0.9811    3.5524    1.6791 C.2       1 <0>         0.6900
      6 O1          0.3931    2.7142    2.3348 O.2       1 <0>        -0.4999
      7 N2          1.0985    4.8056    2.1560 N.am      1 <0>        -0.6627
      8 H1          0.7060    5.0387    3.0457 H         1 <0>         0.4367
      9 C5          1.7432    5.7480    1.4388 C.2       1 <0>         0.5592
     10 O2          1.8455    6.8833    1.8672 O.2       1 <0>        -0.5259
     11 C6          1.3704    1.8394   -0.0011 C.3       1 <0>         0.2963
     12 H2          1.7827    1.7510   -1.0063 H         1 <0>         0.1210
     13 C7          2.0729    0.8522    0.9571 C.3       1 <0>        -0.1734
     14 C8          1.1520   -0.3885    0.9592 C.3       1 <0>         0.0730
     15 H3          0.7676   -0.5771    1.9616 H         1 <0>         0.1086
     16 C9          0.0021   -0.0041    0.0020 C.3       1 <0>         0.1079
     17 H4          0.2026   -0.3753   -1.0030 H         1 <0>         0.1021
     18 O3         -0.0175    1.4400    0.0100 O.3       1 <0>        -0.3273
     19 C10        -1.3278   -0.5576    0.5178 C.3       1 <0>         0.1386
     20 O4         -2.3700   -0.2279   -0.4027 O.3       1 <0>        -0.7499
     21 P1         -3.9061   -0.6539   -0.1772 P.3       1 <0>         2.1318
     22 O5         -4.3650   -0.1654    1.1423 O.2       1 <0>        -1.1635
     23 N3          1.8699   -1.5614    0.4542 N.2       1 <0>        -0.3549
     24 N4          2.6855   -2.0293    1.0700 N.1       1 <0>         0.2832
     25 N5          3.5011   -2.4972    1.6858 N.1       1 <0>        -0.2002
     26 H5          2.3175    6.9429   -1.2971 H         1 <0>         0.0683
     27 H6          3.4878    7.1710    0.0245 H         1 <0>         0.0725
     28 H7          3.7959    5.9534   -1.2367 H         1 <0>         0.0667
     29 H8          2.5897    3.8598   -1.2249 H         1 <0>         0.1781
     30 H9          2.1438    1.2770    1.9584 H         1 <0>         0.1008
     31 H10         3.0622    0.5929    0.5803 H         1 <0>         0.0886
     32 H11        -1.2574   -1.6411    0.6141 H         1 <0>         0.0560
     33 H12        -1.5506   -0.1200    1.4909 H         1 <0>         0.0482
     34 O6         -4.8180   -0.0070   -1.3357 O.3       1 <0>        -1.1782
     35 O7         -4.0313   -2.2582   -0.2287 O.3       1 <0>        -1.1995
@<TRIPOS>BOND
     1    1    2 1
     2    1   26 1
     3    1   27 1
     4    1   28 1
     5    2    9 1
     6    2    3 2
     7    3    4 1
     8    3   29 1
     9    4    5 am
    10    4   11 1
    11    5    6 2
    12    5    7 am
    13    7    8 1
    14    7    9 am
    15    9   10 2
    16   11   12 1
    17   11   18 1
    18   11   13 1
    19   13   14 1
    20   13   30 1
    21   13   31 1
    22   14   15 1
    23   14   16 1
    24   14   23 1
    25   16   17 1
    26   16   18 1
    27   16   19 1
    28   19   20 1
    29   19   32 1
    30   19   33 1
    31   20   21 1
    32   21   22 2
    33   21   34 1
    34   21   35 1
    35   23   24 2
    36   24   25 2
@<TRIPOS>MOLECULE
ZINC01678872
   34    35     0     0     0
SMALL
USER_CHARGES
[3-hydroxy-5-(5-methyl-2,4-dioxo-pyrimidin-1-yl)-tetrahydrofuran-2-yl]methoxyphosphonic acid
@<TRIPOS>ATOM
      1 C1          1.6872   -6.6858    5.1424 C.3       1 <0>        -0.0723
      2 C2          0.7177   -5.6665    4.6022 C.2       1 <0>        -0.2816
      3 C3          0.7228   -5.3452    3.2907 C.2       1 <0>         0.1849
      4 N1         -0.1647   -4.4178    2.8168 N.am      1 <0>        -0.5272
      5 C4         -1.0457   -3.8269    3.6442 C.2       1 <0>         0.6894
      6 O1         -1.8286   -3.0090    3.2011 O.2       1 <0>        -0.5019
      7 N2         -1.0692   -4.1246    4.9567 N.am      1 <0>        -0.6631
      8 H1         -1.7257   -3.6701    5.5588 H         1 <0>         0.4359
      9 C5         -0.2111   -5.0332    5.4629 C.2       1 <0>         0.5594
     10 O2         -0.2344   -5.3063    6.6494 O.2       1 <0>        -0.5287
     11 C6         -0.1596   -4.0695    1.3938 C.3       1 <0>         0.2935
     12 H2          0.6688   -4.5687    0.8910 H         1 <0>         0.1156
     13 C7         -1.4941   -4.4884    0.7470 C.3       1 <0>        -0.1880
     14 C8         -2.0698   -3.1693    0.1766 C.3       1 <0>         0.0796
     15 H3         -2.7949   -2.7324    0.8632 H         1 <0>         0.0905
     16 C9         -0.8037   -2.2815    0.0707 C.3       1 <0>         0.0959
     17 H4         -0.2474   -2.5089   -0.8386 H         1 <0>         0.0888
     18 O3         -0.0383   -2.6456    1.2395 O.3       1 <0>        -0.3337
     19 C10        -1.1801   -0.7991    0.1135 C.3       1 <0>         0.1410
     20 O4          0.0021   -0.0041    0.0020 O.3       1 <0>        -0.7541
     21 P1         -0.0198    1.6058    0.0109 P.3       1 <0>         2.1342
     22 O5         -0.7125    2.0831    1.2285 O.2       1 <0>        -1.1649
     23 O6         -2.6527   -3.3818   -1.1106 O.3       1 <0>        -0.5482
     24 H5          2.6025   -6.1851    5.4582 H         1 <0>         0.0671
     25 H6          1.2398   -7.1967    5.9950 H         1 <0>         0.0718
     26 H7          1.9207   -7.4130    4.3647 H         1 <0>         0.0657
     27 H8          1.4238   -5.8182    2.6190 H         1 <0>         0.1764
     28 H9         -1.3208   -5.2069   -0.0542 H         1 <0>         0.0963
     29 H10        -2.1668   -4.9058    1.4962 H         1 <0>         0.0828
     30 H11        -1.6790   -0.5780    1.0570 H         1 <0>         0.0461
     31 H12        -1.8511   -0.5706   -0.7146 H         1 <0>         0.0559
     32 H13        -3.4480   -3.9318   -1.0963 H         1 <0>         0.3742
     33 O7          1.4907    2.1630   -0.0006 O.3       1 <0>        -1.1803
     34 O8         -0.7984    2.1391   -1.2935 O.3       1 <0>        -1.2011
@<TRIPOS>BOND
     1    1    2 1
     2    1   24 1
     3    1   25 1
     4    1   26 1
     5    2    9 1
     6    2    3 2
     7    3    4 1
     8    3   27 1
     9    4    5 am
    10    4   11 1
    11    5    6 2
    12    5    7 am
    13    7    8 1
    14    7    9 am
    15    9   10 2
    16   11   12 1
    17   11   18 1
    18   11   13 1
    19   13   14 1
    20   13   28 1
    21   13   29 1
    22   14   15 1
    23   14   16 1
    24   14   23 1
    25   16   17 1
    26   16   18 1
    27   16   19 1
    28   19   20 1
    29   19   30 1
    30   19   31 1
    31   20   21 1
    32   21   22 2
    33   21   33 1
    34   21   34 1
    35   23   32 1
@<TRIPOS>MOLECULE
ZINC05783757
   28    29     0     0     0
SMALL
USER_CHARGES
5-chloro-1-[4-hydroxy-5-(hydroxymethyl)tetrahydrofuran-2-yl]-pyrimidine-2,4-dione
@<TRIPOS>ATOM
      1 C1         -0.0165    1.3652    0.0095 C.2       1 <0>         0.1922
      2 C2          1.1478    2.0496    0.0021 C.2       1 <0>        -0.2175
      3 C3          2.3689    1.3316   -0.0130 C.2       1 <0>         0.5575
      4 O1          3.4315    1.9265   -0.0199 O.2       1 <0>        -0.4882
      5 N1          2.3437   -0.0165   -0.0204 N.am      1 <0>        -0.6569
      6 H1          3.2015   -0.5304   -0.0313 H         1 <0>         0.4442
      7 C4          1.1690   -0.6734   -0.0132 C.2       1 <0>         0.6984
      8 O2          1.1624   -1.8893   -0.0200 O.2       1 <0>        -0.5154
      9 N2          0.0021   -0.0041    0.0020 N.am      1 <0>        -0.5267
     10 C5         -1.2606   -0.7470    0.0101 C.3       1 <0>         0.3056
     11 H2         -2.0958   -0.0568    0.1290 H         1 <0>         0.1251
     12 C6         -1.4142   -1.5335   -1.3062 C.3       1 <0>        -0.1950
     13 C7         -1.5480   -3.0079   -0.8537 C.3       1 <0>         0.0842
     14 H3         -0.5894   -3.5229   -0.9174 H         1 <0>         0.0916
     15 C8         -1.9978   -2.8553    0.6217 C.3       1 <0>         0.0962
     16 H4         -3.0704   -2.6697    0.6787 H         1 <0>         0.0958
     17 O3         -1.2574   -1.7045    1.0822 O.3       1 <0>        -0.3465
     18 C9         -1.6208   -4.0977    1.4311 C.3       1 <0>         0.0848
     19 O4         -2.1475   -3.9819    2.7545 O.3       1 <0>        -0.5681
     20 O5         -2.5420   -3.6889   -1.6220 O.3       1 <0>        -0.5540
     21 Cl1         1.1480    3.7856    0.0109 Cl        1 <0>         0.0007
     22 H5         -0.9575    1.8952    0.0169 H         1 <0>         0.1896
     23 H6         -2.3104   -1.2150   -1.8386 H         1 <0>         0.1061
     24 H7         -0.5313   -1.4052   -1.9325 H         1 <0>         0.0924
     25 H8         -2.0359   -4.9839    0.9511 H         1 <0>         0.0699
     26 H9         -0.5353   -4.1849    1.4785 H         1 <0>         0.0608
     27 H10        -1.9465   -4.7362    3.3252 H         1 <0>         0.3849
     28 H11        -2.3476   -3.7303   -2.5684 H         1 <0>         0.3884
@<TRIPOS>BOND
     1    1    9 1
     2    1    2 2
     3    1   22 1
     4    2    3 1
     5    2   21 1
     6    3    4 2
     7    3    5 am
     8    5    6 1
     9    5    7 am
    10    7    8 2
    11    7    9 am
    12    9   10 1
    13   10   11 1
    14   10   17 1
    15   10   12 1
    16   12   13 1
    17   12   23 1
    18   12   24 1
    19   13   14 1
    20   13   15 1
    21   13   20 1
    22   15   16 1
    23   15   17 1
    24   15   18 1
    25   18   19 1
    26   18   25 1
    27   18   26 1
    28   19   27 1
    29   20   28 1
