@<TRIPOS>MOLECULE
ZINC06523896
   10    10     0     0     0
SMALL
USER_CHARGES

@<TRIPOS>ATOM
      1 C1         -0.0158    1.3174    0.0093 C.2       1 <0>         0.0143
      2 C2          1.2846    1.9517    0.0003 C.2       1 <0>         0.4866
      3 N1          2.3090    1.0721   -0.0142 N.am      1 <0>        -0.7500
      4 S1          1.5599   -0.4203   -0.0151 S.3       1 <0>         0.3709
      5 N2          0.0021   -0.0041    0.0020 N.2       1 <0>        -0.3626
      6 O1          1.4402    3.1614    0.0053 O.2       1 <0>        -0.4668
      7 C3         -1.2650    2.0862    0.0312 C.2       1 <0>         0.5563
      8 O2         -2.3419    1.5042    0.0430 O.co2     1 <0>        -0.6521
      9 O3         -1.2305    3.3099    0.0376 O.co2     1 <0>        -0.6404
     10 H1          3.2600    1.2630   -0.0223 H         1 <0>         0.4437
@<TRIPOS>BOND
     1    1    5 2
     2    1    2 1
     3    1    7 1
     4    2    3 am
     5    2    6 2
     6    3    4 1
     7    3   10 1
     8    4    5 1
     9    7    8 2
    10    7    9 1
@<TRIPOS>MOLECULE
ZINC13435956
   47    49     0     0     0
SMALL
USER_CHARGES
7-benzyl-2,3-dihydroxy-6-methyl-4-propyl-naphthalene-1-carboxylic acid
@<TRIPOS>ATOM
      1 C1          3.9422    4.4196   -4.4094 C.3       1 <0>        -0.1498
      2 C2          3.3077    4.1134   -3.0512 C.3       1 <0>        -0.1191
      3 C3          3.7008    2.7018   -2.6113 C.3       1 <0>        -0.0710
      4 C4          3.0759    2.4002   -1.2735 C.ar      1 <0>        -0.1146
      5 C5          3.7756    2.7122   -0.0933 C.ar      1 <0>        -0.0320
      6 C6          5.0500    3.3020   -0.1380 C.ar      1 <0>        -0.1162
      7 C7          5.6998    3.5915    1.0237 C.ar      1 <0>        -0.0745
      8 C8          5.1201    3.3113    2.2579 C.ar      1 <0>        -0.0895
      9 C9          3.8845    2.7392    2.3371 C.ar      1 <0>        -0.0650
     10 C10         3.1890    2.4291    1.1632 C.ar      1 <0>        -0.0342
     11 C11         1.8588    1.8205    1.2040 C.ar      1 <0>        -0.0735
     12 C12         1.2198    1.5310   -0.0014 C.ar      1 <0>         0.0745
     13 C13         1.8410    1.8297   -1.2213 C.ar      1 <0>         0.1036
     14 O1          1.1943    1.5420   -2.3822 O.3       1 <0>        -0.4923
     15 O2         -0.0110    0.9628    0.0073 O.3       1 <0>        -0.4811
     16 C14         1.2121    1.5167    2.4874 C.2       1 <0>         0.5057
     17 O3          1.3855    0.4349    3.0144 O.co2     1 <0>        -0.6266
     18 C15         5.8678    3.6440    3.5233 C.3       1 <0>        -0.0437
     19 C16         5.6176    5.0839    3.8908 C.ar      1 <0>        -0.0695
     20 C17         6.4565    6.0744    3.4154 C.ar      1 <0>        -0.1218
     21 C18         6.2242    7.3957    3.7485 C.ar      1 <0>        -0.1241
     22 C19         5.1588    7.7255    4.5652 C.ar      1 <0>        -0.1285
     23 C20         4.3232    6.7345    5.0453 C.ar      1 <0>        -0.1162
     24 C21         4.5524    5.4137    4.7079 C.ar      1 <0>        -0.1090
     25 C22         7.0666    4.2241    0.9719 C.3       1 <0>        -0.1176
     26 H1          3.6621    5.4253   -4.7228 H         1 <0>         0.0521
     27 H2          5.0270    4.3536   -4.3268 H         1 <0>         0.0526
     28 H3          3.5893    3.6979   -5.1462 H         1 <0>         0.0535
     29 H4          2.2229    4.1794   -3.1338 H         1 <0>         0.0591
     30 H5          3.6606    4.8351   -2.3145 H         1 <0>         0.0634
     31 H6          4.7857    2.6358   -2.5287 H         1 <0>         0.0712
     32 H7          3.3479    1.9801   -3.3480 H         1 <0>         0.0771
     33 H8          5.5122    3.5243   -1.0884 H         1 <0>         0.1255
     34 H9          3.4456    2.5263    3.3006 H         1 <0>         0.1299
     35 H10         0.6368    2.2607   -2.7103 H         1 <0>         0.3848
     36 H11         0.0021   -0.0041    0.0020 H         1 <0>         0.3843
     37 H12         5.5222    2.9978    4.3302 H         1 <0>         0.0824
     38 H13         6.9352    3.4894    3.3659 H         1 <0>         0.0838
     39 H14         7.2913    5.8163    2.7806 H         1 <0>         0.1235
     40 H15         6.8772    8.1700    3.3738 H         1 <0>         0.1173
     41 H16         4.9794    8.7575    4.8286 H         1 <0>         0.1170
     42 H17         3.4910    6.9921    5.6837 H         1 <0>         0.1210
     43 H18         3.8996    4.6394    5.0829 H         1 <0>         0.1250
     44 H19         6.9648    5.3093    0.9683 H         1 <0>         0.0711
     45 H20         7.6428    3.9161    1.8445 H         1 <0>         0.0687
     46 H21         7.5809    3.9043    0.0656 H         1 <0>         0.0625
     47 O4          0.4263    2.4376    3.0811 O.co2     1 <0>        -0.7399
@<TRIPOS>BOND
     1    1    2 1
     2    1   26 1
     3    1   27 1
     4    1   28 1
     5    2    3 1
     6    2   29 1
     7    2   30 1
     8    3    4 1
     9    3   31 1
    10    3   32 1
    11    4   13 ar
    12    4    5 ar
    13    5   10 ar
    14    5    6 ar
    15    6    7 ar
    16    6   33 1
    17    7    8 ar
    18    7   25 1
    19    8    9 ar
    20    8   18 1
    21    9   10 ar
    22    9   34 1
    23   10   11 ar
    24   11   12 ar
    25   11   16 1
    26   12   13 ar
    27   12   15 1
    28   13   14 1
    29   14   35 1
    30   15   36 1
    31   16   17 2
    32   16   47 1
    33   18   19 1
    34   18   37 1
    35   18   38 1
    36   19   24 ar
    37   19   20 ar
    38   20   21 ar
    39   20   39 1
    40   21   22 ar
    41   21   40 1
    42   22   23 ar
    43   22   41 1
    44   23   24 ar
    45   23   42 1
    46   24   43 1
    47   25   44 1
    48   25   45 1
    49   25   46 1
