@<TRIPOS>MOLECULE
ZINC00152137
   38    40     0     0     0
SMALL
USER_CHARGES

@<TRIPOS>ATOM
      1 C1         -0.1023    1.6148    0.6091 C.3       1 <0>        -0.1228
      2 C2          1.3299    2.1531    0.5742 C.3       1 <0>        -0.1369
      3 C3          2.1134    1.5861    1.7623 C.3       1 <0>         0.1264
      4 N1          2.0189    0.1201    1.7347 N.am      1 <0>        -0.5858
      5 C4          0.6887   -0.5011    1.6755 C.3       1 <0>         0.1075
      6 C5         -0.0788    0.0893    0.4884 C.3       1 <0>        -0.1362
      7 C6          3.1313   -0.6403    1.7627 C.2       1 <0>         0.6399
      8 O1          4.2257   -0.1144    1.8113 O.2       1 <0>        -0.5103
      9 O2          3.0299   -1.9828    1.7369 O.3       1 <0>        -0.2589
     10 C7          4.1788   -2.7107    1.7668 C.2       1 <0>         0.2477
     11 C8          4.1642   -4.0954    1.7381 C.2       1 <0>         0.3200
     12 N2          5.3346   -4.6969    1.7709 N.2       1 <0>        -0.4214
     13 S1          6.4237   -3.4278    1.8387 S.3       1 <0>         0.4318
     14 N3          5.3604   -2.1354    1.8189 N.2       1 <0>        -0.4147
     15 N4          2.9663   -4.8181    1.6777 N.pl3     1 <0>        -0.6386
     16 C9          2.3682   -5.1864    0.3847 C.3       1 <0>         0.1141
     17 C10         2.0552   -6.6869    0.4067 C.3       1 <0>         0.0462
     18 O3          1.2845   -6.9899    1.5720 O.3       1 <0>        -0.3775
     19 C11         1.9606   -6.7303    2.8046 C.3       1 <0>         0.0461
     20 C12         2.2717   -5.2369    2.9055 C.3       1 <0>         0.1140
     21 H1         -0.5736    1.8973    1.5505 H         1 <0>         0.0677
     22 H2         -0.6689    2.0361   -0.2212 H         1 <0>         0.0699
     23 H3          1.8099    1.8498   -0.3562 H         1 <0>         0.0690
     24 H4          1.3112    3.2411    0.6367 H         1 <0>         0.0830
     25 H5          3.1585    1.8864    1.6875 H         1 <0>         0.0987
     26 H6          1.6886    1.9621    2.6930 H         1 <0>         0.0776
     27 H7          0.7939   -1.5780    1.5434 H         1 <0>         0.0916
     28 H8          0.1479   -0.2952    2.5991 H         1 <0>         0.0763
     29 H9         -1.1001   -0.2915    0.4898 H         1 <0>         0.0812
     30 H10         0.4146   -0.1945   -0.4412 H         1 <0>         0.0682
     31 H11         1.4486   -4.6217    0.2315 H         1 <0>         0.0724
     32 H12         3.0710   -4.9697   -0.4199 H         1 <0>         0.0790
     33 H13         1.4875   -6.9535   -0.4848 H         1 <0>         0.1048
     34 H14         2.9866   -7.2528    0.4288 H         1 <0>         0.0569
     35 H15         1.3247   -7.0282    3.6383 H         1 <0>         0.1052
     36 H16         2.8915   -7.2964    2.8355 H         1 <0>         0.0565
     37 H17         2.9105   -5.0537    3.7694 H         1 <0>         0.0793
     38 H18         1.3421   -4.6774    3.0104 H         1 <0>         0.0722
@<TRIPOS>BOND
     1    1    6 1
     2    1    2 1
     3    1   21 1
     4    1   22 1
     5    2    3 1
     6    2   23 1
     7    2   24 1
     8    3    4 1
     9    3   25 1
    10    3   26 1
    11    4    5 1
    12    4    7 am
    13    5    6 1
    14    5   27 1
    15    5   28 1
    16    6   29 1
    17    6   30 1
    18    7    8 2
    19    7    9 1
    20    9   10 1
    21   10   14 2
    22   10   11 1
    23   11   12 2
    24   11   15 1
    25   12   13 1
    26   13   14 1
    27   15   20 1
    28   15   16 1
    29   16   17 1
    30   16   31 1
    31   16   32 1
    32   17   18 1
    33   17   33 1
    34   17   34 1
    35   18   19 1
    36   19   20 1
    37   19   35 1
    38   19   36 1
    39   20   37 1
    40   20   38 1
@<TRIPOS>MOLECULE
ZINC00037002
   36    38     0     0     0
SMALL
USER_CHARGES

@<TRIPOS>ATOM
      1 C1         -0.5117    0.2807    1.3512 C.3       1 <0>         0.1140
      2 C2         -0.3547    1.7815    1.6215 C.3       1 <0>         0.0463
      3 O1          0.9972    2.1675    1.3624 O.3       1 <0>        -0.3774
      4 C3          1.4076    1.9866    0.0049 C.3       1 <0>         0.0463
      5 C4          1.3408    0.4963   -0.3482 C.3       1 <0>         0.1139
      6 N1          0.0021   -0.0041    0.0020 N.pl3     1 <0>        -0.6392
      7 C5         -0.7603   -0.7302   -0.9212 C.2       1 <0>         0.3203
      8 C6         -0.6799   -2.1104   -1.0067 C.2       1 <0>         0.2466
      9 N2         -1.4411   -2.6895   -1.9095 N.2       1 <0>        -0.4157
     10 S1         -2.2442   -1.4069   -2.6244 S.3       1 <0>         0.4360
     11 N3         -1.5945   -0.1370   -1.7488 N.2       1 <0>        -0.4205
     12 O2          0.1445   -2.8300   -0.1986 O.3       1 <0>        -0.2584
     13 C7          0.1635   -4.1683   -0.3457 C.2       1 <0>         0.6427
     14 O3         -0.5423   -4.6978   -1.1813 O.2       1 <0>        -0.5066
     15 N4          0.9654   -4.9206    0.4337 N.am      1 <0>        -0.5914
     16 C8          1.8243   -4.3026    1.4564 C.3       1 <0>         0.0733
     17 C9          1.5974   -5.0337    2.7845 C.3       1 <0>         0.0470
     18 O4          1.7621   -6.4393    2.5821 O.3       1 <0>        -0.3754
     19 C10         0.8205   -7.0140    1.6727 C.3       1 <0>         0.0467
     20 C11         1.0034   -6.3847    0.2914 C.3       1 <0>         0.0931
     21 H1          0.0572   -0.2865    2.0879 H         1 <0>         0.0722
     22 H2         -1.5648    0.0056    1.4087 H         1 <0>         0.0791
     23 H3         -1.0246    2.3411    0.9687 H         1 <0>         0.0571
     24 H4         -0.6001    1.9916    2.6625 H         1 <0>         0.1050
     25 H5          0.7441    2.5469   -0.6538 H         1 <0>         0.0571
     26 H6          2.4300    2.3442   -0.1171 H         1 <0>         0.1051
     27 H7          1.5145    0.3640   -1.4161 H         1 <0>         0.0794
     28 H8          2.0962   -0.0492    0.2175 H         1 <0>         0.0725
     29 H9          2.8697   -4.3931    1.1614 H         1 <0>         0.0862
     30 H10         1.5636   -3.2501    1.5675 H         1 <0>         0.1019
     31 H11         2.3215   -4.6846    3.5206 H         1 <0>         0.1133
     32 H12         0.5876   -4.8333    3.1426 H         1 <0>         0.0586
     33 H13         0.9856   -8.0895    1.6089 H         1 <0>         0.1158
     34 H14        -0.1922   -6.8207    2.0267 H         1 <0>         0.0593
     35 H15         0.1993   -6.7104   -0.3685 H         1 <0>         0.1089
     36 H16         1.9647   -6.6885   -0.1229 H         1 <0>         0.0871
@<TRIPOS>BOND
     1    1    6 1
     2    1    2 1
     3    1   21 1
     4    1   22 1
     5    2    3 1
     6    2   23 1
     7    2   24 1
     8    3    4 1
     9    4    5 1
    10    4   25 1
    11    4   26 1
    12    5    6 1
    13    5   27 1
    14    5   28 1
    15    6    7 1
    16    7   11 2
    17    7    8 1
    18    8    9 2
    19    8   12 1
    20    9   10 1
    21   10   11 1
    22   12   13 1
    23   13   14 2
    24   13   15 am
    25   15   20 1
    26   15   16 1
    27   16   17 1
    28   16   29 1
    29   16   30 1
    30   17   18 1
    31   17   31 1
    32   17   32 1
    33   18   19 1
    34   19   20 1
    35   19   33 1
    36   19   34 1
    37   20   35 1
    38   20   36 1
@<TRIPOS>MOLECULE
ZINC00795230
   38    40     0     0     0
SMALL
USER_CHARGES

@<TRIPOS>ATOM
      1 C1          0.5067    2.4623    0.9866 C.3       1 <0>        -0.1161
      2 C2          1.2411    2.2034    2.3041 C.3       1 <0>        -0.1377
      3 C3          1.3880    0.6931    2.5141 C.3       1 <0>         0.1489
      4 N1          2.0433    0.1131    1.3339 N.pl3     1 <0>        -0.6353
      5 C4          1.4703    0.3763    0.0069 C.3       1 <0>         0.1490
      6 C5          1.3225    1.8902   -0.1750 C.3       1 <0>        -0.1377
      7 C6          3.1925   -0.6751    1.4712 C.2       1 <0>         0.3218
      8 C7          3.1182   -2.0478    1.6409 C.2       1 <0>         0.2454
      9 N2          4.2604   -2.6890    1.7590 N.2       1 <0>        -0.4167
     10 S1          5.4048   -1.4731    1.6444 S.3       1 <0>         0.4279
     11 N3          4.3994   -0.1506    1.4402 N.2       1 <0>        -0.4190
     12 O1          1.9248   -2.6994    1.6835 O.3       1 <0>        -0.2581
     13 C8          1.9396   -4.0353    1.8515 C.2       1 <0>         0.6425
     14 O2          2.9981   -4.6224    1.9597 O.2       1 <0>        -0.5068
     15 N4          0.7806   -4.7214    1.8996 N.am      1 <0>        -0.5918
     16 C9         -0.5131   -4.0332    1.7648 C.3       1 <0>         0.0734
     17 C10        -1.3382   -4.7597    0.6964 C.3       1 <0>         0.0469
     18 O3         -1.3901   -6.1537    1.0091 O.3       1 <0>        -0.3757
     19 C11        -0.1163   -6.8026    1.0038 C.3       1 <0>         0.0468
     20 C12         0.7715   -6.1814    2.0823 C.3       1 <0>         0.0932
     21 H1         -0.4710    1.9813    1.0153 H         1 <0>         0.0637
     22 H2          0.3792    3.5357    0.8468 H         1 <0>         0.0636
     23 H3          2.2287    2.6632    2.2666 H         1 <0>         0.0675
     24 H4          0.6711    2.6316    3.1286 H         1 <0>         0.0725
     25 H5          1.9957    0.5046    3.3991 H         1 <0>         0.0678
     26 H6          0.4029    0.2445    2.6424 H         1 <0>         0.0634
     27 H7          2.1323   -0.0213   -0.7624 H         1 <0>         0.0676
     28 H8          0.4919   -0.0981   -0.0693 H         1 <0>         0.0630
     29 H9          0.8104    2.0954   -1.1150 H         1 <0>         0.0724
     30 H10         2.3093    2.3529   -0.1892 H         1 <0>         0.0676
     31 H11        -1.0429   -4.0575    2.7171 H         1 <0>         0.0857
     32 H12        -0.3490   -2.9991    1.4617 H         1 <0>         0.1021
     33 H13        -2.3492   -4.3527    0.6780 H         1 <0>         0.1128
     34 H14        -0.8719   -4.6225   -0.2793 H         1 <0>         0.0586
     35 H15        -0.2482   -7.8654    1.2067 H         1 <0>         0.1156
     36 H16         0.3544   -6.6729    0.0293 H         1 <0>         0.0593
     37 H17         1.7859   -6.5693    1.9894 H         1 <0>         0.1088
     38 H18         0.3734   -6.4257    3.0672 H         1 <0>         0.0868
@<TRIPOS>BOND
     1    1    6 1
     2    1    2 1
     3    1   21 1
     4    1   22 1
     5    2    3 1
     6    2   23 1
     7    2   24 1
     8    3    4 1
     9    3   25 1
    10    3   26 1
    11    4    5 1
    12    4    7 1
    13    5    6 1
    14    5   27 1
    15    5   28 1
    16    6   29 1
    17    6   30 1
    18    7   11 2
    19    7    8 1
    20    8    9 2
    21    8   12 1
    22    9   10 1
    23   10   11 1
    24   12   13 1
    25   13   14 2
    26   13   15 am
    27   15   20 1
    28   15   16 1
    29   16   17 1
    30   16   31 1
    31   16   32 1
    32   17   18 1
    33   17   33 1
    34   17   34 1
    35   18   19 1
    36   19   20 1
    37   19   35 1
    38   19   36 1
    39   20   37 1
    40   20   38 1
