@<TRIPOS>MOLECULE
ZINC08214635
   88    88     0     0     0
SMALL
USER_CHARGES

@<TRIPOS>ATOM
      1 C1         -0.0187    1.5258    0.0104 C.3       1 <0>        -0.1544
      2 C2          0.0021   -0.0041    0.0020 C.3       1 <0>        -0.1261
      3 C3          0.7421   -0.5109    1.2415 C.3       1 <0>        -0.1213
      4 C4          0.7628   -2.0407    1.2331 C.3       1 <0>        -0.1211
      5 C5          1.5028   -2.5476    2.4727 C.3       1 <0>        -0.1207
      6 C6          1.5236   -4.0774    2.4642 C.3       1 <0>        -0.1205
      7 C7          2.2636   -4.5842    3.7038 C.3       1 <0>        -0.1205
      8 C8          2.2843   -6.1141    3.6954 C.3       1 <0>        -0.1201
      9 C9          3.0243   -6.6209    4.9349 C.3       1 <0>        -0.1193
     10 C10         3.0450   -8.1508    4.9265 C.3       1 <0>        -0.1194
     11 C11         3.7850   -8.6576    6.1660 C.3       1 <0>        -0.1168
     12 C12         3.8058  -10.1874    6.1576 C.3       1 <0>         0.0940
     13 H1          4.2361  -10.5398    5.2201 H         1 <0>         0.0875
     14 C13         4.6512  -10.6925    7.3285 C.3       1 <0>        -0.1574
     15 C14         4.7753  -12.2153    7.2485 C.3       1 <0>         0.0556
     16 H2          5.0062  -12.5666    6.2429 H         1 <0>         0.1361
     17 C15         5.6887  -12.8107    8.3277 C.3       1 <0>        -0.1706
     18 H3          6.4145  -12.1160    8.7504 H         1 <0>         0.1148
     19 C16         4.3489  -12.8371    9.0268 C.2       1 <0>         0.4711
     20 O1          4.0091  -12.8049   10.1859 O.2       1 <0>        -0.4341
     21 O2          3.6781  -12.9098    7.8576 O.3       1 <0>        -0.3020
     22 C17         6.2714  -14.1854    7.9938 C.3       1 <0>        -0.0893
     23 C18         7.2541  -14.6027    9.0897 C.3       1 <0>        -0.1208
     24 C19         7.8368  -15.9774    8.7559 C.3       1 <0>        -0.1201
     25 C20         8.8195  -16.3947    9.8518 C.3       1 <0>        -0.1209
     26 C21         9.4022  -17.7694    9.5179 C.3       1 <0>        -0.1259
     27 C22        10.3849  -18.1866   10.6139 C.3       1 <0>        -0.1542
     28 O3          2.4714  -10.6826    6.2851 O.3       1 <0>        -0.3440
     29 C23         2.2014  -11.8629    5.7056 C.2       1 <0>         0.4567
     30 O4          3.0693  -12.4559    5.1098 O.2       1 <0>        -0.4778
     31 C24         0.8158  -12.4483    5.7980 C.3       1 <0>         0.1602
     32 H4          0.0777  -11.6545    5.6837 H         1 <0>         0.1156
     33 C25         0.6358  -13.1196    7.1610 C.3       1 <0>        -0.1217
     34 C26        -0.8084  -13.6043    7.3040 C.3       1 <0>        -0.0910
     35 C27        -0.9574  -14.3844    8.6117 C.3       1 <0>        -0.1468
     36 C28        -1.7516  -12.3997    7.3184 C.3       1 <0>        -0.1519
     37 N1          0.6335  -13.4414    4.7366 N.am      1 <0>        -0.7301
     38 C29         1.4394  -14.5200    4.6772 C.2       1 <0>         0.4919
     39 O5          2.3155  -14.6685    5.5026 O.2       1 <0>        -0.5112
     40 H5          1.0039    1.9031    0.0027 H         1 <0>         0.0533
     41 H6         -0.5459    1.8868   -0.8726 H         1 <0>         0.0535
     42 H7         -0.5289    1.8773    0.9072 H         1 <0>         0.0534
     43 H8         -1.0205   -0.3814    0.0098 H         1 <0>         0.0602
     44 H9          0.5123   -0.3556   -0.8948 H         1 <0>         0.0602
     45 H10         1.7647   -0.1336    1.2338 H         1 <0>         0.0605
     46 H11         0.2319   -0.1594    2.1383 H         1 <0>         0.0606
     47 H12        -0.2598   -2.4180    1.2409 H         1 <0>         0.0605
     48 H13         1.2730   -2.3923    0.3363 H         1 <0>         0.0604
     49 H14         2.5254   -2.1703    2.4649 H         1 <0>         0.0604
     50 H15         0.9926   -2.1961    3.3695 H         1 <0>         0.0606
     51 H16         0.5010   -4.4547    2.4720 H         1 <0>         0.0604
     52 H17         2.0337   -4.4289    1.5675 H         1 <0>         0.0602
     53 H18         3.2861   -4.2070    3.6960 H         1 <0>         0.0605
     54 H19         1.7534   -4.2327    4.6006 H         1 <0>         0.0609
     55 H20         1.2617   -6.4914    3.7031 H         1 <0>         0.0608
     56 H21         2.7945   -6.4656    2.7986 H         1 <0>         0.0602
     57 H22         4.0469   -6.2436    4.9271 H         1 <0>         0.0617
     58 H23         2.5141   -6.2694    5.8317 H         1 <0>         0.0629
     59 H24         2.0224   -8.5280    4.9342 H         1 <0>         0.0667
     60 H25         3.5552   -8.5023    4.0297 H         1 <0>         0.0607
     61 H26         4.8076   -8.2803    6.1583 H         1 <0>         0.0846
     62 H27         3.2748   -8.3061    7.0628 H         1 <0>         0.0771
     63 H28         5.6436  -10.2441    7.2801 H         1 <0>         0.1069
     64 H29         4.1729  -10.4157    8.2680 H         1 <0>         0.0834
     65 H30         5.4652  -14.9163    7.9311 H         1 <0>         0.0763
     66 H31         6.7927  -14.1366    7.0377 H         1 <0>         0.0834
     67 H32         8.0603  -13.8718    9.1524 H         1 <0>         0.0664
     68 H33         6.7328  -14.6515   10.0458 H         1 <0>         0.0650
     69 H34         7.0306  -16.7083    8.6932 H         1 <0>         0.0629
     70 H35         8.3581  -15.9286    7.7998 H         1 <0>         0.0634
     71 H36         9.6257  -15.6638    9.9145 H         1 <0>         0.0614
     72 H37         8.2982  -16.4435   10.8079 H         1 <0>         0.0615
     73 H38         8.5960  -18.5003    9.4553 H         1 <0>         0.0607
     74 H39         9.9235  -17.7206    8.5619 H         1 <0>         0.0606
     75 H40         9.8636  -18.2354   11.5699 H         1 <0>         0.0535
     76 H41        10.8000  -19.1660   10.3760 H         1 <0>         0.0535
     77 H42        11.1911  -17.4557   10.6765 H         1 <0>         0.0533
     78 H43         1.3137  -13.9695    7.2398 H         1 <0>         0.0982
     79 H44         0.8584  -12.4028    7.9514 H         1 <0>         0.0771
     80 H45        -1.0591  -14.2520    6.4640 H         1 <0>         0.0707
     81 H46        -0.7067  -13.7367    9.4518 H         1 <0>         0.0555
     82 H47        -1.9863  -14.7297    8.7136 H         1 <0>         0.0555
     83 H48        -0.2855  -15.2426    8.6015 H         1 <0>         0.0543
     84 H49        -1.5008  -11.7520    8.1584 H         1 <0>         0.0573
     85 H50        -1.6454  -11.8439    6.3868 H         1 <0>         0.0527
     86 H51        -2.7804  -12.7450    7.4203 H         1 <0>         0.0562
     87 H52        -0.0673  -13.3226    4.0765 H         1 <0>         0.4072
     88 H53         1.3049  -15.2522    3.8947 H         1 <0>         0.1291
@<TRIPOS>BOND
     1    1    2 1
     2    1   40 1
     3    1   41 1
     4    1   42 1
     5    2    3 1
     6    2   43 1
     7    2   44 1
     8    3    4 1
     9    3   45 1
    10    3   46 1
    11    4    5 1
    12    4   47 1
    13    4   48 1
    14    5    6 1
    15    5   49 1
    16    5   50 1
    17    6    7 1
    18    6   51 1
    19    6   52 1
    20    7    8 1
    21    7   53 1
    22    7   54 1
    23    8    9 1
    24    8   55 1
    25    8   56 1
    26    9   10 1
    27    9   57 1
    28    9   58 1
    29   10   11 1
    30   10   59 1
    31   10   60 1
    32   11   12 1
    33   11   61 1
    34   11   62 1
    35   12   13 1
    36   12   14 1
    37   12   28 1
    38   14   15 1
    39   14   63 1
    40   14   64 1
    41   15   16 1
    42   15   21 1
    43   15   17 1
    44   17   18 1
    45   17   19 1
    46   17   22 1
    47   19   20 2
    48   19   21 1
    49   22   23 1
    50   22   65 1
    51   22   66 1
    52   23   24 1
    53   23   67 1
    54   23   68 1
    55   24   25 1
    56   24   69 1
    57   24   70 1
    58   25   26 1
    59   25   71 1
    60   25   72 1
    61   26   27 1
    62   26   73 1
    63   26   74 1
    64   27   75 1
    65   27   76 1
    66   27   77 1
    67   28   29 1
    68   29   30 2
    69   29   31 1
    70   31   32 1
    71   31   33 1
    72   31   37 1
    73   33   34 1
    74   33   78 1
    75   33   79 1
    76   34   35 1
    77   34   36 1
    78   34   80 1
    79   35   81 1
    80   35   82 1
    81   35   83 1
    82   36   84 1
    83   36   85 1
    84   36   86 1
    85   37   38 am
    86   37   87 1
    87   38   39 2
    88   38   88 1
