@<TRIPOS>MOLECULE
ZINC00001131
   18    19     0     0     0
SMALL
USER_CHARGES

@<TRIPOS>ATOM
      1 C1         -0.0168    1.3885    0.0097 C.ar      1 <0>        -0.1593
      2 C2          1.1577    2.0864    0.0022 C.ar      1 <0>        -0.0549
      3 C3          2.3623    1.3593   -0.0132 C.ar      1 <0>        -0.0857
      4 C4          3.6079    2.0102   -0.0210 C.ar      1 <0>        -0.0139
      5 C5          4.7560    1.2770   -0.0355 C.ar      1 <0>        -0.0845
      6 C6          4.7161   -0.1159   -0.0432 C.ar      1 <0>        -0.0482
      7 C7          3.5148   -0.7876   -0.0359 C.ar      1 <0>         0.1564
      8 C8          2.3091   -0.0565   -0.0203 C.ar      1 <0>         0.1205
      9 N1          1.1266   -0.6782   -0.0118 N.ar      1 <0>        -0.4548
     10 C9          0.0021   -0.0041    0.0020 C.ar      1 <0>         0.1401
     11 O1          3.4907   -2.1465   -0.0440 O.3       1 <0>        -0.4646
     12 Cl1         6.2006   -1.0155   -0.0629 Cl        1 <0>        -0.0310
     13 Cl2         3.6833    3.7445   -0.0128 Cl        1 <0>        -0.0401
     14 H1         -0.9590    1.9162    0.0260 H         1 <0>         0.1478
     15 H2          1.1614    3.1664    0.0076 H         1 <0>         0.1491
     16 H3          5.7105    1.7824   -0.0415 H         1 <0>         0.1547
     17 H4         -0.9340   -0.5427    0.0081 H         1 <0>         0.1694
     18 H5          3.4922   -2.5452    0.8370 H         1 <0>         0.3990
@<TRIPOS>BOND
     1    1   10 ar
     2    1    2 ar
     3    1   14 1
     4    2    3 ar
     5    2   15 1
     6    3    8 ar
     7    3    4 ar
     8    4    5 ar
     9    4   13 1
    10    5    6 ar
    11    5   16 1
    12    6    7 ar
    13    6   12 1
    14    7    8 ar
    15    7   11 1
    16    8    9 ar
    17    9   10 ar
    18   10   17 1
    19   11   18 1
@<TRIPOS>MOLECULE
ZINC00001131
   17    18     0     0     0
SMALL
USER_CHARGES

@<TRIPOS>ATOM
      1 C1         -0.0168    1.3885    0.0097 C.ar      1 <0>        -0.1554
      2 C2          1.1577    2.0864    0.0022 C.ar      1 <0>        -0.1059
      3 C3          2.3623    1.3593   -0.0132 C.ar      1 <0>        -0.0242
      4 C4          3.6079    2.0102   -0.0210 C.ar      1 <0>        -0.1776
      5 C5          4.7560    1.2770   -0.0355 C.ar      1 <0>         0.0001
      6 C6          4.7161   -0.1159   -0.0432 C.ar      1 <0>        -0.2231
      7 C7          3.5148   -0.7876   -0.0359 C.ar      1 <0>         0.3209
      8 C8          2.3091   -0.0565   -0.0203 C.ar      1 <0>         0.0496
      9 N1          1.1266   -0.6782   -0.0118 N.ar      1 <0>        -0.4127
     10 C9          0.0021   -0.0041    0.0020 C.ar      1 <0>         0.0501
     11 O1          3.4907   -2.1465   -0.0440 O.3       1 <0>        -0.6317
     12 Cl1         6.2006   -1.0155   -0.0629 Cl        1 <0>        -0.0973
     13 Cl2         3.6833    3.7445   -0.0128 Cl        1 <0>        -0.1069
     14 H1         -0.9590    1.9162    0.0260 H         1 <0>         0.1230
     15 H2          1.1614    3.1664    0.0076 H         1 <0>         0.1290
     16 H3          5.7105    1.7824   -0.0415 H         1 <0>         0.1171
     17 H4         -0.9340   -0.5427    0.0081 H         1 <0>         0.1447
@<TRIPOS>BOND
     1    1   10 ar
     2    1    2 ar
     3    1   14 1
     4    2    3 ar
     5    2   15 1
     6    3    8 ar
     7    3    4 ar
     8    4    5 ar
     9    4   13 1
    10    5    6 ar
    11    5   16 1
    12    6    7 ar
    13    6   12 1
    14    7    8 ar
    15    7   11 1
    16    8    9 ar
    17    9   10 ar
    18   10   17 1
@<TRIPOS>MOLECULE
ZINC02413450
   42    45     0     0     0
SMALL
USER_CHARGES

@<TRIPOS>ATOM
      1 C1         -0.0164    1.3572    0.0095 C.ar      1 <0>        -0.1130
      2 C2          1.1676    2.0910    0.0021 C.ar      1 <0>        -0.1041
      3 C3          2.3788    1.4660   -0.0132 C.ar      1 <0>        -0.1158
      4 C4          2.4353    0.0669   -0.0212 C.ar      1 <0>        -0.0143
      5 C5          1.2332   -0.6823   -0.0132 C.ar      1 <0>        -0.0573
      6 C6          0.0021   -0.0041    0.0020 C.ar      1 <0>        -0.1033
      7 C7          1.2941   -2.0858   -0.0204 C.ar      1 <0>        -0.0669
      8 C8          2.4940   -2.7284   -0.0348 C.ar      1 <0>        -0.1289
      9 C9          3.6963   -2.0346   -0.0430 C.ar      1 <0>        -0.0581
     10 C10         3.7107   -0.6458   -0.0371 C.ar      1 <0>        -0.0319
     11 C11         4.9857    0.0935   -0.0463 C.2       1 <0>         0.2275
     12 N1          5.1275    1.3980   -0.0358 N.2       1 <0>        -0.2662
     13 N2          6.3800    1.6918   -0.0484 N.2       1 <0>        -0.2822
     14 C12         7.0885    0.5857   -0.0674 C.2       1 <0>         0.1310
     15 O1          6.2246   -0.4474   -0.0610 O.3       1 <0>        -0.1966
     16 S1          8.8468    0.4743   -0.0900 S.3       1 <0>         0.0883
     17 C13         9.3963    2.2030   -0.0798 C.3       1 <0>        -0.0003
     18 C14        10.8674    2.2504   -0.0974 C.1       1 <0>        -0.1384
     19 C15        12.0407    2.2881   -0.1114 C.1       1 <0>        -0.1328
     20 C16        13.5119    2.3355   -0.1289 C.3       1 <0>         0.1841
     21 O2         13.9447    3.6973   -0.1209 O.3       1 <0>        -0.3436
     22 C17        15.2756    3.9170   -0.1350 C.2       1 <0>         0.5617
     23 O3         16.0470    2.9768   -0.1536 O.2       1 <0>        -0.4897
     24 C18        15.7915    5.2870   -0.1280 C.2       1 <0>        -0.2624
     25 C19        17.1076    5.7262   -0.1455 C.2       1 <0>        -0.0501
     26 C20        17.2820    7.0887   -0.1326 C.2       1 <0>        -0.1919
     27 C21        16.1902    7.8930   -0.1046 C.2       1 <0>        -0.2186
     28 S2         14.8924    6.8262   -0.1026 S.3       1 <0>         0.2609
     29 H1         -0.9634    1.8761    0.0259 H         1 <0>         0.1273
     30 H2          1.1254    3.1702    0.0083 H         1 <0>         0.1282
     31 H3          3.2895    2.0464   -0.0195 H         1 <0>         0.1597
     32 H4         -0.9240   -0.5597    0.0082 H         1 <0>         0.1328
     33 H5          0.3798   -2.6606   -0.0140 H         1 <0>         0.1358
     34 H6          2.5110   -3.8083   -0.0396 H         1 <0>         0.1354
     35 H7          4.6287   -2.5795   -0.0540 H         1 <0>         0.1353
     36 H8          9.0058    2.7135   -0.9602 H         1 <0>         0.1308
     37 H9          9.0276    2.6962    0.8196 H         1 <0>         0.1292
     38 H10        13.9024    1.8250    0.7514 H         1 <0>         0.1035
     39 H11        13.8806    1.8423   -1.0283 H         1 <0>         0.1042
     40 H12        17.9417    5.0405   -0.1674 H         1 <0>         0.1537
     41 H13        18.2748    7.5137   -0.1444 H         1 <0>         0.1435
     42 H14        16.1616    8.9726   -0.0912 H         1 <0>         0.1936
@<TRIPOS>BOND
     1    1    6 ar
     2    1    2 ar
     3    1   29 1
     4    2    3 ar
     5    2   30 1
     6    3    4 ar
     7    3   31 1
     8    4   10 ar
     9    4    5 ar
    10    5    6 ar
    11    5    7 ar
    12    6   32 1
    13    7    8 ar
    14    7   33 1
    15    8    9 ar
    16    8   34 1
    17    9   10 ar
    18    9   35 1
    19   10   11 1
    20   11   15 1
    21   11   12 2
    22   12   13 1
    23   13   14 2
    24   14   15 1
    25   14   16 1
    26   16   17 1
    27   17   18 1
    28   17   36 1
    29   17   37 1
    30   18   19 3
    31   19   20 1
    32   20   21 1
    33   20   38 1
    34   20   39 1
    35   21   22 1
    36   22   23 2
    37   22   24 1
    38   24   28 1
    39   24   25 2
    40   25   26 1
    41   25   40 1
    42   26   27 2
    43   26   41 1
    44   27   28 1
    45   27   42 1
@<TRIPOS>MOLECULE
ZINC36381526
   39    41     0     0     0
SMALL
USER_CHARGES

@<TRIPOS>ATOM
      1 C1         -0.0169    1.3920    0.0097 C.ar      1 <0>        -0.0520
      2 C2          1.1698    2.0949    0.0021 C.ar      1 <0>        -0.1097
      3 C3          2.3783    1.4189   -0.0130 C.ar      1 <0>        -0.0110
      4 C4          2.4036    0.0343   -0.0212 C.ar      1 <0>        -0.1101
      5 C5          1.2237   -0.6799   -0.0142 C.ar      1 <0>        -0.0690
      6 C6          0.0021   -0.0041    0.0020 C.ar      1 <0>        -0.0244
      7 C7         -1.2654   -0.7631    0.0105 C.2       1 <0>         0.2154
      8 N1         -2.4738   -0.2554    0.0195 N.2       1 <0>        -0.2588
      9 N2         -3.3381   -1.2084    0.0250 N.2       1 <0>        -0.2819
     10 C8         -2.7146   -2.3639    0.0198 C.2       1 <0>         0.1343
     11 O1         -1.3923   -2.1086    0.0046 O.3       1 <0>        -0.1967
     12 S1         -3.4692   -3.9561    0.0240 S.3       1 <0>         0.0906
     13 C9         -5.2477   -3.5988    0.0362 C.3       1 <0>        -0.0008
     14 C10        -6.0021   -4.8627    0.0406 C.1       1 <0>        -0.1396
     15 C11        -6.6038   -5.8708    0.0441 C.1       1 <0>        -0.1325
     16 C12        -7.3582   -7.1348    0.0485 C.3       1 <0>         0.1829
     17 O2         -8.7591   -6.8533    0.0581 O.3       1 <0>        -0.3438
     18 C13        -9.5953   -7.9097    0.0631 C.2       1 <0>         0.5175
     19 O3         -9.1473   -9.0390    0.0595 O.2       1 <0>        -0.4957
     20 C14       -11.0555   -7.6951    0.0731 C.ar      1 <0>        -0.1416
     21 C15       -11.5735   -6.3976    0.0714 C.ar      1 <0>        -0.0297
     22 C16       -12.9379   -6.2032    0.0803 C.ar      1 <0>        -0.1674
     23 C17       -13.7960   -7.2923    0.0913 C.ar      1 <0>         0.1404
     24 C18       -13.2875   -8.5824    0.0930 C.ar      1 <0>        -0.1654
     25 C19       -11.9249   -8.7887    0.0784 C.ar      1 <0>        -0.0215
     26 F1        -15.1326   -7.0959    0.1008 F         1 <0>        -0.1289
     27 Cl1         3.8676    2.3107   -0.0225 Cl        1 <0>        -0.0533
     28 H1         -0.9587    1.9203    0.0260 H         1 <0>         0.1512
     29 H2          1.1564    3.1748    0.0077 H         1 <0>         0.1483
     30 H3          3.3492   -0.4873   -0.0334 H         1 <0>         0.1464
     31 H4          1.2447   -1.7597   -0.0213 H         1 <0>         0.1432
     32 H5         -5.4966   -3.0239    0.9282 H         1 <0>         0.1301
     33 H6         -5.5086   -3.0229   -0.8518 H         1 <0>         0.1301
     34 H7         -7.1092   -7.7096   -0.8435 H         1 <0>         0.1030
     35 H8         -7.0972   -7.7106    0.9364 H         1 <0>         0.1030
     36 H9        -10.9060   -5.5486    0.0636 H         1 <0>         0.1502
     37 H10       -13.3394   -5.2006    0.0790 H         1 <0>         0.1475
     38 H11       -13.9604   -9.4270    0.1019 H         1 <0>         0.1490
     39 H12       -11.5299   -9.7939    0.0752 H         1 <0>         0.1508
@<TRIPOS>BOND
     1    1    6 ar
     2    1    2 ar
     3    1   28 1
     4    2    3 ar
     5    2   29 1
     6    3    4 ar
     7    3   27 1
     8    4    5 ar
     9    4   30 1
    10    5    6 ar
    11    5   31 1
    12    6    7 1
    13    7   11 1
    14    7    8 2
    15    8    9 1
    16    9   10 2
    17   10   11 1
    18   10   12 1
    19   12   13 1
    20   13   14 1
    21   13   32 1
    22   13   33 1
    23   14   15 3
    24   15   16 1
    25   16   17 1
    26   16   34 1
    27   16   35 1
    28   17   18 1
    29   18   19 2
    30   18   20 1
    31   20   25 ar
    32   20   21 ar
    33   21   22 ar
    34   21   36 1
    35   22   23 ar
    36   22   37 1
    37   23   24 ar
    38   23   26 1
    39   24   25 ar
    40   24   38 1
    41   25   39 1
@<TRIPOS>MOLECULE
ZINC02400771
   45    48     0     0     0
SMALL
USER_CHARGES

@<TRIPOS>ATOM
      1 C1         -0.0167    1.3795    0.0096 C.ar      1 <0>        -0.0804
      2 C2          1.1683    2.0938    0.0021 C.ar      1 <0>        -0.1312
      3 C3          2.3774    1.4300   -0.0129 C.ar      1 <0>        -0.0528
      4 C4          2.4037    0.0340   -0.0206 C.ar      1 <0>        -0.1293
      5 C5          1.2041   -0.6806   -0.0130 C.ar      1 <0>        -0.0609
      6 C6          0.0021   -0.0041    0.0020 C.ar      1 <0>        -0.1332
      7 C7          3.6948   -0.6838   -0.0372 C.2       1 <0>         0.5151
      8 O1          4.7367   -0.0594   -0.0442 O.2       1 <0>        -0.4983
      9 O2          3.7166   -2.0307   -0.0446 O.3       1 <0>        -0.3439
     10 C8          5.0001   -2.6586   -0.0607 C.3       1 <0>         0.1823
     11 C9          4.8309   -4.1209   -0.0668 C.1       1 <0>        -0.1323
     12 C10         4.6960   -5.2871   -0.0717 C.1       1 <0>        -0.1405
     13 C11         4.5268   -6.7493   -0.0778 C.3       1 <0>         0.0000
     14 S1          6.1562   -7.5464   -0.0982 S.3       1 <0>         0.0885
     15 C12         5.7877   -9.2695   -0.1037 C.2       1 <0>         0.1309
     16 N1          4.5895   -9.8080   -0.1005 N.2       1 <0>        -0.2822
     17 N2          4.6962  -11.0901   -0.1063 N.2       1 <0>        -0.2662
     18 C13         5.9658  -11.4218   -0.1136 C.2       1 <0>         0.2276
     19 O3          6.6827  -10.2756   -0.1180 O.3       1 <0>        -0.1965
     20 C14         6.5099  -12.7916   -0.1218 C.ar      1 <0>        -0.0320
     21 C15         7.8816  -13.0096   -0.1228 C.ar      1 <0>        -0.0580
     22 C16         8.3913  -14.3008   -0.1311 C.ar      1 <0>        -0.1289
     23 C17         7.5795  -15.3934   -0.1381 C.ar      1 <0>        -0.0668
     24 C18         6.1822  -15.2476   -0.1371 C.ar      1 <0>        -0.0573
     25 C19         5.6176  -13.9486   -0.1231 C.ar      1 <0>        -0.0142
     26 C20         4.2255  -13.7992   -0.1171 C.ar      1 <0>        -0.1159
     27 C21         3.4293  -14.9055   -0.1190 C.ar      1 <0>        -0.1041
     28 C22         3.9813  -16.1845   -0.1265 C.ar      1 <0>        -0.1131
     29 C23         5.3306  -16.3659   -0.1447 C.ar      1 <0>        -0.1032
     30 H1         -0.9605    1.9041    0.0260 H         1 <0>         0.1316
     31 H2          1.1465    3.1736    0.0078 H         1 <0>         0.1352
     32 H3          3.3016    1.9887   -0.0191 H         1 <0>         0.1393
     33 H4          1.2174   -1.7605   -0.0192 H         1 <0>         0.1389
     34 H5         -0.9265   -0.5555    0.0079 H         1 <0>         0.1336
     35 H6          5.5435   -2.3520   -0.9545 H         1 <0>         0.1022
     36 H7          5.5611   -2.3615    0.8254 H         1 <0>         0.1022
     37 H8          3.9835   -7.0559    0.8160 H         1 <0>         0.1295
     38 H9          3.9658   -7.0464   -0.9639 H         1 <0>         0.1296
     39 H10         8.5575  -12.1673   -0.1174 H         1 <0>         0.1353
     40 H11         9.4620  -14.4425   -0.1324 H         1 <0>         0.1355
     41 H12         8.0138  -16.3822   -0.1447 H         1 <0>         0.1358
     42 H13         3.7850  -12.8131   -0.1106 H         1 <0>         0.1596
     43 H14         2.3556  -14.7890   -0.1144 H         1 <0>         0.1282
     44 H15         3.3290  -17.0452   -0.1275 H         1 <0>         0.1273
     45 H16         5.7443  -17.3635   -0.1510 H         1 <0>         0.1328
@<TRIPOS>BOND
     1    1    6 ar
     2    1    2 ar
     3    1   30 1
     4    2    3 ar
     5    2   31 1
     6    3    4 ar
     7    3   32 1
     8    4    5 ar
     9    4    7 1
    10    5    6 ar
    11    5   33 1
    12    6   34 1
    13    7    8 2
    14    7    9 1
    15    9   10 1
    16   10   11 1
    17   10   35 1
    18   10   36 1
    19   11   12 3
    20   12   13 1
    21   13   14 1
    22   13   37 1
    23   13   38 1
    24   14   15 1
    25   15   19 1
    26   15   16 2
    27   16   17 1
    28   17   18 2
    29   18   19 1
    30   18   20 1
    31   20   25 ar
    32   20   21 ar
    33   21   22 ar
    34   21   39 1
    35   22   23 ar
    36   22   40 1
    37   23   24 ar
    38   23   41 1
    39   24   29 ar
    40   24   25 ar
    41   25   26 ar
    42   26   27 ar
    43   26   42 1
    44   27   28 ar
    45   27   43 1
    46   28   29 ar
    47   28   44 1
    48   29   45 1
@<TRIPOS>MOLECULE
ZINC04654860
   33    34     0     0     0
SMALL
USER_CHARGES
2,6-dibromo-4-[1-(3-bromo-4-hydroxy-phenyl)-1-methyl-ethyl]-phenol
@<TRIPOS>ATOM
      1 C1          1.3382    2.1802   -0.1941 C.3       1 <0>        -0.1431
      2 C2         -0.0184    1.5028    0.0103 C.3       1 <0>         0.0230
      3 C3         -0.8725    1.6821   -1.2464 C.3       1 <0>        -0.1480
      4 C4         -0.7200    2.1286    1.1881 C.ar      1 <0>        -0.0769
      5 C5         -1.1897    1.3308    2.2152 C.ar      1 <0>        -0.0850
      6 C6         -1.8290    1.9021    3.2985 C.ar      1 <0>        -0.1331
      7 C7         -2.0091    3.2766    3.3506 C.ar      1 <0>         0.1342
      8 C8         -1.5415    4.0750    2.3161 C.ar      1 <0>        -0.1171
      9 C9         -0.8978    3.4987    1.2370 C.ar      1 <0>        -0.0678
     10 Br1        -1.7841    5.9492    2.3830 Br        1 <0>        -0.0344
     11 O1         -2.6427    3.8404    4.4127 O.3       1 <0>        -0.4861
     12 C10         0.1883    0.0331    0.2716 C.ar      1 <0>        -0.0722
     13 C11         1.0439   -0.3751    1.2780 C.ar      1 <0>        -0.0554
     14 C12         1.2317   -1.7226    1.5231 C.ar      1 <0>        -0.1147
     15 C13         0.5686   -2.6660    0.7510 C.ar      1 <0>         0.1621
     16 C14        -0.2855   -2.2534   -0.2620 C.ar      1 <0>        -0.1139
     17 C15        -0.4736   -0.9046   -0.4992 C.ar      1 <0>        -0.0604
     18 Br2        -1.1918   -3.5351   -1.3164 Br        1 <0>        -0.0203
     19 O2          0.7551   -3.9917    0.9867 O.3       1 <0>        -0.4733
     20 Br3         2.3961   -2.2799    2.9050 Br        1 <0>        -0.0196
     21 H1          1.8457    1.7275   -1.0460 H         1 <0>         0.0676
     22 H2          1.1887    3.2432   -0.3831 H         1 <0>         0.0684
     23 H3          1.9467    2.0524    0.7012 H         1 <0>         0.0630
     24 H4         -1.8389    1.1996   -1.1007 H         1 <0>         0.0649
     25 H5         -1.0220    2.7452   -1.4354 H         1 <0>         0.0689
     26 H6         -0.3650    1.2295   -2.0982 H         1 <0>         0.0692
     27 H7         -1.0531    0.2604    2.1725 H         1 <0>         0.1329
     28 H8         -2.1919    1.2787    4.1022 H         1 <0>         0.1390
     29 H9         -0.5339    4.1192    0.4314 H         1 <0>         0.1384
     30 H10        -3.6005    3.9175    4.3036 H         1 <0>         0.3955
     31 H11         1.5629    0.3594    1.8760 H         1 <0>         0.1446
     32 H12        -1.1385   -0.5830   -1.2872 H         1 <0>         0.1500
     33 H13         1.4830   -4.3820    0.4838 H         1 <0>         0.3995
@<TRIPOS>BOND
     1    1    2 1
     2    1   21 1
     3    1   22 1
     4    1   23 1
     5    2    3 1
     6    2    4 1
     7    2   12 1
     8    3   24 1
     9    3   25 1
    10    3   26 1
    11    4    9 ar
    12    4    5 ar
    13    5    6 ar
    14    5   27 1
    15    6    7 ar
    16    6   28 1
    17    7    8 ar
    18    7   11 1
    19    8    9 ar
    20    8   10 1
    21    9   29 1
    22   11   30 1
    23   12   17 ar
    24   12   13 ar
    25   13   14 ar
    26   13   31 1
    27   14   15 ar
    28   14   20 1
    29   15   16 ar
    30   15   19 1
    31   16   17 ar
    32   16   18 1
    33   17   32 1
    34   19   33 1
@<TRIPOS>MOLECULE
ZINC01689786
   33    34     0     0     0
SMALL
USER_CHARGES
2,6-dibromo-4-[1-(3,5-dibromo-4-hydroxy-phenyl)-1-methyl-ethyl]phenol
@<TRIPOS>ATOM
      1 C1         -2.3194    1.8619   -1.1223 C.3       1 <0>        -0.1437
      2 C2         -1.3327    2.1126    0.0198 C.3       1 <0>         0.0247
      3 C3         -1.9196    1.5776    1.3276 C.3       1 <0>        -0.1488
      4 C4         -0.0342    1.4064   -0.2740 C.ar      1 <0>        -0.0773
      5 C5          0.6136    1.6251   -1.4757 C.ar      1 <0>        -0.0565
      6 C6          1.8019    0.9743   -1.7503 C.ar      1 <0>        -0.1135
      7 C7          2.3445    0.1007   -0.8185 C.ar      1 <0>         0.1642
      8 C8          1.6921   -0.1169    0.3869 C.ar      1 <0>        -0.1137
      9 C9          0.5040    0.5366    0.6562 C.ar      1 <0>        -0.0593
     10 Br1         2.4278   -1.3059    1.6601 Br        1 <0>        -0.0191
     11 O1          3.5130   -0.5402   -1.0857 O.3       1 <0>        -0.4726
     12 Br2         2.6875    1.2746   -3.3939 Br        1 <0>        -0.0179
     13 C10        -1.0811    3.5927    0.1505 C.ar      1 <0>        -0.0721
     14 C11         0.2143    4.0760    0.1401 C.ar      1 <0>        -0.0600
     15 C12         0.4478    5.4337    0.2550 C.ar      1 <0>        -0.1116
     16 C13        -0.6190    6.3108    0.3914 C.ar      1 <0>         0.1622
     17 C14        -1.9179    5.8224    0.4069 C.ar      1 <0>        -0.1130
     18 C15        -2.1458    4.4642    0.2863 C.ar      1 <0>        -0.0538
     19 Br3        -3.3748    7.0137    0.5920 Br        1 <0>        -0.0199
     20 O2         -0.3921    7.6458    0.5093 O.3       1 <0>        -0.4731
     21 Br4         2.2194    6.0945    0.2328 Br        1 <0>        -0.0190
     22 H1         -2.5014    0.7914   -1.2168 H         1 <0>         0.0700
     23 H2         -3.2586    2.3727   -0.9097 H         1 <0>         0.0693
     24 H3         -1.9013    2.2431   -2.0539 H         1 <0>         0.0640
     25 H4         -1.2166    1.7562    2.1412 H         1 <0>         0.0658
     26 H5         -2.8587    2.0884    1.5401 H         1 <0>         0.0700
     27 H6         -2.1016    0.5071    1.2330 H         1 <0>         0.0715
     28 H7          0.1909    2.3051   -2.2006 H         1 <0>         0.1445
     29 H8         -0.0043    0.3674    1.5939 H         1 <0>         0.1506
     30 H9          3.4017   -1.3935   -1.5269 H         1 <0>         0.3997
     31 H10         1.0443    3.3926    0.0380 H         1 <0>         0.1432
     32 H11        -3.1564    4.0836    0.2986 H         1 <0>         0.1457
     33 H12        -0.2841    7.9474    1.4217 H         1 <0>         0.3993
@<TRIPOS>BOND
     1    1    2 1
     2    1   22 1
     3    1   23 1
     4    1   24 1
     5    2    3 1
     6    2    4 1
     7    2   13 1
     8    3   25 1
     9    3   26 1
    10    3   27 1
    11    4    9 ar
    12    4    5 ar
    13    5    6 ar
    14    5   28 1
    15    6    7 ar
    16    6   12 1
    17    7    8 ar
    18    7   11 1
    19    8    9 ar
    20    8   10 1
    21    9   29 1
    22   11   30 1
    23   13   18 ar
    24   13   14 ar
    25   14   15 ar
    26   14   31 1
    27   15   16 ar
    28   15   21 1
    29   16   17 ar
    30   16   20 1
    31   17   18 ar
    32   17   19 1
    33   18   32 1
    34   20   33 1
@<TRIPOS>MOLECULE
ZINC00012342
   44    45     0     0     0
SMALL
USER_CHARGES

@<TRIPOS>ATOM
      1 C1         -0.0187    1.5258    0.0104 C.3       1 <0>        -0.1561
      2 C2          0.0021   -0.0041    0.0020 C.3       1 <0>        -0.0796
      3 H1          0.5293   -0.3651    0.8851 H         1 <0>         0.0729
      4 C3          0.7182   -0.4975   -1.2568 C.3       1 <0>        -0.0804
      5 C4          2.1652   -0.0794   -1.2080 C.ar      1 <0>        -0.0687
      6 C5          2.5498    1.1377   -1.7391 C.ar      1 <0>        -0.1081
      7 C6          3.8760    1.5258   -1.6968 C.ar      1 <0>        -0.1282
      8 C7          4.8231    0.6944   -1.1208 C.ar      1 <0>         0.0741
      9 C8          4.4359   -0.5305   -0.5858 C.ar      1 <0>         0.0830
     10 C9          3.1042   -0.9112   -0.6272 C.ar      1 <0>        -0.1289
     11 O1          5.3617   -1.3499   -0.0194 O.3       1 <0>        -0.4885
     12 O2          6.1281    1.0745   -1.0788 O.3       1 <0>        -0.4888
     13 C10        -1.4333   -0.5336    0.0129 C.3       1 <0>        -0.0796
     14 H2         -1.9605   -0.1726   -0.8702 H         1 <0>         0.0741
     15 C11        -1.4126   -2.0635    0.0045 C.3       1 <0>        -0.1556
     16 C12        -2.1494   -0.0402    1.2717 C.3       1 <0>        -0.0803
     17 C13        -3.5965   -0.4583    1.2229 C.ar      1 <0>        -0.0689
     18 C14        -4.5346    0.3711    0.6369 C.ar      1 <0>        -0.1099
     19 C15        -5.8633   -0.0079    0.5896 C.ar      1 <0>        -0.1274
     20 C16        -6.2571   -1.2216    1.1299 C.ar      1 <0>         0.0740
     21 C17        -5.3128   -2.0566    1.7193 C.ar      1 <0>         0.0821
     22 C18        -3.9819   -1.6728    1.7591 C.ar      1 <0>        -0.1267
     23 O3         -5.6945   -3.2487    2.2510 O.3       1 <0>        -0.4883
     24 O4         -7.5638   -1.5957    1.0847 O.3       1 <0>        -0.4888
     25 H3          1.0039    1.9031    0.0027 H         1 <0>         0.0591
     26 H4         -0.5459    1.8868   -0.8726 H         1 <0>         0.0559
     27 H5         -0.5289    1.8773    0.9072 H         1 <0>         0.0587
     28 H6          0.6556   -1.5845   -1.3079 H         1 <0>         0.0790
     29 H7          0.2444   -0.0644   -2.1377 H         1 <0>         0.0758
     30 H8          1.8126    1.7866   -2.1884 H         1 <0>         0.1297
     31 H9          4.1739    2.4768   -2.1131 H         1 <0>         0.1330
     32 H10         2.8006   -1.8597   -0.2093 H         1 <0>         0.1318
     33 H11         5.4917   -1.2014    0.9273 H         1 <0>         0.3874
     34 H12         6.3681    1.5701   -0.2838 H         1 <0>         0.3869
     35 H13        -0.9024   -2.4150   -0.8923 H         1 <0>         0.0589
     36 H14        -0.8854   -2.4246    0.8875 H         1 <0>         0.0553
     37 H15        -2.4352   -2.4408    0.0122 H         1 <0>         0.0575
     38 H16        -1.6756   -0.4733    2.1526 H         1 <0>         0.0744
     39 H17        -2.0868    1.0468    1.3228 H         1 <0>         0.0805
     40 H18        -4.2289    1.3173    0.2154 H         1 <0>         0.1294
     41 H19        -6.5943    0.6421    0.1319 H         1 <0>         0.1330
     42 H20        -3.2464   -2.3207    2.2126 H         1 <0>         0.1323
     43 H21        -5.6653   -3.9856    1.6255 H         1 <0>         0.3872
     44 H22        -7.8025   -2.0960    0.2923 H         1 <0>         0.3869
@<TRIPOS>BOND
     1    1    2 1
     2    1   25 1
     3    1   26 1
     4    1   27 1
     5    2    3 1
     6    2    4 1
     7    2   13 1
     8    4    5 1
     9    4   28 1
    10    4   29 1
    11    5   10 ar
    12    5    6 ar
    13    6    7 ar
    14    6   30 1
    15    7    8 ar
    16    7   31 1
    17    8    9 ar
    18    8   12 1
    19    9   10 ar
    20    9   11 1
    21   10   32 1
    22   11   33 1
    23   12   34 1
    24   13   14 1
    25   13   15 1
    26   13   16 1
    27   15   35 1
    28   15   36 1
    29   15   37 1
    30   16   17 1
    31   16   38 1
    32   16   39 1
    33   17   22 ar
    34   17   18 ar
    35   18   19 ar
    36   18   40 1
    37   19   20 ar
    38   19   41 1
    39   20   21 ar
    40   20   24 1
    41   21   22 ar
    42   21   23 1
    43   22   42 1
    44   23   43 1
    45   24   44 1
@<TRIPOS>MOLECULE
ZINC00056474
   44    45     0     0     0
SMALL
USER_CHARGES

@<TRIPOS>ATOM
      1 C1         -0.0187    1.5258    0.0104 C.3       1 <0>        -0.1537
      2 C2          0.0021   -0.0041    0.0020 C.3       1 <0>        -0.0795
      3 H1          0.5293   -0.3651    0.8851 H         1 <0>         0.0731
      4 C3          0.7182   -0.4975   -1.2568 C.3       1 <0>        -0.0826
      5 C4          2.1652   -0.0794   -1.2080 C.ar      1 <0>        -0.0685
      6 C5          2.5498    1.1377   -1.7391 C.ar      1 <0>        -0.1081
      7 C6          3.8760    1.5258   -1.6968 C.ar      1 <0>        -0.1282
      8 C7          4.8231    0.6944   -1.1208 C.ar      1 <0>         0.0741
      9 C8          4.4359   -0.5305   -0.5858 C.ar      1 <0>         0.0831
     10 C9          3.1042   -0.9112   -0.6272 C.ar      1 <0>        -0.1290
     11 O1          5.3617   -1.3499   -0.0194 O.3       1 <0>        -0.4884
     12 O2          6.1281    1.0745   -1.0788 O.3       1 <0>        -0.4888
     13 C10        -1.4333   -0.5336    0.0129 C.3       1 <0>        -0.0794
     14 H2         -1.9605   -0.1726   -0.8702 H         1 <0>         0.0731
     15 C11        -2.1494   -0.0402    1.2717 C.3       1 <0>        -0.1537
     16 C12        -1.4126   -2.0635    0.0045 C.3       1 <0>        -0.0827
     17 C13        -2.8221   -2.5844   -0.1087 C.ar      1 <0>        -0.0685
     18 C14        -3.5623   -2.8252    1.0339 C.ar      1 <0>        -0.1081
     19 C15        -4.8557   -3.3030    0.9354 C.ar      1 <0>        -0.1282
     20 C16        -5.4133   -3.5412   -0.3106 C.ar      1 <0>         0.0741
     21 C17        -4.6685   -3.2984   -1.4606 C.ar      1 <0>         0.0831
     22 C18        -3.3742   -2.8149   -1.3550 C.ar      1 <0>        -0.1289
     23 O3         -5.2113   -3.5306   -2.6858 O.3       1 <0>        -0.4884
     24 O4         -6.6854   -4.0117   -0.4092 O.3       1 <0>        -0.4888
     25 H3          1.0039    1.9031    0.0027 H         1 <0>         0.0588
     26 H4         -0.5459    1.8868   -0.8726 H         1 <0>         0.0549
     27 H5         -0.5289    1.8773    0.9072 H         1 <0>         0.0586
     28 H6          0.6556   -1.5845   -1.3079 H         1 <0>         0.0790
     29 H7          0.2444   -0.0644   -2.1377 H         1 <0>         0.0763
     30 H8          1.8126    1.7866   -2.1884 H         1 <0>         0.1296
     31 H9          4.1739    2.4768   -2.1131 H         1 <0>         0.1329
     32 H10         2.8006   -1.8597   -0.2093 H         1 <0>         0.1321
     33 H11         5.4917   -1.2014    0.9273 H         1 <0>         0.3874
     34 H12         6.3681    1.5701   -0.2838 H         1 <0>         0.3869
     35 H13        -3.1720   -0.4175    1.2794 H         1 <0>         0.0588
     36 H14        -1.6223   -0.4013    2.1547 H         1 <0>         0.0549
     37 H15        -2.1642    1.0497    1.2777 H         1 <0>         0.0586
     38 H16        -0.8263   -2.4142   -0.8449 H         1 <0>         0.0790
     39 H17        -0.9645   -2.4259    0.9297 H         1 <0>         0.0763
     40 H18        -3.1289   -2.6399    2.0056 H         1 <0>         0.1296
     41 H19        -5.4316   -3.4910    1.8295 H         1 <0>         0.1329
     42 H20        -2.7953   -2.6221   -2.2461 H         1 <0>         0.1322
     43 H21        -5.6728   -2.7688   -3.0623 H         1 <0>         0.3874
     44 H22        -7.3582   -3.3189   -0.4598 H         1 <0>         0.3869
@<TRIPOS>BOND
     1    1    2 1
     2    1   25 1
     3    1   26 1
     4    1   27 1
     5    2    3 1
     6    2    4 1
     7    2   13 1
     8    4    5 1
     9    4   28 1
    10    4   29 1
    11    5   10 ar
    12    5    6 ar
    13    6    7 ar
    14    6   30 1
    15    7    8 ar
    16    7   31 1
    17    8    9 ar
    18    8   12 1
    19    9   10 ar
    20    9   11 1
    21   10   32 1
    22   11   33 1
    23   12   34 1
    24   13   14 1
    25   13   15 1
    26   13   16 1
    27   15   35 1
    28   15   36 1
    29   15   37 1
    30   16   17 1
    31   16   38 1
    32   16   39 1
    33   17   22 ar
    34   17   18 ar
    35   18   19 ar
    36   18   40 1
    37   19   20 ar
    38   19   41 1
    39   20   21 ar
    40   20   24 1
    41   21   22 ar
    42   21   23 1
    43   22   42 1
    44   23   43 1
    45   24   44 1
@<TRIPOS>MOLECULE
ZINC04755281
   36    37     0     0     0
SMALL
USER_CHARGES

@<TRIPOS>ATOM
      1 C1         -0.0184    1.5028    0.0103 C.3       1 <0>        -0.1165
      2 C2          0.0021   -0.0041    0.0020 C.ar      1 <0>        -0.0884
      3 C3          0.0057   -0.6879   -1.2008 C.ar      1 <0>        -0.0958
      4 C4          0.0244   -2.0709   -1.2167 C.ar      1 <0>        -0.1176
      5 C5          0.0391   -2.7772   -0.0312 C.ar      1 <0>        -0.0691
      6 C6          0.0356   -2.0937    1.1844 C.ar      1 <0>        -0.0562
      7 C7          0.0228   -0.6988    1.1938 C.ar      1 <0>        -0.0907
      8 C8          0.0508   -2.8454    2.4597 C.2       1 <0>         0.4296
      9 N1          0.0676   -4.1469    2.4479 N.2       1 <0>        -0.3792
     10 O1          0.0821   -4.8659    3.6677 O.3       1 <0>        -0.2241
     11 C9          0.0987   -6.2031    3.5148 C.2       1 <0>         0.5098
     12 O2          0.1001   -6.6873    2.4003 O.2       1 <0>        -0.4538
     13 C10         0.1152   -7.0816    4.7014 C.ar      1 <0>        -0.1232
     14 C11         0.1078   -6.5287    5.9841 C.ar      1 <0>        -0.0509
     15 C12         0.1228   -7.3549    7.0879 C.ar      1 <0>        -0.1308
     16 C13         0.1452   -8.7298    6.9280 C.ar      1 <0>        -0.0378
     17 C14         0.1526   -9.2854    5.6618 C.ar      1 <0>        -0.1249
     18 C15         0.1325   -8.4704    4.5466 C.ar      1 <0>         0.0235
     19 Cl1         0.1351   -9.1692    2.9575 Cl        1 <0>        -0.0252
     20 C16         0.1619   -9.6254    8.1399 C.3       1 <0>        -0.1224
     21 N2          0.0472   -2.1647    3.6637 N.pl3     1 <0>        -0.8649
     22 H1          1.0042    1.8801    0.0026 H         1 <0>         0.0737
     23 H2         -0.5455    1.8639   -0.8728 H         1 <0>         0.0704
     24 H3         -0.5286    1.8543    0.9071 H         1 <0>         0.0682
     25 H4         -0.0065   -0.1395   -2.1312 H         1 <0>         0.1289
     26 H5          0.0271   -2.5990   -2.1587 H         1 <0>         0.1329
     27 H6          0.0530   -3.8570   -0.0449 H         1 <0>         0.1419
     28 H7          0.0248   -0.1639    2.1320 H         1 <0>         0.1258
     29 H8          0.0907   -5.4564    6.1110 H         1 <0>         0.1426
     30 H9          0.1174   -6.9282    8.0800 H         1 <0>         0.1386
     31 H10         0.1701  -10.3589    5.5445 H         1 <0>         0.1442
     32 H11        -0.8615   -9.8582    8.4338 H         1 <0>         0.0812
     33 H12         0.6906  -10.5485    7.9022 H         1 <0>         0.0746
     34 H13         0.6688   -9.1172    8.9602 H         1 <0>         0.0752
     35 H14         0.0348   -1.1948    3.6725 H         1 <0>         0.4009
     36 H15         0.0572   -2.6572    4.4993 H         1 <0>         0.4096
@<TRIPOS>BOND
     1    1    2 1
     2    1   22 1
     3    1   23 1
     4    1   24 1
     5    2    7 ar
     6    2    3 ar
     7    3    4 ar
     8    3   25 1
     9    4    5 ar
    10    4   26 1
    11    5    6 ar
    12    5   27 1
    13    6    7 ar
    14    6    8 1
    15    7   28 1
    16    8    9 2
    17    8   21 1
    18    9   10 1
    19   10   11 1
    20   11   12 2
    21   11   13 1
    22   13   18 ar
    23   13   14 ar
    24   14   15 ar
    25   14   29 1
    26   15   16 ar
    27   15   30 1
    28   16   17 ar
    29   16   20 1
    30   17   18 ar
    31   17   31 1
    32   18   19 1
    33   20   32 1
    34   20   33 1
    35   20   34 1
    36   21   35 1
    37   21   36 1
@<TRIPOS>MOLECULE
ZINC04755281
   37    38     0     0     0
SMALL
USER_CHARGES

@<TRIPOS>ATOM
      1 C1         -0.0184    1.5028    0.0103 C.3       1 <0>        -0.1281
      2 C2          0.0021   -0.0041    0.0020 C.ar      1 <0>        -0.0711
      3 C3          0.0058   -0.6879   -1.2008 C.ar      1 <0>        -0.0523
      4 C4          0.0245   -2.0708   -1.2164 C.ar      1 <0>        -0.1044
      5 C5          0.0396   -2.7769   -0.0306 C.ar      1 <0>        -0.0657
      6 C6          0.0364   -2.0934    1.1845 C.ar      1 <0>        -0.1475
      7 C7          0.0228   -0.6989    1.1938 C.ar      1 <0>        -0.0631
      8 C8          0.0521   -2.8454    2.4606 C.cat     1 <0>         0.6231
      9 N1         -0.5143   -2.3410    3.5219 N.pl3     1 <0>        -0.7238
     10 N2          0.6624   -4.0721    2.5263 N.pl3     1 <0>        -0.5244
     11 O1          0.6774   -4.7910    3.7462 O.3       1 <0>        -0.1129
     12 C9          1.3062   -5.9761    3.6744 C.2       1 <0>         0.5002
     13 O2          1.7977   -6.3407    2.6242 O.2       1 <0>        -0.4476
     14 C10         1.4001   -6.8360    4.8716 C.ar      1 <0>        -0.1445
     15 C11         0.8316   -6.4229    6.0784 C.ar      1 <0>        -0.0455
     16 C12         0.9229   -7.2305    7.1924 C.ar      1 <0>        -0.1278
     17 C13         1.5766   -8.4483    7.1174 C.ar      1 <0>        -0.0101
     18 C14         2.1423   -8.8649    5.9264 C.ar      1 <0>        -0.1215
     19 C15         2.0532   -8.0691    4.8007 C.ar      1 <0>         0.0350
     20 Cl1         2.7571   -8.5965    3.3040 Cl        1 <0>        -0.0150
     21 C16         1.6727   -9.3243    8.3399 C.3       1 <0>        -0.1322
     22 H1          1.0042    1.8801    0.0026 H         1 <0>         0.0857
     23 H2         -0.5455    1.8639   -0.8728 H         1 <0>         0.0819
     24 H3         -0.5286    1.8543    0.9071 H         1 <0>         0.0770
     25 H4         -0.0064   -0.1396   -2.1312 H         1 <0>         0.1479
     26 H5          0.0269   -2.5991   -2.1583 H         1 <0>         0.1510
     27 H6          0.0535   -3.8567   -0.0440 H         1 <0>         0.1399
     28 H7          0.0244   -0.1640    2.1321 H         1 <0>         0.1418
     29 H8          1.0836   -4.4472    1.7372 H         1 <0>         0.4637
     30 H9          0.3217   -5.4728    6.1392 H         1 <0>         0.1440
     31 H10         0.4835   -6.9117    8.1261 H         1 <0>         0.1479
     32 H11         2.6512   -9.8161    5.8751 H         1 <0>         0.1540
     33 H12         0.8130   -9.9934    8.3759 H         1 <0>         0.0900
     34 H13         2.5893   -9.9124    8.2944 H         1 <0>         0.0816
     35 H14         1.6853   -8.7005    9.2337 H         1 <0>         0.0820
     36 H15        -0.5041   -2.8334    4.3576 H         1 <0>         0.4401
     37 H16        -0.9459   -1.4735    3.4755 H         1 <0>         0.4505
@<TRIPOS>BOND
     1    1    2 1
     2    1   22 1
     3    1   23 1
     4    1   24 1
     5    2    7 ar
     6    2    3 ar
     7    3    4 ar
     8    3   25 1
     9    4    5 ar
    10    4   26 1
    11    5    6 ar
    12    5   27 1
    13    6    7 ar
    14    6    8 1
    15    7   28 1
    16    8    9 2
    17    8   10 1
    18    9   36 1
    19    9   37 1
    20   10   11 1
    21   10   29 1
    22   11   12 1
    23   12   13 2
    24   12   14 1
    25   14   19 ar
    26   14   15 ar
    27   15   16 ar
    28   15   30 1
    29   16   17 ar
    30   16   31 1
    31   17   18 ar
    32   17   21 1
    33   18   19 ar
    34   18   32 1
    35   19   20 1
    36   21   33 1
    37   21   34 1
    38   21   35 1
@<TRIPOS>MOLECULE
ZINC05758746
   36    38     0     0     0
SMALL
USER_CHARGES
3-(4-methoxyphenyl)chroman-6,7-diol
@<TRIPOS>ATOM
      1 C1          0.0021   -0.0041    0.0020 C.3       1 <0>         0.0262
      2 O1         -0.0173    1.4248    0.0099 O.3       1 <0>        -0.3171
      3 C2          1.1850    2.0582    0.0018 C.ar      1 <0>         0.1290
      4 C3          2.3594    1.3196   -0.0077 C.ar      1 <0>        -0.2050
      5 C4          3.5803    1.9659   -0.0221 C.ar      1 <0>        -0.0738
      6 C5          3.6326    3.3475   -0.0147 C.ar      1 <0>        -0.1186
      7 C6          2.4637    4.0858    0.0004 C.ar      1 <0>        -0.0691
      8 C7          1.2402    3.4444    0.0087 C.ar      1 <0>        -0.1485
      9 C8          4.9659    4.0499   -0.0238 C.3       1 <0>        -0.0795
     10 H1          4.8127    5.1289   -0.0065 H         1 <0>         0.0953
     11 C9          5.7461    3.6596   -1.2814 C.3       1 <0>        -0.0692
     12 C10         7.1778    4.1154   -1.1534 C.ar      1 <0>        -0.1514
     13 C11         7.9528    4.2028   -2.2996 C.ar      1 <0>        -0.0935
     14 C12         9.2714    4.6138   -2.2221 C.ar      1 <0>         0.0500
     15 C13         9.8231    4.9409   -0.9869 C.ar      1 <0>         0.1151
     16 C14         9.0490    4.8549    0.1563 C.ar      1 <0>        -0.1610
     17 C15         7.7227    4.4431    0.0753 C.ar      1 <0>         0.1415
     18 O2          6.9940    4.3809    1.2213 O.3       1 <0>        -0.3094
     19 C16         5.7834    3.6232    1.2022 C.3       1 <0>         0.0695
     20 O3         11.1192    5.3443   -0.9041 O.3       1 <0>        -0.4842
     21 O4         10.0273    4.6976   -3.3505 O.3       1 <0>        -0.4852
     22 H2          0.5293   -0.3651    0.8851 H         1 <0>         0.0565
     23 H3         -1.0205   -0.3814    0.0098 H         1 <0>         0.1020
     24 H4          0.5123   -0.3556   -0.8948 H         1 <0>         0.0564
     25 H5          2.3191    0.2404   -0.0085 H         1 <0>         0.1296
     26 H6          4.4947    1.3914   -0.0340 H         1 <0>         0.1245
     27 H7          2.5071    5.1650    0.0055 H         1 <0>         0.1314
     28 H8          0.3274    4.0215    0.0202 H         1 <0>         0.1330
     29 H9          5.7198    2.5767   -1.4030 H         1 <0>         0.0826
     30 H10         5.2913    4.1327   -2.1517 H         1 <0>         0.0875
     31 H11         7.5249    3.9487   -3.2580 H         1 <0>         0.1369
     32 H12         9.4760    5.1080    1.1155 H         1 <0>         0.1424
     33 H13         5.2131    3.8193    2.1102 H         1 <0>         0.1128
     34 H14         6.0161    2.5603    1.1365 H         1 <0>         0.0680
     35 H15        11.7482    4.6220   -0.7712 H         1 <0>         0.3908
     36 H16        10.5005    3.8830   -3.5683 H         1 <0>         0.3847
@<TRIPOS>BOND
     1    1    2 1
     2    1   22 1
     3    1   23 1
     4    1   24 1
     5    2    3 1
     6    3    8 ar
     7    3    4 ar
     8    4    5 ar
     9    4   25 1
    10    5    6 ar
    11    5   26 1
    12    6    7 ar
    13    6    9 1
    14    7    8 ar
    15    7   27 1
    16    8   28 1
    17    9   10 1
    18    9   19 1
    19    9   11 1
    20   11   12 1
    21   11   29 1
    22   11   30 1
    23   12   17 ar
    24   12   13 ar
    25   13   14 ar
    26   13   31 1
    27   14   15 ar
    28   14   21 1
    29   15   16 ar
    30   15   20 1
    31   16   17 ar
    32   16   32 1
    33   17   18 1
    34   18   19 1
    35   19   33 1
    36   19   34 1
    37   20   35 1
    38   21   36 1
@<TRIPOS>MOLECULE
ZINC00057647
   29    31     0     0     0
SMALL
USER_CHARGES

@<TRIPOS>ATOM
      1 C1         -0.0163    1.3802    0.0111 C.ar      1 <0>        -0.0993
      2 C2          0.2374    0.3973    0.9515 C.ar      1 <0>        -0.1232
      3 C3          1.4405   -0.2771    0.9417 C.ar      1 <0>        -0.0657
      4 C4          2.4040    0.0343   -0.0208 C.ar      1 <0>        -0.0531
      5 C5          2.1410    1.0277   -0.9670 C.ar      1 <0>        -0.0850
      6 C6          0.9334    1.6938   -0.9452 C.ar      1 <0>        -0.1246
      7 C7          3.6939   -0.6826   -0.0374 C.2       1 <0>         0.1368
      8 C8          3.6899   -2.0417    0.0538 C.2       1 <0>        -0.0500
      9 C9          4.9230   -2.7456    0.0386 C.2       1 <0>         0.3993
     10 O1          4.9597   -3.9627    0.1178 O.2       1 <0>        -0.4506
     11 C10         6.1560   -1.9483   -0.0771 C.ar      1 <0>        -0.2589
     12 C11         7.4165   -2.5569   -0.1006 C.ar      1 <0>         0.2040
     13 C12         8.5498   -1.7696   -0.2110 C.ar      1 <0>        -0.1814
     14 C13         8.4359   -0.3919   -0.2975 C.ar      1 <0>        -0.0324
     15 C14         7.1981    0.2173   -0.2748 C.ar      1 <0>        -0.1543
     16 C15         6.0459   -0.5508   -0.1651 C.ar      1 <0>         0.1674
     17 O2          4.8281    0.0294   -0.1475 O.3       1 <0>        -0.1997
     18 O3          7.5265   -3.9069   -0.0153 O.3       1 <0>        -0.4766
     19 O4          2.5145   -2.7189    0.1590 O.3       1 <0>        -0.4497
     20 H1         -0.9619    1.9020    0.0208 H         1 <0>         0.1277
     21 H2         -0.5083    0.1579    1.6952 H         1 <0>         0.1305
     22 H3          1.6374   -1.0437    1.6765 H         1 <0>         0.1310
     23 H4          2.8815    1.2737   -1.7137 H         1 <0>         0.1285
     24 H5          0.7287    2.4621   -1.6761 H         1 <0>         0.1297
     25 H6          9.5260   -2.2312   -0.2295 H         1 <0>         0.1445
     26 H7          9.3266    0.2128   -0.3833 H         1 <0>         0.1483
     27 H8          7.1249    1.2927   -0.3427 H         1 <0>         0.1489
     28 H9          7.5134   -4.3574   -0.8709 H         1 <0>         0.4015
     29 H10         2.6175   -3.6786    0.2180 H         1 <0>         0.4062
@<TRIPOS>BOND
     1    1    6 ar
     2    1    2 ar
     3    1   20 1
     4    2    3 ar
     5    2   21 1
     6    3    4 ar
     7    3   22 1
     8    4    5 ar
     9    4    7 1
    10    5    6 ar
    11    5   23 1
    12    6   24 1
    13    7   17 1
    14    7    8 2
    15    8    9 1
    16    8   19 1
    17    9   10 2
    18    9   11 1
    19   11   16 ar
    20   11   12 ar
    21   12   13 ar
    22   12   18 1
    23   13   14 ar
    24   13   25 1
    25   14   15 ar
    26   14   26 1
    27   15   16 ar
    28   15   27 1
    29   16   17 1
    30   18   28 1
    31   19   29 1
@<TRIPOS>MOLECULE
ZINC26571939
   29    31     0     0     0
SMALL
USER_CHARGES
3-(4-chlorophenyl)-7,8-dihydroxy-chromen-4-one
@<TRIPOS>ATOM
      1 C1          6.4998    2.9860   -0.9702 C.ar      1 <0>        -0.0765
      2 C2          7.7416    3.5879   -0.9718 C.ar      1 <0>        -0.1072
      3 C3          8.7076    3.1896   -0.0636 C.ar      1 <0>        -0.0323
      4 C4          8.4318    2.1901    0.8537 C.ar      1 <0>        -0.1083
      5 C5          7.1916    1.5853    0.8667 C.ar      1 <0>        -0.1007
      6 C6          6.2156    1.9827   -0.0455 C.ar      1 <0>        -0.0188
      7 C7          4.8810    1.3357   -0.0363 C.2       1 <0>        -0.2559
      8 C8          4.7678   -0.0180   -0.0426 C.2       1 <0>         0.1436
      9 O1          3.5866   -0.6402   -0.0351 O.3       1 <0>        -0.2074
     10 C9          2.4066    0.0121   -0.0208 C.ar      1 <0>         0.1481
     11 C10         2.3728    1.4172   -0.0129 C.ar      1 <0>        -0.2230
     12 C11         3.6529    2.1484   -0.0207 C.2       1 <0>         0.4350
     13 O2          3.6930    3.3667   -0.0149 O.2       1 <0>        -0.4513
     14 C12         1.1528    2.0942    0.0023 C.ar      1 <0>        -0.0247
     15 C13        -0.0168    1.3874    0.0097 C.ar      1 <0>        -0.1452
     16 C14         0.0021   -0.0041    0.0020 C.ar      1 <0>         0.1317
     17 C15         1.2067   -0.6938   -0.0132 C.ar      1 <0>         0.0391
     18 O3          1.2147   -2.0545   -0.0201 O.3       1 <0>        -0.4838
     19 O4         -1.1686   -0.6934    0.0090 O.3       1 <0>        -0.4836
     20 Cl1        10.2702    3.9457   -0.0756 Cl        1 <0>        -0.0677
     21 H1          5.7484    3.2944   -1.6820 H         1 <0>         0.1332
     22 H2          7.9617    4.3678   -1.6857 H         1 <0>         0.1369
     23 H3          9.1888    1.8829    1.5601 H         1 <0>         0.1371
     24 H4          6.9776    0.8052    1.5822 H         1 <0>         0.1337
     25 H5          5.6684   -0.6141   -0.0537 H         1 <0>         0.2042
     26 H6          1.1329    3.1740    0.0079 H         1 <0>         0.1526
     27 H7         -0.9610    1.9116    0.0170 H         1 <0>         0.1474
     28 H8          0.2654   -2.6101   -0.0141 H         1 <0>         0.4200
     29 H9         -1.1593   -1.7933    0.0030 H         1 <0>         0.4239
@<TRIPOS>BOND
     1    1    6 ar
     2    1    2 ar
     3    1   21 1
     4    2    3 ar
     5    2   22 1
     6    3    4 ar
     7    3   20 1
     8    4    5 ar
     9    4   23 1
    10    5    6 ar
    11    5   24 1
    12    6    7 1
    13    7   12 1
    14    7    8 2
    15    8    9 1
    16    8   25 1
    17    9   10 1
    18   10   17 ar
    19   10   11 ar
    20   11   12 1
    21   11   14 ar
    22   12   13 2
    23   14   15 ar
    24   14   26 1
    25   15   16 ar
    26   15   27 1
    27   16   17 ar
    28   16   19 1
    29   17   18 1
    30   18   28 1
    31   19   29 1
@<TRIPOS>MOLECULE
ZINC28896217
   38    39     0     0     0
SMALL
USER_CHARGES
4-[4-(3,4-dihydroxyphenyl)butyl]benzene-1,2-diol
@<TRIPOS>ATOM
      1 C1         -2.7768   -9.0624   -1.2013 C.ar      1 <0>        -0.1158
      2 C2         -2.7523  -10.4448   -1.2108 C.ar      1 <0>        -0.1268
      3 C3         -2.7314  -11.1454   -0.0157 C.ar      1 <0>         0.1197
      4 C4         -2.7294  -10.4546    1.1925 C.ar      1 <0>         0.0651
      5 C5         -2.7483   -9.0693    1.1948 C.ar      1 <0>        -0.1720
      6 C6         -2.7691   -8.3762   -0.0014 C.ar      1 <0>        -0.0848
      7 C7         -2.7896   -6.8693    0.0030 C.3       1 <0>        -0.0782
      8 C8         -1.3543   -6.3397   -0.0091 C.3       1 <0>        -0.1141
      9 C9         -1.3751   -4.8098   -0.0046 C.3       1 <0>        -0.1141
     10 C10         0.0603   -4.2802   -0.0167 C.3       1 <0>        -0.0782
     11 C11         0.0397   -2.7733   -0.0123 C.ar      1 <0>        -0.0848
     12 C12         0.0417   -2.0872    1.1877 C.ar      1 <0>        -0.1158
     13 C13         0.0229   -0.7047    1.1971 C.ar      1 <0>        -0.1269
     14 C14         0.0021   -0.0041    0.0020 C.ar      1 <0>         0.1197
     15 C15        -0.0057   -0.6950   -1.2061 C.ar      1 <0>         0.0651
     16 C16         0.0194   -2.0802   -1.2085 C.ar      1 <0>        -0.1720
     17 O1         -0.0318   -0.0118   -2.3817 O.3       1 <0>        -0.5207
     18 O2         -0.0164    1.3557    0.0095 O.3       1 <0>        -0.5095
     19 O3         -2.7085  -11.1378    2.3681 O.3       1 <0>        -0.5206
     20 O4         -2.7134  -12.5052   -0.0232 O.3       1 <0>        -0.5095
     21 H1         -2.7978   -8.5175   -2.1335 H         1 <0>         0.1279
     22 H2         -2.7543  -10.9785   -2.1497 H         1 <0>         0.1338
     23 H3         -2.7472   -8.5308    2.1310 H         1 <0>         0.1264
     24 H4         -3.3216   -6.5073   -0.8892 H         1 <0>         0.0731
     25 H5         -3.3046   -6.5122    0.9070 H         1 <0>         0.0708
     26 H6         -0.8224   -6.7018    0.8830 H         1 <0>         0.0636
     27 H7         -0.8393   -6.6967   -0.9132 H         1 <0>         0.0649
     28 H8         -1.9071   -4.4477   -0.8967 H         1 <0>         0.0635
     29 H9         -1.8901   -4.4527    0.8994 H         1 <0>         0.0649
     30 H10         0.5922   -4.6423    0.8755 H         1 <0>         0.0731
     31 H11         0.5753   -4.6373   -0.9207 H         1 <0>         0.0709
     32 H12         0.0583   -2.6321    2.1200 H         1 <0>         0.1280
     33 H13         0.0242   -0.1710    2.1360 H         1 <0>         0.1338
     34 H14         0.0179   -2.6187   -2.1446 H         1 <0>         0.1264
     35 H15        -0.0379   -0.5591   -3.3359 H         1 <0>         0.4392
     36 H16        -0.0329    1.9108   -0.9400 H         1 <0>         0.4375
     37 H17        -2.7069  -10.5906    3.3223 H         1 <0>         0.4392
     38 H18        -2.6968  -13.0603    0.9263 H         1 <0>         0.4375
@<TRIPOS>BOND
     1    1    6 ar
     2    1    2 ar
     3    1   21 1
     4    2    3 ar
     5    2   22 1
     6    3    4 ar
     7    3   20 1
     8    4    5 ar
     9    4   19 1
    10    5    6 ar
    11    5   23 1
    12    6    7 1
    13    7    8 1
    14    7   24 1
    15    7   25 1
    16    8    9 1
    17    8   26 1
    18    8   27 1
    19    9   10 1
    20    9   28 1
    21    9   29 1
    22   10   11 1
    23   10   30 1
    24   10   31 1
    25   11   16 ar
    26   11   12 ar
    27   12   13 ar
    28   12   32 1
    29   13   14 ar
    30   13   33 1
    31   14   15 ar
    32   14   18 1
    33   15   16 ar
    34   15   17 1
    35   16   34 1
    36   17   35 1
    37   18   36 1
    38   19   37 1
    39   20   38 1
@<TRIPOS>MOLECULE
ZINC00039111
   31    33     0     0     0
SMALL
USER_CHARGES

@<TRIPOS>ATOM
      1 C1          0.9742   -0.2756   -0.9644 C.ar      1 <0>        -0.0745
      2 C2          2.1570    0.4328   -0.9701 C.ar      1 <0>        -0.1346
      3 C3          2.3856    1.4156   -0.0177 C.ar      1 <0>         0.1033
      4 C4          1.4202    1.6919    0.9495 C.ar      1 <0>         0.0786
      5 C5          0.2328    0.9864    0.9617 C.ar      1 <0>        -0.0758
      6 C6          0.0021   -0.0041    0.0020 C.ar      1 <0>        -0.0456
      7 C7         -1.2635   -0.7604    0.0100 C.2       1 <0>         0.1403
      8 C8         -2.4368   -0.0754    0.1235 C.2       1 <0>        -0.0467
      9 C9         -3.6626   -0.7880    0.1323 C.2       1 <0>         0.4008
     10 O1         -4.7322   -0.2087    0.2318 O.2       1 <0>        -0.4629
     11 C10        -3.5944   -2.2557    0.0159 C.ar      1 <0>        -0.2366
     12 C11        -4.7512   -3.0365    0.0154 C.ar      1 <0>        -0.0073
     13 C12        -4.6525   -4.3943   -0.0945 C.ar      1 <0>        -0.1753
     14 C13        -3.4042   -5.0031   -0.2055 C.ar      1 <0>         0.1824
     15 C14        -2.2474   -4.2422   -0.2064 C.ar      1 <0>        -0.1738
     16 C15        -2.3310   -2.8613   -0.0960 C.ar      1 <0>         0.1711
     17 O2         -1.2180   -2.0989   -0.1002 O.3       1 <0>        -0.1986
     18 O3         -3.3214   -6.3539   -0.3130 O.3       1 <0>        -0.4899
     19 O4         -2.4315    1.2815    0.2279 O.3       1 <0>        -0.4510
     20 O5          1.6479    2.6559    1.8814 O.3       1 <0>        -0.4836
     21 O6          3.5534    2.1101   -0.0273 O.3       1 <0>        -0.4861
     22 H1          0.7972   -1.0372   -1.7094 H         1 <0>         0.1379
     23 H2          2.9076    0.2220   -1.7175 H         1 <0>         0.1421
     24 H3         -0.5155    1.1990    1.7108 H         1 <0>         0.1431
     25 H4         -5.7208   -2.5688    0.1018 H         1 <0>         0.1490
     26 H5         -5.5471   -4.9994   -0.0951 H         1 <0>         0.1454
     27 H6         -1.2834   -4.7216   -0.2925 H         1 <0>         0.1536
     28 H7         -3.3428   -6.6780   -1.2239 H         1 <0>         0.4038
     29 H8         -3.3122    1.6736    0.3036 H         1 <0>         0.4078
     30 H9          1.3507    3.5371    1.6164 H         1 <0>         0.3905
     31 H10         3.5286    2.9137   -0.5648 H         1 <0>         0.3925
@<TRIPOS>BOND
     1    1    6 ar
     2    1    2 ar
     3    1   22 1
     4    2    3 ar
     5    2   23 1
     6    3    4 ar
     7    3   21 1
     8    4    5 ar
     9    4   20 1
    10    5    6 ar
    11    5   24 1
    12    6    7 1
    13    7   17 1
    14    7    8 2
    15    8    9 1
    16    8   19 1
    17    9   10 2
    18    9   11 1
    19   11   16 ar
    20   11   12 ar
    21   12   13 ar
    22   12   25 1
    23   13   14 ar
    24   13   26 1
    25   14   15 ar
    26   14   18 1
    27   15   16 ar
    28   15   27 1
    29   16   17 1
    30   18   28 1
    31   19   29 1
    32   20   30 1
    33   21   31 1
@<TRIPOS>MOLECULE
ZINC13507842
   47    48     0     0     0
SMALL
USER_CHARGES
4-[(2S,3R)-4-(4-hydroxy-3-methoxy-phenyl)-2,3-dimethyl-butyl]benzene-1,2-diol
@<TRIPOS>ATOM
      1 C1          3.9085   -1.3936   -0.8017 C.3       1 <0>        -0.1560
      2 C2          4.1888   -0.0520   -1.4816 C.3       1 <0>        -0.0806
      3 H1          4.9847    0.4668   -0.9473 H         1 <0>         0.0740
      4 C3          4.6200   -0.2942   -2.9294 C.3       1 <0>        -0.0795
      5 C4          5.9342   -1.0315   -2.9455 C.ar      1 <0>        -0.0688
      6 C5          5.9494   -2.4139   -2.9526 C.ar      1 <0>        -0.1083
      7 C6          7.1524   -3.0949   -2.9673 C.ar      1 <0>        -0.1282
      8 C7          8.3464   -2.3919   -2.9754 C.ar      1 <0>         0.0741
      9 C8          8.3311   -1.0005   -2.9687 C.ar      1 <0>         0.0831
     10 C9          7.1218   -0.3240   -2.9588 C.ar      1 <0>        -0.1289
     11 O1          9.5003   -0.3060   -2.9766 O.3       1 <0>        -0.4885
     12 O2          9.5307   -3.0603   -2.9904 O.3       1 <0>        -0.4888
     13 C10         2.9205    0.8037   -1.4635 C.3       1 <0>        -0.0783
     14 H2          2.1246    0.2849   -1.9977 H         1 <0>         0.0721
     15 C11         3.2008    2.1454   -2.1434 C.3       1 <0>        -0.1560
     16 C12         2.4893    1.0459   -0.0156 C.3       1 <0>        -0.0815
     17 C13         1.1751    1.7833    0.0004 C.ar      1 <0>        -0.0447
     18 C14         1.1599    3.1657    0.0080 C.ar      1 <0>        -0.1375
     19 C15        -0.0431    3.8467    0.0237 C.ar      1 <0>        -0.1042
     20 C16        -1.2371    3.1437    0.0313 C.ar      1 <0>         0.0675
     21 C17        -1.2218    1.7523    0.0174 C.ar      1 <0>         0.1052
     22 C18        -0.0126    1.0758    0.0080 C.ar      1 <0>        -0.1934
     23 O3         -2.3911    1.0578    0.0191 O.3       1 <0>        -0.3085
     24 C19        -2.2988   -0.3681    0.0109 C.3       1 <0>         0.0250
     25 O4         -2.4214    3.8121    0.0463 O.3       1 <0>        -0.4871
     26 H3          3.1125   -1.9124   -1.3359 H         1 <0>         0.0546
     27 H4          4.8120   -2.0032   -0.8145 H         1 <0>         0.0597
     28 H5          3.6012   -1.2211    0.2298 H         1 <0>         0.0585
     29 H6          3.8629   -0.8900   -3.4392 H         1 <0>         0.0750
     30 H7          4.7338    0.6624   -3.4395 H         1 <0>         0.0791
     31 H8          5.0195   -2.9630   -2.9463 H         1 <0>         0.1294
     32 H9          7.1615   -4.1749   -2.9729 H         1 <0>         0.1329
     33 H10         7.1071    0.7559   -2.9573 H         1 <0>         0.1321
     34 H11         9.8301   -0.1010   -3.8622 H         1 <0>         0.3875
     35 H12         9.8646   -3.2492   -3.8780 H         1 <0>         0.3869
     36 H13         3.5081    1.9728   -3.1749 H         1 <0>         0.0577
     37 H14         2.2973    2.7550   -2.1305 H         1 <0>         0.0605
     38 H15         3.9968    2.6642   -1.6092 H         1 <0>         0.0557
     39 H16         3.2464    1.6417    0.4941 H         1 <0>         0.0762
     40 H17         2.3755    0.0894    0.4944 H         1 <0>         0.0778
     41 H18         2.0898    3.7148    0.0021 H         1 <0>         0.1284
     42 H19        -0.0522    4.9266    0.0296 H         1 <0>         0.1355
     43 H20         0.0021   -0.0041    0.0020 H         1 <0>         0.1312
     44 H21        -1.7668   -0.6926   -0.8834 H         1 <0>         0.0553
     45 H22        -1.7584   -0.7024    0.8965 H         1 <0>         0.0560
     46 H23        -3.3009   -0.7971    0.0132 H         1 <0>         0.1018
     47 H24        -2.7723    4.0102   -0.8328 H         1 <0>         0.3858
@<TRIPOS>BOND
     1    1    2 1
     2    1   26 1
     3    1   27 1
     4    1   28 1
     5    2    3 1
     6    2    4 1
     7    2   13 1
     8    4    5 1
     9    4   29 1
    10    4   30 1
    11    5   10 ar
    12    5    6 ar
    13    6    7 ar
    14    6   31 1
    15    7    8 ar
    16    7   32 1
    17    8    9 ar
    18    8   12 1
    19    9   10 ar
    20    9   11 1
    21   10   33 1
    22   11   34 1
    23   12   35 1
    24   13   14 1
    25   13   15 1
    26   13   16 1
    27   15   36 1
    28   15   37 1
    29   15   38 1
    30   16   17 1
    31   16   39 1
    32   16   40 1
    33   17   22 ar
    34   17   18 ar
    35   18   19 ar
    36   18   41 1
    37   19   20 ar
    38   19   42 1
    39   20   21 ar
    40   20   25 1
    41   21   22 ar
    42   21   23 1
    43   22   43 1
    44   23   24 1
    45   24   44 1
    46   24   45 1
    47   24   46 1
    48   25   47 1
@<TRIPOS>MOLECULE
ZINC05430812
   56    58     0     0     0
SMALL
USER_CHARGES

@<TRIPOS>ATOM
      1 C1         -0.1716    1.4909    0.0169 C.3       1 <0>        -0.1226
      2 C2         -0.0710   -0.0127    0.0071 C.2       1 <0>        -0.1279
      3 C3          0.1206   -0.6637    1.1276 C.2       1 <0>        -0.1623
      4 C4          0.1232    0.0784    2.4392 C.3       1 <0>        -0.0426
      5 C5         -0.8640   -0.5621    3.3807 C.ar      1 <0>        -0.1608
      6 C6         -2.1862   -0.1320    3.3999 C.ar      1 <0>         0.1967
      7 C7         -3.1061   -0.7076    4.2624 C.ar      1 <0>        -0.1812
      8 C8         -2.7173   -1.7274    5.1200 C.ar      1 <0>         0.1863
      9 C9         -1.3828   -2.1686    5.0932 C.ar      1 <0>        -0.2628
     10 C10        -0.4565   -1.5815    4.2215 C.ar      1 <0>         0.2209
     11 O1          0.8319   -2.0064    4.2059 O.3       1 <0>        -0.4717
     12 C11        -0.9877   -3.2676    5.9925 C.2       1 <0>         0.4418
     13 O2          0.1800   -3.5529    6.1898 O.2       1 <0>        -0.4213
     14 C12        -2.0942   -4.0017    6.6403 C.ar      1 <0>        -0.2216
     15 C13        -3.3860   -3.4536    6.5807 C.ar      1 <0>         0.1729
     16 O3         -3.6148   -2.2762    5.9633 O.3       1 <0>        -0.2206
     17 C14        -4.4378   -4.1396    7.1752 C.ar      1 <0>        -0.1673
     18 C15        -4.2074   -5.3413    7.8210 C.ar      1 <0>         0.1618
     19 C16        -2.9198   -5.8789    7.8846 C.ar      1 <0>         0.0416
     20 C17        -1.8650   -5.2121    7.2956 C.ar      1 <0>         0.0152
     21 C18        -0.4738   -5.7879    7.3594 C.3       1 <0>        -0.0611
     22 C19         0.2246   -5.2785    8.5939 C.2       1 <0>        -0.1431
     23 C20         0.7360   -6.1246    9.4533 C.2       1 <0>        -0.1263
     24 C21         0.6260   -7.6074    9.2075 C.3       1 <0>        -0.1213
     25 C22         1.4344   -5.6152   10.6878 C.3       1 <0>        -0.1161
     26 O4         -2.7058   -7.0591    8.5266 O.3       1 <0>        -0.3115
     27 C23        -2.8128   -8.2511    7.7457 C.3       1 <0>         0.0270
     28 O5         -5.2424   -6.0039    8.3988 O.3       1 <0>        -0.4773
     29 O6         -2.5804    0.8628    2.5651 O.3       1 <0>        -0.4836
     30 C24        -0.1908   -0.7674   -1.2918 C.3       1 <0>        -0.1196
     31 H1          0.7134    1.9111    0.4947 H         1 <0>         0.0659
     32 H2         -0.2400    1.8572   -1.0074 H         1 <0>         0.0609
     33 H3         -1.0610    1.7919    0.5705 H         1 <0>         0.0718
     34 H4          0.2767   -1.7323    1.1114 H         1 <0>         0.1096
     35 H5          1.1206    0.0392    2.8769 H         1 <0>         0.0834
     36 H6         -0.1585    1.1176    2.2692 H         1 <0>         0.0911
     37 H7         -4.1290   -0.3611    4.2673 H         1 <0>         0.1531
     38 H8          1.4088   -1.5356    4.8229 H         1 <0>         0.4030
     39 H9         -5.4378   -3.7339    7.1329 H         1 <0>         0.1555
     40 H10        -0.5322   -6.8756    7.3978 H         1 <0>         0.0833
     41 H11         0.0857   -5.4850    6.4744 H         1 <0>         0.1055
     42 H12         0.3034   -4.2159    8.7700 H         1 <0>         0.1070
     43 H13         1.1178   -7.8573    8.2674 H         1 <0>         0.0624
     44 H14         1.1061   -8.1475   10.0235 H         1 <0>         0.0590
     45 H15        -0.4254   -7.8898    9.1538 H         1 <0>         0.0729
     46 H16         0.7118   -5.5112   11.4972 H         1 <0>         0.0663
     47 H17         2.2113   -6.3205   10.9828 H         1 <0>         0.0623
     48 H18         1.8851   -4.6456   10.4762 H         1 <0>         0.0608
     49 H19        -3.8170   -8.3229    7.3280 H         1 <0>         0.0451
     50 H20        -2.0837   -8.2218    6.9360 H         1 <0>         0.0484
     51 H21        -2.6194   -9.1180    8.3776 H         1 <0>         0.1002
     52 H22        -5.6863   -6.6297    7.8103 H         1 <0>         0.3971
     53 H23        -2.8982    0.5527    1.7061 H         1 <0>         0.4013
     54 H24        -0.3461   -0.0626   -2.1086 H         1 <0>         0.0626
     55 H25         0.7239   -1.3331   -1.4690 H         1 <0>         0.0653
     56 H26        -1.0369   -1.4525   -1.2373 H         1 <0>         0.0647
@<TRIPOS>BOND
     1    1    2 1
     2    1   31 1
     3    1   32 1
     4    1   33 1
     5    2    3 2
     6    2   30 1
     7    3    4 1
     8    3   34 1
     9    4    5 1
    10    4   35 1
    11    4   36 1
    12    5   10 ar
    13    5    6 ar
    14    6    7 ar
    15    6   29 1
    16    7    8 ar
    17    7   37 1
    18    8   16 1
    19    8    9 ar
    20    9   10 ar
    21    9   12 1
    22   10   11 1
    23   11   38 1
    24   12   13 2
    25   12   14 1
    26   14   20 ar
    27   14   15 ar
    28   15   16 1
    29   15   17 ar
    30   17   18 ar
    31   17   39 1
    32   18   19 ar
    33   18   28 1
    34   19   20 ar
    35   19   26 1
    36   20   21 1
    37   21   22 1
    38   21   40 1
    39   21   41 1
    40   22   23 2
    41   22   42 1
    42   23   24 1
    43   23   25 1
    44   24   43 1
    45   24   44 1
    46   24   45 1
    47   25   46 1
    48   25   47 1
    49   25   48 1
    50   26   27 1
    51   27   49 1
    52   27   50 1
    53   27   51 1
    54   28   52 1
    55   29   53 1
    56   30   54 1
    57   30   55 1
    58   30   56 1
@<TRIPOS>MOLECULE
ZINC05430812
   55    57     0     0     0
SMALL
USER_CHARGES

@<TRIPOS>ATOM
      1 C1         -0.8510    2.1659    0.2391 C.3       1 <0>        -0.1183
      2 C2         -0.1716    0.8232    0.1586 C.2       1 <0>        -0.1427
      3 C3          0.1514    0.1856    1.2565 C.2       1 <0>        -0.1488
      4 C4         -0.2428    0.7478    2.5980 C.3       1 <0>        -0.0384
      5 C5         -1.0453   -0.2778    3.3563 C.ar      1 <0>        -0.1820
      6 C6         -2.4298   -0.3155    3.2190 C.ar      1 <0>         0.1874
      7 C7         -3.1836   -1.2526    3.9095 C.ar      1 <0>        -0.1950
      8 C8         -2.5634   -2.1659    4.7475 C.ar      1 <0>         0.1936
      9 C9         -1.1615   -2.1333    4.8907 C.ar      1 <0>        -0.2270
     10 C10        -0.4046   -1.1805    4.1805 C.ar      1 <0>         0.2239
     11 O1          0.9451   -1.1473    4.3100 O.3       1 <0>        -0.4627
     12 C11        -0.5258   -3.0644    5.7457 C.2       1 <0>         0.3796
     13 C12        -1.3292   -4.0001    6.4300 C.2       1 <0>        -0.3196
     14 C13        -0.7429   -4.9469    7.2931 C.2       1 <0>         0.0475
     15 C14        -1.5258   -5.8448    7.9490 C.2       1 <0>        -0.0640
     16 C15        -2.9266   -5.8317    7.7678 C.2       1 <0>         0.3280
     17 O2         -3.6876   -6.7149    8.4141 O.2       1 <0>        -0.6453
     18 C16        -3.5180   -4.8966    6.9144 C.2       1 <0>        -0.3028
     19 C17        -2.7299   -3.9806    6.2434 C.2       1 <0>         0.2005
     20 O3         -3.3003   -3.0762    5.4187 O.3       1 <0>        -0.2269
     21 O4         -0.9581   -6.7587    8.7818 O.3       1 <0>        -0.3135
     22 C18        -1.0509   -8.1320    8.3978 C.3       1 <0>         0.0309
     23 C19         0.7512   -4.9649    7.4891 C.3       1 <0>        -0.0625
     24 C20         1.1359   -3.9297    8.5145 C.2       1 <0>        -0.1004
     25 C21         1.7524   -4.2925    9.6120 C.2       1 <0>        -0.1689
     26 C22         1.9983   -5.7529    9.8906 C.3       1 <0>        -0.1179
     27 C23         2.2156   -3.2493   10.5959 C.3       1 <0>        -0.1056
     28 O5          0.8135   -3.0575    5.9019 O.3       1 <0>        -0.5491
     29 O6         -3.0481    0.5738    2.4019 O.3       1 <0>        -0.4874
     30 C24         0.1364    0.2138   -1.1849 C.3       1 <0>        -0.1158
     31 H1         -0.2504    2.8410    0.8486 H         1 <0>         0.0635
     32 H2         -0.9579    2.5797   -0.7637 H         1 <0>         0.0566
     33 H3         -1.8361    2.0481    0.6904 H         1 <0>         0.0714
     34 H4          0.7000   -0.7429    1.2002 H         1 <0>         0.1095
     35 H5          0.6540    0.9989    3.1644 H         1 <0>         0.0797
     36 H6         -0.8442    1.6453    2.4533 H         1 <0>         0.0858
     37 H7         -4.2573   -1.2707    3.7941 H         1 <0>         0.1462
     38 H8          1.2577   -0.5756    5.0245 H         1 <0>         0.3950
     39 H9         -4.5894   -4.8900    6.7786 H         1 <0>         0.1220
     40 H10        -0.4964   -8.2889    7.4726 H         1 <0>         0.0274
     41 H11        -0.6301   -8.7585    9.1843 H         1 <0>         0.0750
     42 H12        -2.0971   -8.3963    8.2436 H         1 <0>         0.0573
     43 H13         1.0605   -5.9513    7.8348 H         1 <0>         0.0683
     44 H14         1.2444   -4.7402    6.5433 H         1 <0>         0.1148
     45 H15         0.9033   -2.8888    8.3446 H         1 <0>         0.1011
     46 H16         2.9186   -6.0668    9.3981 H         1 <0>         0.0518
     47 H17         2.0906   -5.9072   10.9656 H         1 <0>         0.0488
     48 H18         1.1635   -6.3411    9.5095 H         1 <0>         0.0846
     49 H19         1.3575   -2.6792   10.9520 H         1 <0>         0.0561
     50 H20         2.7034   -3.7370   11.4399 H         1 <0>         0.0532
     51 H21         2.9211   -2.5770   10.1075 H         1 <0>         0.0558
     52 H22        -3.1450    0.2681    1.4896 H         1 <0>         0.3941
     53 H23        -0.2031    0.8843   -1.9744 H         1 <0>         0.0591
     54 H24         1.2116    0.0601   -1.2762 H         1 <0>         0.0627
     55 H25        -0.3766   -0.7436   -1.2758 H         1 <0>         0.0635
@<TRIPOS>BOND
     1    1    2 1
     2    1   31 1
     3    1   32 1
     4    1   33 1
     5    2    3 2
     6    2   30 1
     7    3    4 1
     8    3   34 1
     9    4    5 1
    10    4   35 1
    11    4   36 1
    12    5   10 ar
    13    5    6 ar
    14    6    7 ar
    15    6   29 1
    16    7    8 ar
    17    7   37 1
    18    8   20 1
    19    8    9 ar
    20    9   10 ar
    21    9   12 1
    22   10   11 1
    23   11   38 1
    24   12   13 2
    25   12   28 1
    26   13   19 1
    27   13   14 1
    28   14   15 2
    29   14   23 1
    30   15   16 1
    31   15   21 1
    32   16   17 2
    33   16   18 1
    34   18   19 2
    35   18   39 1
    36   19   20 1
    37   21   22 1
    38   22   40 1
    39   22   41 1
    40   22   42 1
    41   23   24 1
    42   23   43 1
    43   23   44 1
    44   24   25 2
    45   24   45 1
    46   25   26 1
    47   25   27 1
    48   26   46 1
    49   26   47 1
    50   26   48 1
    51   27   49 1
    52   27   50 1
    53   27   51 1
    54   29   52 1
    55   30   53 1
    56   30   54 1
    57   30   55 1
@<TRIPOS>MOLECULE
ZINC05766291
   36    38     0     0     0
SMALL
USER_CHARGES
3-(4-methoxyphenyl)chroman-7,8-diol
@<TRIPOS>ATOM
      1 C1          0.8276    8.2806   -0.5911 C.3       1 <0>         0.0262
      2 O1          1.4949    7.5427    0.4347 O.3       1 <0>        -0.3172
      3 C2          1.4792    6.1878    0.3298 C.ar      1 <0>         0.1289
      4 C3          2.1076    5.4092    1.2908 C.ar      1 <0>        -0.1486
      5 C4          2.0906    4.0322    1.1816 C.ar      1 <0>        -0.0693
      6 C5          1.4483    3.4299    0.1156 C.ar      1 <0>        -0.1185
      7 C6          0.8261    4.2039   -0.8465 C.ar      1 <0>        -0.0737
      8 C7          0.8351    5.5811   -0.7387 C.ar      1 <0>        -0.2048
      9 C8          1.4317    1.9275   -0.0013 C.3       1 <0>        -0.0793
     10 H1          1.9800    1.4876    0.8318 H         1 <0>         0.0947
     11 C9          2.0768    1.5057   -1.3237 C.3       1 <0>        -0.0691
     12 C10         1.8020    0.0453   -1.5798 C.ar      1 <0>        -0.1553
     13 C11         2.5856   -0.6269   -2.5047 C.ar      1 <0>        -0.0752
     14 C12         2.3606   -1.9622   -2.7740 C.ar      1 <0>        -0.1604
     15 C13         1.3448   -2.6398   -2.1164 C.ar      1 <0>         0.1132
     16 C14         0.5587   -1.9719   -1.1876 C.ar      1 <0>         0.0502
     17 C15         0.7891   -0.6240   -0.9169 C.ar      1 <0>         0.1219
     18 O2          0.0021   -0.0041    0.0020 O.3       1 <0>        -0.3008
     19 C16        -0.0173    1.4240    0.0099 C.3       1 <0>         0.0676
     20 O3         -0.4385   -2.6340   -0.5401 O.3       1 <0>        -0.4793
     21 O4          1.1192   -3.9545   -2.3811 O.3       1 <0>        -0.4895
     22 H2          1.2835    8.0562   -1.5554 H         1 <0>         0.0564
     23 H3         -0.2257    8.0008   -0.6133 H         1 <0>         0.0565
     24 H4          0.9158    9.3477   -0.3870 H         1 <0>         0.1020
     25 H5          2.6094    5.8792    2.1236 H         1 <0>         0.1330
     26 H6          2.5797    3.4256    1.9295 H         1 <0>         0.1313
     27 H7          0.3292    3.7312   -1.6808 H         1 <0>         0.1245
     28 H8          0.3448    6.1851   -1.4878 H         1 <0>         0.1297
     29 H9          3.1533    1.6683   -1.2702 H         1 <0>         0.0880
     30 H10         1.6607    2.1010   -2.1364 H         1 <0>         0.0827
     31 H11         3.3774   -0.1023   -3.0187 H         1 <0>         0.1337
     32 H12         2.9751   -2.4787   -3.4965 H         1 <0>         0.1365
     33 H13        -0.5396    1.7889   -0.8745 H         1 <0>         0.0670
     34 H14        -0.5225    1.7794    0.9079 H         1 <0>         0.1125
     35 H15        -1.2920   -2.6002   -0.9933 H         1 <0>         0.3884
     36 H16         1.6191   -4.5606   -1.8174 H         1 <0>         0.3961
@<TRIPOS>BOND
     1    1    2 1
     2    1   22 1
     3    1   23 1
     4    1   24 1
     5    2    3 1
     6    3    8 ar
     7    3    4 ar
     8    4    5 ar
     9    4   25 1
    10    5    6 ar
    11    5   26 1
    12    6    7 ar
    13    6    9 1
    14    7    8 ar
    15    7   27 1
    16    8   28 1
    17    9   10 1
    18    9   19 1
    19    9   11 1
    20   11   12 1
    21   11   29 1
    22   11   30 1
    23   12   17 ar
    24   12   13 ar
    25   13   14 ar
    26   13   31 1
    27   14   15 ar
    28   14   32 1
    29   15   16 ar
    30   15   21 1
    31   16   17 ar
    32   16   20 1
    33   17   18 1
    34   18   19 1
    35   19   33 1
    36   19   34 1
    37   20   35 1
    38   21   36 1
@<TRIPOS>MOLECULE
ZINC05766293
   35    37     0     0     0
SMALL
USER_CHARGES
3-(p-tolyl)chroman-7,8-diol
@<TRIPOS>ATOM
      1 C1          1.4969    7.6885    0.4458 C.3       1 <0>        -0.1180
      2 C2          1.4795    6.1861    0.3295 C.ar      1 <0>        -0.0842
      3 C3          2.1057    5.4114    1.2879 C.ar      1 <0>        -0.1177
      4 C4          2.0901    4.0333    1.1809 C.ar      1 <0>        -0.1061
      5 C5          1.4483    3.4299    0.1156 C.ar      1 <0>        -0.0862
      6 C6          0.8266    4.2048   -0.8456 C.ar      1 <0>        -0.1107
      7 C7          0.8377    5.5828   -0.7359 C.ar      1 <0>        -0.1174
      8 C8          1.4317    1.9275   -0.0013 C.3       1 <0>        -0.0838
      9 H1          1.9800    1.4876    0.8318 H         1 <0>         0.0943
     10 C9          2.0768    1.5057   -1.3237 C.3       1 <0>        -0.0685
     11 C10         1.8020    0.0453   -1.5798 C.ar      1 <0>        -0.1552
     12 C11         2.5856   -0.6269   -2.5047 C.ar      1 <0>        -0.0751
     13 C12         2.3606   -1.9622   -2.7740 C.ar      1 <0>        -0.1602
     14 C13         1.3448   -2.6398   -2.1164 C.ar      1 <0>         0.1132
     15 C14         0.5587   -1.9719   -1.1876 C.ar      1 <0>         0.0505
     16 C15         0.7891   -0.6240   -0.9169 C.ar      1 <0>         0.1216
     17 O1          0.0021   -0.0041    0.0020 O.3       1 <0>        -0.3007
     18 C16        -0.0173    1.4240    0.0099 C.3       1 <0>         0.0683
     19 O2         -0.4385   -2.6340   -0.5401 O.3       1 <0>        -0.4793
     20 O3          1.1192   -3.9545   -2.3811 O.3       1 <0>        -0.4894
     21 H2          2.3726    8.0828   -0.0698 H         1 <0>         0.0718
     22 H3          0.5939    8.0985   -0.0065 H         1 <0>         0.0672
     23 H4          1.5368    7.9711    1.4978 H         1 <0>         0.0673
     24 H5          2.6074    5.8828    2.1200 H         1 <0>         0.1236
     25 H6          2.5796    3.4280    1.9295 H         1 <0>         0.1232
     26 H7          0.3290    3.7336   -1.6803 H         1 <0>         0.1215
     27 H8          0.3488    6.1881   -1.4849 H         1 <0>         0.1233
     28 H9          3.1533    1.6683   -1.2702 H         1 <0>         0.0877
     29 H10         1.6607    2.1010   -2.1364 H         1 <0>         0.0837
     30 H11         3.3774   -0.1023   -3.0187 H         1 <0>         0.1338
     31 H12         2.9751   -2.4787   -3.4965 H         1 <0>         0.1367
     32 H13        -0.5396    1.7889   -0.8745 H         1 <0>         0.0679
     33 H14        -0.5225    1.7794    0.9079 H         1 <0>         0.1122
     34 H15        -1.2920   -2.6002   -0.9933 H         1 <0>         0.3885
     35 H16         1.6191   -4.5606   -1.8174 H         1 <0>         0.3961
@<TRIPOS>BOND
     1    1    2 1
     2    1   21 1
     3    1   22 1
     4    1   23 1
     5    2    7 ar
     6    2    3 ar
     7    3    4 ar
     8    3   24 1
     9    4    5 ar
    10    4   25 1
    11    5    6 ar
    12    5    8 1
    13    6    7 ar
    14    6   26 1
    15    7   27 1
    16    8    9 1
    17    8   18 1
    18    8   10 1
    19   10   11 1
    20   10   28 1
    21   10   29 1
    22   11   16 ar
    23   11   12 ar
    24   12   13 ar
    25   12   30 1
    26   13   14 ar
    27   13   31 1
    28   14   15 ar
    29   14   20 1
    30   15   16 ar
    31   15   19 1
    32   16   17 1
    33   17   18 1
    34   18   32 1
    35   18   33 1
    36   19   34 1
    37   20   35 1
@<TRIPOS>MOLECULE
ZINC03869685
   32    34     0     0     0
SMALL
USER_CHARGES

@<TRIPOS>ATOM
      1 C1          0.9741   -0.2755   -0.9644 C.ar      1 <0>        -0.0748
      2 C2          2.1569    0.4329   -0.9701 C.ar      1 <0>        -0.1346
      3 C3          2.3856    1.4156   -0.0177 C.ar      1 <0>         0.1032
      4 C4          1.4203    1.6918    0.9495 C.ar      1 <0>         0.0788
      5 C5          0.2328    0.9863    0.9617 C.ar      1 <0>        -0.0762
      6 C6          0.0021   -0.0041    0.0020 C.ar      1 <0>        -0.0447
      7 C7         -1.2637   -0.7605    0.0100 C.2       1 <0>         0.1350
      8 C8         -2.4363   -0.0759    0.1235 C.2       1 <0>        -0.0429
      9 C9         -3.6628   -0.7894    0.1327 C.2       1 <0>         0.4011
     10 O1         -4.7327   -0.2102    0.2323 O.2       1 <0>        -0.4484
     11 C10        -3.5946   -2.2549    0.0170 C.ar      1 <0>        -0.2690
     12 C11        -4.7561   -3.0387    0.0170 C.ar      1 <0>         0.2244
     13 C12        -4.6504   -4.4123   -0.0941 C.ar      1 <0>        -0.2081
     14 C13        -3.3994   -5.0103   -0.2044 C.ar      1 <0>         0.2000
     15 C14        -2.2463   -4.2416   -0.2047 C.ar      1 <0>        -0.1854
     16 C15        -2.3316   -2.8618   -0.0952 C.ar      1 <0>         0.1876
     17 O2         -1.2182   -2.0992   -0.1003 O.3       1 <0>        -0.1970
     18 O3         -3.3070   -6.3605   -0.3125 O.3       1 <0>        -0.4866
     19 O4         -5.9758   -2.4535    0.1257 O.3       1 <0>        -0.4726
     20 O5         -2.4312    1.2810    0.2275 O.3       1 <0>        -0.4502
     21 O6          1.6480    2.6557    1.8815 O.3       1 <0>        -0.4836
     22 O7          3.5534    2.1101   -0.0273 O.3       1 <0>        -0.4861
     23 H1          0.7971   -1.0371   -1.7094 H         1 <0>         0.1379
     24 H2          2.9075    0.2221   -1.7176 H         1 <0>         0.1421
     25 H3         -0.5155    1.1988    1.7108 H         1 <0>         0.1429
     26 H4         -5.5413   -5.0229   -0.0948 H         1 <0>         0.1515
     27 H5         -1.2805   -4.7174   -0.2903 H         1 <0>         0.1559
     28 H6         -3.3257   -6.6843   -1.2235 H         1 <0>         0.4050
     29 H7         -6.3751   -2.2160   -0.7224 H         1 <0>         0.4036
     30 H8         -3.3120    1.6729    0.3033 H         1 <0>         0.4079
     31 H9          1.3508    3.5370    1.6166 H         1 <0>         0.3905
     32 H10         3.5287    2.9137   -0.5647 H         1 <0>         0.3924
@<TRIPOS>BOND
     1    1    6 ar
     2    1    2 ar
     3    1   23 1
     4    2    3 ar
     5    2   24 1
     6    3    4 ar
     7    3   22 1
     8    4    5 ar
     9    4   21 1
    10    5    6 ar
    11    5   25 1
    12    6    7 1
    13    7   17 1
    14    7    8 2
    15    8    9 1
    16    8   20 1
    17    9   10 2
    18    9   11 1
    19   11   16 ar
    20   11   12 ar
    21   12   13 ar
    22   12   19 1
    23   13   14 ar
    24   13   26 1
    25   14   15 ar
    26   14   18 1
    27   15   16 ar
    28   15   27 1
    29   16   17 1
    30   18   28 1
    31   19   29 1
    32   20   30 1
    33   21   31 1
    34   22   32 1
@<TRIPOS>MOLECULE
ZINC03869685
   31    33     0     0     0
SMALL
USER_CHARGES

@<TRIPOS>ATOM
      1 C1          0.1390    1.1246   -0.8120 C.ar      1 <0>        -0.0626
      2 C2          1.3229    1.8301   -0.8179 C.ar      1 <0>        -0.1333
      3 C3          2.3812    1.4233   -0.0172 C.ar      1 <0>         0.0878
      4 C4          2.2522    0.2984    0.7970 C.ar      1 <0>         0.0757
      5 C5          1.0694   -0.4139    0.8086 C.ar      1 <0>        -0.0997
      6 C6          0.0021   -0.0041    0.0020 C.ar      1 <0>        -0.0194
      7 C7         -1.2620   -0.7597    0.0100 C.2       1 <0>         0.1007
      8 C8         -2.4587   -0.0763    0.1245 C.2       1 <0>        -0.0038
      9 C9         -3.6655   -0.7872    0.1324 C.2       1 <0>         0.3349
     10 C10        -3.6167   -2.1939    0.0219 C.2       1 <0>        -0.3331
     11 C11        -4.8018   -2.9593    0.0240 C.2       1 <0>         0.2664
     12 C12        -4.7326   -4.3182   -0.0844 C.2       1 <0>        -0.3749
     13 C13        -3.4871   -4.9570   -0.1979 C.2       1 <0>         0.3648
     14 O1         -3.4307   -6.2860   -0.3033 O.2       1 <0>        -0.6598
     15 C14        -2.3054   -4.2086   -0.2016 C.2       1 <0>        -0.3143
     16 C15        -2.3616   -2.8325   -0.0921 C.2       1 <0>         0.2118
     17 O2         -1.2290   -2.0988   -0.0996 O.3       1 <0>        -0.2018
     18 O3         -6.0073   -2.3463    0.1339 O.3       1 <0>        -0.4482
     19 O4         -4.8484   -0.1420    0.2437 O.3       1 <0>        -0.5747
     20 O5         -2.4638    1.2803    0.2294 O.3       1 <0>        -0.4649
     21 O6          3.2919   -0.0973    1.5794 O.3       1 <0>        -0.4856
     22 O7          3.5458    2.1225   -0.0269 O.3       1 <0>        -0.4881
     23 H1         -0.6843    1.4460   -1.4327 H         1 <0>         0.1397
     24 H2          1.4276    2.7014   -1.4473 H         1 <0>         0.1381
     25 H3          0.9685   -1.2854    1.4384 H         1 <0>         0.1410
     26 H4         -5.6395   -4.9047   -0.0825 H         1 <0>         0.1180
     27 H5         -1.3506   -4.7057   -0.2895 H         1 <0>         0.1230
     28 H6         -6.7597   -2.9537    0.1258 H         1 <0>         0.3847
     29 H7         -3.3475    1.6656    0.3047 H         1 <0>         0.4058
     30 H8          3.2925    0.2977    2.4620 H         1 <0>         0.3855
     31 H9          3.5825    2.8346    0.6263 H         1 <0>         0.3863
@<TRIPOS>BOND
     1    1    6 ar
     2    1    2 ar
     3    1   23 1
     4    2    3 ar
     5    2   24 1
     6    3    4 ar
     7    3   22 1
     8    4    5 ar
     9    4   21 1
    10    5    6 ar
    11    5   25 1
    12    6    7 1
    13    7   17 1
    14    7    8 2
    15    8    9 1
    16    8   20 1
    17    9   10 2
    18    9   19 1
    19   10   16 1
    20   10   11 1
    21   11   12 2
    22   11   18 1
    23   12   13 1
    24   12   26 1
    25   13   14 2
    26   13   15 1
    27   15   16 2
    28   15   27 1
    29   16   17 1
    30   18   28 1
    31   20   29 1
    32   21   30 1
    33   22   31 1
@<TRIPOS>MOLECULE
ZINC00056472
   44    45     0     0     0
SMALL
USER_CHARGES

@<TRIPOS>ATOM
      1 C1         -0.0187    1.5258    0.0104 C.3       1 <0>        -0.1531
      2 C2          0.0021   -0.0041    0.0020 C.3       1 <0>        -0.0796
      3 H1          0.5293   -0.3651    0.8851 H         1 <0>         0.0740
      4 C3         -1.4333   -0.5336    0.0129 C.3       1 <0>        -0.0824
      5 C4         -2.1001   -0.1511    1.3091 C.ar      1 <0>        -0.0689
      6 C5         -2.0198   -0.9949    2.4013 C.ar      1 <0>        -0.1099
      7 C6         -2.6297   -0.6485    3.5925 C.ar      1 <0>        -0.1273
      8 C7         -3.3231    0.5469    3.6939 C.ar      1 <0>         0.0740
      9 C8         -3.4036    1.3964    2.5947 C.ar      1 <0>         0.0820
     10 C9         -2.7858    1.0454    1.4050 C.ar      1 <0>        -0.1267
     11 O1         -4.0829    2.5707    2.6892 O.3       1 <0>        -0.4883
     12 O2         -3.9241    0.8890    4.8649 O.3       1 <0>        -0.4888
     13 C10         0.7182   -0.4975   -1.2568 C.3       1 <0>        -0.0796
     14 H2          0.1910   -0.1364   -2.1398 H         1 <0>         0.0740
     15 C11         2.1536    0.0321   -1.2676 C.3       1 <0>        -0.1531
     16 C12         0.7390   -2.0273   -1.2652 C.3       1 <0>        -0.0824
     17 C13         1.3339   -2.5145   -2.5613 C.ar      1 <0>        -0.0689
     18 C14         0.5162   -2.7441   -3.6522 C.ar      1 <0>        -0.1099
     19 C15         1.0571   -3.1910   -4.8433 C.ar      1 <0>        -0.1273
     20 C16         2.4216   -3.4095   -4.9459 C.ar      1 <0>         0.0740
     21 C17         3.2446   -3.1780   -3.8479 C.ar      1 <0>         0.0820
     22 C18         2.6966   -2.7254   -2.6584 C.ar      1 <0>        -0.1267
     23 O3          4.5844   -3.3909   -3.9436 O.3       1 <0>        -0.4884
     24 O4          2.9552   -3.8496   -6.1168 O.3       1 <0>        -0.4888
     25 H3          1.0039    1.9031    0.0027 H         1 <0>         0.0586
     26 H4         -0.5459    1.8868   -0.8726 H         1 <0>         0.0549
     27 H5         -0.5289    1.8773    0.9072 H         1 <0>         0.0570
     28 H6         -1.9862   -0.1019   -0.8214 H         1 <0>         0.0754
     29 H7         -1.4207   -1.6194   -0.0826 H         1 <0>         0.0803
     30 H8         -1.4796   -1.9269    2.3236 H         1 <0>         0.1296
     31 H9         -2.5661   -1.3097    4.4441 H         1 <0>         0.1331
     32 H10        -2.8436    1.7047    0.5515 H         1 <0>         0.1323
     33 H11        -3.5398    3.3172    2.9769 H         1 <0>         0.3871
     34 H12        -3.3584    1.3947    5.4643 H         1 <0>         0.3869
     35 H13         2.1388    1.1220   -1.2617 H         1 <0>         0.0587
     36 H14         2.6808   -0.3290   -0.3846 H         1 <0>         0.0549
     37 H15         2.6638   -0.3194   -2.1644 H         1 <0>         0.0570
     38 H16         1.3413   -2.3871   -0.4310 H         1 <0>         0.0754
     39 H17        -0.2789   -2.4050   -1.1679 H         1 <0>         0.0803
     40 H18        -0.5474   -2.5742   -3.5736 H         1 <0>         0.1296
     41 H19         0.4161   -3.3703   -5.6939 H         1 <0>         0.1331
     42 H20         3.3337   -2.5414   -1.8059 H         1 <0>         0.1323
     43 H21         5.0860   -2.6165   -4.2331 H         1 <0>         0.3871
     44 H22         3.2237   -3.1410   -6.7176 H         1 <0>         0.3869
@<TRIPOS>BOND
     1    1    2 1
     2    1   25 1
     3    1   26 1
     4    1   27 1
     5    2    3 1
     6    2    4 1
     7    2   13 1
     8    4    5 1
     9    4   28 1
    10    4   29 1
    11    5   10 ar
    12    5    6 ar
    13    6    7 ar
    14    6   30 1
    15    7    8 ar
    16    7   31 1
    17    8    9 ar
    18    8   12 1
    19    9   10 ar
    20    9   11 1
    21   10   32 1
    22   11   33 1
    23   12   34 1
    24   13   14 1
    25   13   15 1
    26   13   16 1
    27   15   35 1
    28   15   36 1
    29   15   37 1
    30   16   17 1
    31   16   38 1
    32   16   39 1
    33   17   22 ar
    34   17   18 ar
    35   18   19 ar
    36   18   40 1
    37   19   20 ar
    38   19   41 1
    39   20   21 ar
    40   20   24 1
    41   21   22 ar
    42   21   23 1
    43   22   42 1
    44   23   43 1
    45   24   44 1
@<TRIPOS>MOLECULE
ZINC02769764
   22    23     0     0     0
SMALL
USER_CHARGES

@<TRIPOS>ATOM
      1 C1         -0.0167    1.3786    0.0096 C.ar      1 <0>        -0.1712
      2 C2          1.1695    2.0894    0.0021 C.ar      1 <0>        -0.0675
      3 C3          2.3774    1.4200   -0.0135 C.ar      1 <0>        -0.1944
      4 C4          2.3998    0.0311   -0.0212 C.ar      1 <0>         0.2306
      5 C5          1.2064   -0.6798   -0.0132 C.ar      1 <0>        -0.1836
      6 C6          0.0021   -0.0041    0.0020 C.ar      1 <0>        -0.0668
      7 N1          3.6196   -0.6492   -0.0374 N.pl3     1 <0>        -0.4473
      8 C7          3.7779   -2.1099   -0.0528 C.3       1 <0>         0.1242
      9 C8          5.3017   -2.3314   -0.0670 C.3       1 <0>        -0.1664
     10 C9          5.8824   -0.9355   -0.0582 C.2       1 <0>         0.5258
     11 N2          4.8770   -0.0489   -0.0477 N.am      1 <0>        -0.5205
     12 O1          7.0641   -0.6626   -0.0649 O.2       1 <0>        -0.5170
     13 H1         -0.9598    1.9046    0.0260 H         1 <0>         0.1230
     14 H2          1.1513    3.1692    0.0081 H         1 <0>         0.1253
     15 H3          3.3034    1.9757   -0.0201 H         1 <0>         0.1161
     16 H4          1.2204   -1.7597   -0.0195 H         1 <0>         0.1259
     17 H5         -0.9261   -0.5561    0.0079 H         1 <0>         0.1277
     18 H6          3.3377   -2.5498    0.8421 H         1 <0>         0.0872
     19 H7          3.3235   -2.5325   -0.9488 H         1 <0>         0.0868
     20 H8          5.6153   -2.8803    0.8210 H         1 <0>         0.1186
     21 H9          5.6011   -2.8630   -0.9703 H         1 <0>         0.1187
     22 H10         5.0111    0.9118   -0.0443 H         1 <0>         0.4247
@<TRIPOS>BOND
     1    1    6 ar
     2    1    2 ar
     3    1   13 1
     4    2    3 ar
     5    2   14 1
     6    3    4 ar
     7    3   15 1
     8    4    5 ar
     9    4    7 1
    10    5    6 ar
    11    5   16 1
    12    6   17 1
    13    7   11 1
    14    7    8 1
    15    8    9 1
    16    8   18 1
    17    8   19 1
    18    9   10 1
    19    9   20 1
    20    9   21 1
    21   10   11 am
    22   10   12 2
    23   11   22 1
@<TRIPOS>MOLECULE
ZINC03871633
   30    32     0     0     0
SMALL
USER_CHARGES

@<TRIPOS>ATOM
      1 C1         -0.0167    1.3795    0.0096 C.ar      1 <0>        -0.0921
      2 C2          1.1683    2.0940    0.0021 C.ar      1 <0>        -0.1230
      3 C3          2.3774    1.4303   -0.0130 C.ar      1 <0>        -0.0790
      4 C4          2.4038    0.0341   -0.0208 C.ar      1 <0>        -0.0756
      5 C5          1.2040   -0.6806   -0.0131 C.ar      1 <0>        -0.0796
      6 C6          0.0021   -0.0041    0.0020 C.ar      1 <0>        -0.1207
      7 C7          3.6945   -0.6834   -0.0374 C.2       1 <0>         0.2091
      8 C8          3.6864   -2.0423   -0.0503 C.2       1 <0>        -0.3117
      9 C9          4.9141   -2.7479   -0.0669 C.2       1 <0>         0.4234
     10 O1          4.9443   -3.9678   -0.0790 O.2       1 <0>        -0.4507
     11 C10         6.1530   -1.9519   -0.0693 C.ar      1 <0>        -0.2508
     12 C11         6.0489   -0.5496   -0.0552 C.ar      1 <0>         0.1748
     13 O2          4.8301    0.0318   -0.0449 O.3       1 <0>        -0.2163
     14 C12         7.2014    0.2203   -0.0572 C.ar      1 <0>        -0.1662
     15 C13         8.4452   -0.3910   -0.0736 C.ar      1 <0>         0.1647
     16 C14         8.5528   -1.7804   -0.0881 C.ar      1 <0>         0.0244
     17 C15         7.4110   -2.5656   -0.0858 C.ar      1 <0>         0.1934
     18 O3          7.5117   -3.9201   -0.0990 O.3       1 <0>        -0.4665
     19 O4          9.7814   -2.3670   -0.1045 O.3       1 <0>        -0.4726
     20 O5          9.5696    0.3710   -0.0759 O.3       1 <0>        -0.4763
     21 H1         -0.9606    1.9042    0.0260 H         1 <0>         0.1310
     22 H2          1.1464    3.1737    0.0078 H         1 <0>         0.1327
     23 H3          3.3016    1.9892   -0.0192 H         1 <0>         0.1352
     24 H4          1.2173   -1.7605   -0.0194 H         1 <0>         0.1363
     25 H5         -0.9265   -0.5555    0.0079 H         1 <0>         0.1348
     26 H6          2.7501   -2.5805   -0.0475 H         1 <0>         0.1647
     27 H7          7.1302    1.2979   -0.0464 H         1 <0>         0.1582
     28 H8          7.5333   -4.3043   -0.9861 H         1 <0>         0.4056
     29 H9         10.1439   -2.5451    0.7741 H         1 <0>         0.3918
     30 H10         9.9027    0.5834    0.8067 H         1 <0>         0.4008
@<TRIPOS>BOND
     1    1    6 ar
     2    1    2 ar
     3    1   21 1
     4    2    3 ar
     5    2   22 1
     6    3    4 ar
     7    3   23 1
     8    4    5 ar
     9    4    7 1
    10    5    6 ar
    11    5   24 1
    12    6   25 1
    13    7   13 1
    14    7    8 2
    15    8    9 1
    16    8   26 1
    17    9   10 2
    18    9   11 1
    19   11   17 ar
    20   11   12 ar
    21   12   13 1
    22   12   14 ar
    23   14   15 ar
    24   14   27 1
    25   15   16 ar
    26   15   20 1
    27   16   17 ar
    28   16   19 1
    29   17   18 1
    30   18   28 1
    31   19   29 1
    32   20   30 1
