@<TRIPOS>MOLECULE
ZINC00005569
   38    40     0     0     0
SMALL
USER_CHARGES
5,7-dimethyl-2-methylamino-4-(3-pyridylmethyl)benzothiazol-6-ol
@<TRIPOS>ATOM
      1 C1         -4.2897    2.0226   -1.0300 C.3       1 <0>        -0.1215
      2 C2         -3.8476    3.1827   -1.8843 C.ar      1 <0>        -0.0773
      3 C3         -3.1533    4.2141   -1.3071 C.ar      1 <0>        -0.0414
      4 C4         -2.7275    5.3202   -2.0769 C.ar      1 <0>         0.1370
      5 C5         -3.0491    5.2864   -3.4526 C.ar      1 <0>        -0.1569
      6 C6         -3.7442    4.2521   -4.0266 C.ar      1 <0>        -0.0419
      7 C7         -4.1525    3.1833   -3.2415 C.ar      1 <0>         0.1039
      8 O1         -4.8428    2.1491   -3.7921 O.3       1 <0>        -0.4830
      9 C8         -4.0617    4.2763   -5.4995 C.3       1 <0>        -0.1143
     10 S1         -2.3484    6.8086   -4.0432 S.3       1 <0>        -0.0075
     11 C9         -1.6878    7.3735   -2.4816 C.2       1 <0>         0.4124
     12 N1         -2.0339    6.4059   -1.6644 N.2       1 <0>        -0.5810
     13 N2         -0.9911    8.5330   -2.2048 N.pl3     1 <0>        -0.6757
     14 C10        -0.7076    9.4907   -3.2765 C.3       1 <0>         0.0868
     15 C11        -2.8458    4.1710    0.1676 C.3       1 <0>        -0.0339
     16 C12        -3.9638    4.8305    0.9333 C.ar      1 <0>        -0.1224
     17 C13        -3.9873    6.2076    1.0948 C.ar      1 <0>        -0.0622
     18 C14        -5.0328    6.7701    1.8106 C.ar      1 <0>        -0.1737
     19 C15        -6.0157    5.9466    2.3267 C.ar      1 <0>         0.0922
     20 N3         -5.9633    4.6411    2.1495 N.ar      1 <0>        -0.4839
     21 C16        -4.9812    4.0711    1.4789 C.ar      1 <0>         0.0980
     22 H1         -5.2350    2.2675   -0.5458 H         1 <0>         0.0746
     23 H2         -4.4198    1.1396   -1.6556 H         1 <0>         0.0790
     24 H3         -3.5339    1.8218   -0.2707 H         1 <0>         0.0750
     25 H4         -5.8026    2.2663   -3.7804 H         1 <0>         0.3893
     26 H5         -5.0228    4.7660   -5.6561 H         1 <0>         0.0745
     27 H6         -3.2836    4.8253   -6.0299 H         1 <0>         0.0667
     28 H7         -4.1082    3.2552   -5.8781 H         1 <0>         0.0815
     29 H8         -0.6893    8.7134   -1.3008 H         1 <0>         0.4199
     30 H9         -0.1533   10.3369   -2.8704 H         1 <0>         0.0951
     31 H10        -0.1133    9.0047   -4.0503 H         1 <0>         0.0661
     32 H11        -1.6452    9.8432   -3.7063 H         1 <0>         0.0658
     33 H12        -1.9124    4.7001    0.3597 H         1 <0>         0.0920
     34 H13        -2.7482    3.1339    0.4882 H         1 <0>         0.0889
     35 H14        -3.2077    6.8267    0.6762 H         1 <0>         0.1379
     36 H15        -5.0810    7.8388    1.9594 H         1 <0>         0.1323
     37 H16        -6.8359    6.3775    2.8817 H         1 <0>         0.1542
     38 H17        -4.9721    2.9983    1.3543 H         1 <0>         0.1537
@<TRIPOS>BOND
     1    1    2 1
     2    1   22 1
     3    1   23 1
     4    1   24 1
     5    2    7 ar
     6    2    3 ar
     7    3    4 ar
     8    3   15 1
     9    4   12 1
    10    4    5 ar
    11    5    6 ar
    12    5   10 1
    13    6    7 ar
    14    6    9 1
    15    7    8 1
    16    8   25 1
    17    9   26 1
    18    9   27 1
    19    9   28 1
    20   10   11 1
    21   11   12 2
    22   11   13 1
    23   13   14 1
    24   13   29 1
    25   14   30 1
    26   14   31 1
    27   14   32 1
    28   15   16 1
    29   15   33 1
    30   15   34 1
    31   16   21 ar
    32   16   17 ar
    33   17   18 ar
    34   17   35 1
    35   18   19 ar
    36   18   36 1
    37   19   20 ar
    38   19   37 1
    39   20   21 ar
    40   21   38 1
@<TRIPOS>MOLECULE
ZINC00007874
   41    43     0     0     0
SMALL
USER_CHARGES
2-ethylamino-4,5-dimethyl-7-(3-pyridylmethyl)benzothiazol-6-ol
@<TRIPOS>ATOM
      1 C1          4.8335    4.3399    0.0673 C.3       1 <0>        -0.1678
      2 C2          4.2042    2.9480   -0.0198 C.3       1 <0>         0.1264
      3 N1          2.7602    3.0500    0.2057 N.pl3     1 <0>        -0.6731
      4 C3          1.9747    1.9149    0.1747 C.2       1 <0>         0.4153
      5 N2          2.3343    0.6704   -0.0392 N.2       1 <0>        -0.5744
      6 C4          1.4478   -0.3514   -0.0410 C.ar      1 <0>         0.1282
      7 C5          1.7020   -1.7252   -0.2570 C.ar      1 <0>        -0.0400
      8 C6          0.6831   -2.6409   -0.2256 C.ar      1 <0>        -0.0881
      9 C7         -0.6317   -2.2555    0.0176 C.ar      1 <0>         0.1139
     10 C8         -0.9151   -0.9149    0.2331 C.ar      1 <0>        -0.0422
     11 C9          0.1027    0.0054    0.2029 C.ar      1 <0>        -0.1442
     12 S1          0.2100    1.7662    0.4149 S.3       1 <0>        -0.0255
     13 C10        -2.3308   -0.4719    0.4991 C.3       1 <0>        -0.0359
     14 C11        -3.0079   -0.1431   -0.8064 C.ar      1 <0>        -0.1278
     15 C12        -2.9565    1.1443   -1.3193 C.ar      1 <0>        -0.0683
     16 C13        -3.5899    1.3998   -2.5256 C.ar      1 <0>        -0.1674
     17 C14        -4.2562    0.3726   -3.1672 C.ar      1 <0>         0.0948
     18 N3         -4.2886   -0.8387   -2.6474 N.ar      1 <0>        -0.4804
     19 C15        -3.6928   -1.1192   -1.5047 C.ar      1 <0>         0.1004
     20 O1         -1.6268   -3.1821    0.0432 O.3       1 <0>        -0.4822
     21 C16         0.9931   -4.0969   -0.4600 C.3       1 <0>        -0.1163
     22 C17         3.1109   -2.1883   -0.5246 C.3       1 <0>        -0.1106
     23 H1          4.6489    4.7609    1.0556 H         1 <0>         0.0647
     24 H2          5.9079    4.2640   -0.1004 H         1 <0>         0.0811
     25 H3          4.3921    4.9863   -0.6913 H         1 <0>         0.0645
     26 H4          4.6455    2.3016    0.7388 H         1 <0>         0.0721
     27 H5          4.3887    2.5270   -1.0080 H         1 <0>         0.0719
     28 H6          2.3559    3.9151    0.3767 H         1 <0>         0.4208
     29 H7         -2.8746   -1.2737    0.9986 H         1 <0>         0.1004
     30 H8         -2.3212    0.4124    1.1363 H         1 <0>         0.0836
     31 H9         -2.4320    1.9284   -0.7933 H         1 <0>         0.1320
     32 H10        -3.5672    2.3899   -2.9563 H         1 <0>         0.1360
     33 H11        -4.7557    0.5643   -4.1054 H         1 <0>         0.1566
     34 H12        -3.7410   -2.1233   -1.1100 H         1 <0>         0.1548
     35 H13        -2.0417   -3.3375   -0.8163 H         1 <0>         0.3871
     36 H14         1.0188   -4.2950   -1.5315 H         1 <0>         0.0723
     37 H15         1.9622   -4.3370   -0.0227 H         1 <0>         0.0741
     38 H16         0.2224   -4.7119    0.0048 H         1 <0>         0.0769
     39 H17         3.2695   -2.2665   -1.6001 H         1 <0>         0.0713
     40 H18         3.8153   -1.4703   -0.1046 H         1 <0>         0.0743
     41 H19         3.2668   -3.1632   -0.0625 H         1 <0>         0.0710
@<TRIPOS>BOND
     1    1    2 1
     2    1   23 1
     3    1   24 1
     4    1   25 1
     5    2    3 1
     6    2   26 1
     7    2   27 1
     8    3    4 1
     9    3   28 1
    10    4   12 1
    11    4    5 2
    12    5    6 1
    13    6   11 ar
    14    6    7 ar
    15    7    8 ar
    16    7   22 1
    17    8    9 ar
    18    8   21 1
    19    9   10 ar
    20    9   20 1
    21   10   11 ar
    22   10   13 1
    23   11   12 1
    24   13   14 1
    25   13   29 1
    26   13   30 1
    27   14   19 ar
    28   14   15 ar
    29   15   16 ar
    30   15   31 1
    31   16   17 ar
    32   16   32 1
    33   17   18 ar
    34   17   33 1
    35   18   19 ar
    36   19   34 1
    37   20   35 1
    38   21   36 1
    39   21   37 1
    40   21   38 1
    41   22   39 1
    42   22   40 1
    43   22   41 1
@<TRIPOS>MOLECULE
ZINC26974195
   47    48     0     0     0
SMALL
USER_CHARGES
(5Z)-2-amino-5-[(3,5-ditert-butyl-4-hydroxy-phenyl)methylene]thiazol-4-one
@<TRIPOS>ATOM
      1 C1         -1.0652   -0.3967    0.5886 C.3       1 <0>        -0.1510
      2 C2         -1.5944    0.2405    1.8750 C.3       1 <0>        -0.0141
      3 C3         -1.9857    1.6940    1.6006 C.3       1 <0>        -0.1429
      4 C4         -2.8206   -0.5347    2.3612 C.3       1 <0>        -0.1426
      5 C5         -0.5224    0.2001    2.9334 C.ar      1 <0>        -0.1139
      6 C6          0.7038   -0.3565    2.6483 C.ar      1 <0>        -0.0470
      7 C7          1.6992   -0.3934    3.6330 C.ar      1 <0>        -0.1352
      8 C8          1.4404    0.1370    4.9031 C.ar      1 <0>        -0.0552
      9 C9          0.2106    0.6913    5.1772 C.ar      1 <0>        -0.1674
     10 C10        -0.7718    0.7303    4.1942 C.ar      1 <0>         0.2007
     11 O1         -1.9808    1.2834    4.4681 O.3       1 <0>        -0.5014
     12 C11        -0.0691    1.2628    6.5433 C.3       1 <0>        -0.0289
     13 C12         1.1692    1.1011    7.4272 C.3       1 <0>        -0.1468
     14 C13        -0.4130    2.7481    6.4140 C.3       1 <0>        -0.1557
     15 C14        -1.2476    0.5196    7.1755 C.3       1 <0>        -0.1556
     16 C15         3.0092   -0.9854    3.3346 C.2       1 <0>         0.0644
     17 C16         4.0266   -0.8654    4.2246 C.2       1 <0>        -0.2449
     18 C17         5.3625   -1.5063    4.2311 C.2       1 <0>         0.5511
     19 O2          5.7108   -2.2781    3.3520 O.2       1 <0>        -0.4701
     20 N1          6.1524   -1.1974    5.2360 N.2       1 <0>        -0.6728
     21 C18         5.7873   -0.3618    6.1953 C.2       1 <0>         0.4810
     22 S1          4.1349    0.1169    5.7152 S.3       1 <0>        -0.0557
     23 N2          6.5056    0.0429    7.2891 N.pl3     1 <0>        -0.7840
     24 H1         -0.7839   -1.4417    0.7859 H         1 <0>         0.0593
     25 H2         -0.1836    0.1607    0.2391 H         1 <0>         0.0591
     26 H3         -1.8477   -0.3672   -0.1840 H         1 <0>         0.0611
     27 H4         -2.3662    2.1521    2.5255 H         1 <0>         0.0713
     28 H5         -2.7681    1.7235    0.8280 H         1 <0>         0.0558
     29 H6         -1.1041    2.2513    1.2511 H         1 <0>         0.0508
     30 H7         -3.2010   -0.0765    3.2861 H         1 <0>         0.0707
     31 H8         -2.5393   -1.5797    2.5585 H         1 <0>         0.0510
     32 H9         -3.6031   -0.5052    1.5886 H         1 <0>         0.0559
     33 H10         0.8982   -0.7638    1.6671 H         1 <0>         0.1409
     34 H11         2.2045    0.1115    5.6660 H         1 <0>         0.1418
     35 H12        -2.1803    1.7035    5.4650 H         1 <0>         0.4241
     36 H13         0.9649    1.5183    8.4243 H         1 <0>         0.0641
     37 H14         2.0164    1.6355    6.9727 H         1 <0>         0.0625
     38 H15         1.4165    0.0333    7.5201 H         1 <0>         0.0627
     39 H16        -0.6172    3.1653    7.4111 H         1 <0>         0.0698
     40 H17        -1.3033    2.8643    5.7785 H         1 <0>         0.0594
     41 H18         0.4343    3.2824    5.9594 H         1 <0>         0.0669
     42 H19        -1.4518    0.9368    8.1726 H         1 <0>         0.0696
     43 H20        -1.0004   -0.5482    7.2683 H         1 <0>         0.0665
     44 H21        -2.1379    0.6360    6.5400 H         1 <0>         0.0592
     45 H22         3.1660   -1.5262    2.3896 H         1 <0>         0.1622
     46 H23         6.0634    0.7496    8.0067 H         1 <0>         0.4535
     47 H24         7.5246   -0.3388    7.4499 H         1 <0>         0.4498
@<TRIPOS>BOND
     1    1    2 1
     2    1   24 1
     3    1   25 1
     4    1   26 1
     5    2    3 1
     6    2    4 1
     7    2    5 1
     8    3   27 1
     9    3   28 1
    10    3   29 1
    11    4   30 1
    12    4   31 1
    13    4   32 1
    14    5   10 ar
    15    5    6 ar
    16    6    7 ar
    17    6   33 1
    18    7    8 ar
    19    7   16 1
    20    8    9 ar
    21    8   34 1
    22    9   10 ar
    23    9   12 1
    24   10   11 1
    25   11   35 1
    26   12   13 1
    27   12   14 1
    28   12   15 1
    29   13   36 1
    30   13   37 1
    31   13   38 1
    32   14   39 1
    33   14   40 1
    34   14   41 1
    35   15   42 1
    36   15   43 1
    37   15   44 1
    38   16   17 2
    39   16   45 1
    40   17   22 1
    41   17   18 1
    42   18   19 2
    43   18   20 1
    44   20   21 2
    45   21   22 1
    46   21   23 1
    47   23   46 1
    48   23   47 1
@<TRIPOS>MOLECULE
ZINC18007687
   29    31     0     0     0
SMALL
USER_CHARGES

@<TRIPOS>ATOM
      1 C1          1.9025    3.4154   -2.8069 C.2       1 <0>        -0.1822
      2 C2          2.1917    3.1284   -1.4938 C.2       1 <0>        -0.1077
      3 C3          3.1899    2.1885   -1.2887 C.2       1 <0>        -0.2282
      4 S1          3.6517    1.7741   -2.9599 S.3       1 <0>         0.2414
      5 C4          2.5907    2.7803   -3.7871 C.2       1 <0>        -0.2625
      6 C5          3.7269    1.6700   -0.0250 C.2       1 <0>         0.5575
      7 O1          3.3541    2.1425    1.0353 O.2       1 <0>        -0.4632
      8 C6          4.7105    0.5848   -0.0376 C.2       1 <0>        -0.4597
      9 C7          6.1796    0.7228    0.0078 C.ar      1 <0>         0.0233
     10 C8          7.0407    1.8152    0.0710 C.ar      1 <0>        -0.1172
     11 C9          8.4047    1.6093    0.1006 C.ar      1 <0>        -0.0332
     12 C10         8.9170    0.3205    0.0675 C.ar      1 <0>        -0.1429
     13 C11         8.0731   -0.7686    0.0049 C.ar      1 <0>        -0.0989
     14 C12         6.6971   -0.5803   -0.0256 C.ar      1 <0>         0.0804
     15 N1          5.6254   -1.4612   -0.0873 N.am      1 <0>        -0.5216
     16 C13         4.4464   -0.7722   -0.0884 C.2       1 <0>         0.4918
     17 O2          3.2157   -1.3282   -0.1348 O.3       1 <0>        -0.6719
     18 C14         5.7333   -2.8038   -0.1334 C.2       1 <0>         0.7415
     19 O3          5.7530   -3.4476    0.8971 O.2       1 <0>        -0.5370
     20 N2          5.8192   -3.4325   -1.3225 N.am      1 <0>        -0.8414
     21 Cl1         9.4832    2.9674    0.1788 Cl        1 <0>        -0.0954
     22 H1          1.1345    4.1334   -3.0541 H         1 <0>         0.1269
     23 H2          1.6745    3.6052   -0.6743 H         1 <0>         0.1420
     24 H3          2.4819    2.8950   -4.8555 H         1 <0>         0.1801
     25 H4          6.6428    2.8189    0.0965 H         1 <0>         0.1221
     26 H5          9.9861    0.1687    0.0907 H         1 <0>         0.1249
     27 H6          8.4820   -1.7679   -0.0200 H         1 <0>         0.1167
     28 H7          5.8035   -2.9186   -2.1450 H         1 <0>         0.4038
     29 H8          5.8969   -4.3988   -1.3557 H         1 <0>         0.4105
@<TRIPOS>BOND
     1    1    5 2
     2    1    2 1
     3    1   22 1
     4    2    3 2
     5    2   23 1
     6    3    4 1
     7    3    6 1
     8    4    5 1
     9    5   24 1
    10    6    7 2
    11    6    8 1
    12    8   16 2
    13    8    9 1
    14    9   14 ar
    15    9   10 ar
    16   10   11 ar
    17   10   25 1
    18   11   12 ar
    19   11   21 1
    20   12   13 ar
    21   12   26 1
    22   13   14 ar
    23   13   27 1
    24   14   15 1
    25   15   16 1
    26   15   18 am
    27   16   17 1
    28   18   19 2
    29   18   20 am
    30   20   28 1
    31   20   29 1
@<TRIPOS>MOLECULE
ZINC27203428
   31    33     0     0     0
SMALL
USER_CHARGES
2-benzylnaphthalene-1,4-dione
@<TRIPOS>ATOM
      1 C1         -5.2695    6.5332   -3.9243 C.ar      1 <0>        -0.1185
      2 C2         -5.6286    5.4297   -3.1731 C.ar      1 <0>        -0.1196
      3 C3         -5.1592    5.2912   -1.8803 C.ar      1 <0>        -0.1070
      4 C4         -4.3312    6.2564   -1.3384 C.ar      1 <0>        -0.0876
      5 C5         -3.9768    7.3628   -2.0876 C.ar      1 <0>        -0.1131
      6 C6         -4.4419    7.4987   -3.3823 C.ar      1 <0>        -0.1199
      7 C7         -3.8200    6.1057    0.0711 C.3       1 <0>        -0.0469
      8 C8         -2.5137    5.3544    0.0540 C.2       1 <0>        -0.0998
      9 C9         -1.3600    6.0355    0.0467 C.2       1 <0>        -0.1474
     10 C10        -0.0641    5.3308    0.0304 C.2       1 <0>         0.4168
     11 O1          0.9735    5.9627    0.0242 O.2       1 <0>        -0.4228
     12 C11        -0.0327    3.8523    0.0222 C.ar      1 <0>        -0.1264
     13 C12         1.1748    3.1645    0.0074 C.ar      1 <0>        -0.0672
     14 C13         1.1772    1.7782    0.0004 C.ar      1 <0>        -0.0978
     15 C14        -0.0126    1.0758    0.0080 C.ar      1 <0>        -0.0986
     16 C15        -1.2251    1.7478    0.0174 C.ar      1 <0>        -0.0663
     17 C16        -1.2438    3.1374    0.0299 C.ar      1 <0>        -0.1251
     18 C17        -2.5230    3.8793    0.0461 C.2       1 <0>         0.4229
     19 O2         -3.5775    3.2762    0.0533 O.2       1 <0>        -0.4162
     20 H1         -5.6359    6.6412   -4.9345 H         1 <0>         0.1224
     21 H2         -6.2755    4.6756   -3.5964 H         1 <0>         0.1232
     22 H3         -5.4398    4.4290   -1.2934 H         1 <0>         0.1283
     23 H4         -3.3334    8.1191   -1.6628 H         1 <0>         0.1225
     24 H5         -4.1617    8.3610   -3.9690 H         1 <0>         0.1235
     25 H6         -3.6649    7.1009    0.5132 H         1 <0>         0.0964
     26 H7         -4.5554    5.5489    0.6703 H         1 <0>         0.0988
     27 H8         -1.3706    7.1354    0.0529 H         1 <0>         0.1586
     28 H9          2.1080    3.7081    0.0017 H         1 <0>         0.1440
     29 H10         2.1155    1.2436   -0.0115 H         1 <0>         0.1393
     30 H11         0.0021   -0.0041    0.0020 H         1 <0>         0.1393
     31 H12        -2.1519    1.1934    0.0187 H         1 <0>         0.1439
@<TRIPOS>BOND
     1    1    6 ar
     2    1    2 ar
     3    1   20 1
     4    2    3 ar
     5    2   21 1
     6    3    4 ar
     7    3   22 1
     8    4    5 ar
     9    4    7 1
    10    5    6 ar
    11    5   23 1
    12    6   24 1
    13    7    8 1
    14    7   25 1
    15    7   26 1
    16    8   18 1
    17    8    9 2
    18    9   10 1
    19    9   27 1
    20   10   11 2
    21   10   12 1
    22   12   17 ar
    23   12   13 ar
    24   13   14 ar
    25   13   28 1
    26   14   15 ar
    27   14   29 1
    28   15   16 ar
    29   15   30 1
    30   16   17 ar
    31   16   31 1
    32   17   18 1
    33   18   19 2
@<TRIPOS>MOLECULE
ZINC01727348
   32    34     0     0     0
SMALL
USER_CHARGES
1-benzylnaphthalen-2-ol
@<TRIPOS>ATOM
      1 C1         -2.6272    6.6750    4.0877 C.ar      1 <0>        -0.1237
      2 C2         -1.8428    7.6069    3.4341 C.ar      1 <0>        -0.1168
      3 C3         -1.4529    7.3868    2.1263 C.ar      1 <0>        -0.1205
      4 C4         -1.8478    6.2350    1.4719 C.ar      1 <0>        -0.0745
      5 C5         -2.6370    5.3058    2.1236 C.ar      1 <0>        -0.1163
      6 C6         -3.0225    5.5234    3.4331 C.ar      1 <0>        -0.1155
      7 C7         -1.4231    5.9952    0.0460 C.3       1 <0>        -0.0429
      8 C8         -0.1117    5.2530    0.0305 C.ar      1 <0>        -0.0913
      9 C9         -0.0951    3.8486    0.0227 C.ar      1 <0>        -0.0303
     10 C10        -1.2883    3.1054    0.0301 C.ar      1 <0>        -0.1116
     11 C11        -1.2348    1.7456    0.0174 C.ar      1 <0>        -0.1106
     12 C12        -0.0126    1.0758    0.0080 C.ar      1 <0>        -0.1182
     13 C13         1.1627    1.7621    0.0004 C.ar      1 <0>        -0.1016
     14 C14         1.1478    3.1673    0.0077 C.ar      1 <0>        -0.0592
     15 C15         2.3422    3.9088    0.0007 C.ar      1 <0>        -0.0913
     16 C16         2.2925    5.2677    0.0085 C.ar      1 <0>        -0.1366
     17 C17         1.0674    5.9421    0.0234 C.ar      1 <0>         0.1132
     18 O1          1.0500    7.3008    0.0304 O.3       1 <0>        -0.4947
     19 H1         -2.9316    6.8468    5.1096 H         1 <0>         0.1216
     20 H2         -1.5343    8.5068    3.9454 H         1 <0>         0.1228
     21 H3         -0.8401    8.1149    1.6157 H         1 <0>         0.1218
     22 H4         -2.9491    4.4079    1.6108 H         1 <0>         0.1212
     23 H5         -3.6356    4.7955    3.9436 H         1 <0>         0.1222
     24 H6         -1.3055    6.9515   -0.4638 H         1 <0>         0.0926
     25 H7         -2.1822    5.4024   -0.4644 H         1 <0>         0.0845
     26 H8         -2.2426    3.6110    0.0416 H         1 <0>         0.1285
     27 H9         -2.1530    1.1770    0.0191 H         1 <0>         0.1244
     28 H10         0.0021   -0.0041    0.0020 H         1 <0>         0.1244
     29 H11         2.1022    1.2294   -0.0107 H         1 <0>         0.1283
     30 H12         3.2955    3.4012   -0.0104 H         1 <0>         0.1324
     31 H13         3.2120    5.8341    0.0031 H         1 <0>         0.1308
     32 H14         1.0529    7.6896    0.9158 H         1 <0>         0.3871
@<TRIPOS>BOND
     1    1    6 ar
     2    1    2 ar
     3    1   19 1
     4    2    3 ar
     5    2   20 1
     6    3    4 ar
     7    3   21 1
     8    4    5 ar
     9    4    7 1
    10    5    6 ar
    11    5   22 1
    12    6   23 1
    13    7    8 1
    14    7   24 1
    15    7   25 1
    16    8   17 ar
    17    8    9 ar
    18    9   14 ar
    19    9   10 ar
    20   10   11 ar
    21   10   26 1
    22   11   12 ar
    23   11   27 1
    24   12   13 ar
    25   12   28 1
    26   13   14 ar
    27   13   29 1
    28   14   15 ar
    29   15   16 ar
    30   15   30 1
    31   16   17 ar
    32   16   31 1
    33   17   18 1
    34   18   32 1
@<TRIPOS>MOLECULE
ZINC01594725
   22    23     0     0     0
SMALL
USER_CHARGES

@<TRIPOS>ATOM
      1 C1         -0.0184    1.5028    0.0103 C.3       1 <0>        -0.1103
      2 C2          0.0021   -0.0041    0.0020 C.ar      1 <0>        -0.1098
      3 C3          0.0055   -0.6839   -1.2131 C.ar      1 <0>        -0.1014
      4 C4          0.0239   -2.0445   -1.2567 C.ar      1 <0>        -0.1105
      5 C5          0.0396   -2.7810   -0.0596 C.ar      1 <0>        -0.0449
      6 C6          0.0593   -4.1863   -0.0678 C.ar      1 <0>        -0.1078
      7 C7          0.0745   -4.8663    1.1110 C.ar      1 <0>        -0.1134
      8 C8          0.0710   -4.1899    2.3294 C.ar      1 <0>        -0.1175
      9 C9          0.0522   -2.8294    2.3753 C.ar      1 <0>        -0.0999
     10 C10         0.0361   -2.0939    1.1793 C.ar      1 <0>        -0.0718
     11 C11         0.0226   -0.6840    1.1870 C.ar      1 <0>         0.1120
     12 O1          0.0244   -0.0066    2.3640 O.3       1 <0>        -0.4890
     13 H1          1.0042    1.8801    0.0026 H         1 <0>         0.0732
     14 H2         -0.5455    1.8639   -0.8728 H         1 <0>         0.0668
     15 H3         -0.5286    1.8543    0.9071 H         1 <0>         0.0679
     16 H4         -0.0069   -0.1228   -2.1358 H         1 <0>         0.1282
     17 H5          0.0259   -2.5561   -2.2078 H         1 <0>         0.1307
     18 H6          0.0619   -4.7237   -1.0046 H         1 <0>         0.1294
     19 H7          0.0892   -5.9462    1.1021 H         1 <0>         0.1249
     20 H8          0.0830   -4.7532    3.2508 H         1 <0>         0.1247
     21 H9          0.0496   -2.3184    3.3267 H         1 <0>         0.1301
     22 H10        -0.8583    0.1775    2.7132 H         1 <0>         0.3884
@<TRIPOS>BOND
     1    1    2 1
     2    1   13 1
     3    1   14 1
     4    1   15 1
     5    2   11 ar
     6    2    3 ar
     7    3    4 ar
     8    3   16 1
     9    4    5 ar
    10    4   17 1
    11    5   10 ar
    12    5    6 ar
    13    6    7 ar
    14    6   18 1
    15    7    8 ar
    16    7   19 1
    17    8    9 ar
    18    8   20 1
    19    9   10 ar
    20    9   21 1
    21   10   11 ar
    22   11   12 1
    23   12   22 1
@<TRIPOS>MOLECULE
ZINC04292977
   19    20     0     0     0
SMALL
USER_CHARGES

@<TRIPOS>ATOM
      1 C1         -0.0167    1.3781    0.0096 C.ar      1 <0>        -0.0865
      2 C2          1.1658    2.0975    0.0022 C.ar      1 <0>        -0.1328
      3 C3          2.3752    1.4328   -0.0083 C.ar      1 <0>        -0.0602
      4 C4          2.3971    0.0390   -0.0143 C.ar      1 <0>        -0.1636
      5 C5          1.2056   -0.6862   -0.0147 C.ar      1 <0>        -0.0395
      6 C6          0.0021   -0.0041    0.0020 C.ar      1 <0>        -0.1314
      7 C7          1.2040   -2.1863   -0.0459 C.3       1 <0>        -0.0742
      8 C8          2.5192   -2.7851    0.3308 C.2       1 <0>        -0.0731
      9 C9          3.6632   -2.1187    0.3449 C.2       1 <0>        -0.2226
     10 C10         3.6865   -0.6898   -0.0140 C.2       1 <0>         0.4214
     11 O1          4.7271   -0.1289   -0.2999 O.2       1 <0>        -0.4507
     12 H1         -0.9616    1.9009    0.0260 H         1 <0>         0.1296
     13 H2          1.1420    3.1772    0.0043 H         1 <0>         0.1315
     14 H3          3.3004    1.9899   -0.0123 H         1 <0>         0.1345
     15 H4         -0.9273   -0.5541    0.0091 H         1 <0>         0.1310
     16 H5          0.4433   -2.5500    0.6448 H         1 <0>         0.1053
     17 H6          0.9452   -2.5152   -1.0524 H         1 <0>         0.1110
     18 H7          2.5384   -3.8282    0.6099 H         1 <0>         0.1290
     19 H8          4.5785   -2.6220    0.6194 H         1 <0>         0.1415
@<TRIPOS>BOND
     1    1    6 ar
     2    1    2 ar
     3    1   12 1
     4    2    3 ar
     5    2   13 1
     6    3    4 ar
     7    3   14 1
     8    4   10 1
     9    4    5 ar
    10    5    6 ar
    11    5    7 1
    12    6   15 1
    13    7    8 1
    14    7   16 1
    15    7   17 1
    16    8    9 2
    17    8   18 1
    18    9   10 1
    19    9   19 1
    20   10   11 2
@<TRIPOS>MOLECULE
ZINC04292977
   19    20     0     0     0
SMALL
USER_CHARGES

@<TRIPOS>ATOM
      1 C1         -0.0164    1.3568    0.0095 C.ar      1 <0>        -0.1108
      2 C2          1.1685    2.0903    0.0021 C.ar      1 <0>        -0.1187
      3 C3          2.3786    1.4667   -0.0127 C.ar      1 <0>        -0.0983
      4 C4          2.4373    0.0638   -0.0208 C.ar      1 <0>        -0.0775
      5 C5          1.2329   -0.6827   -0.0133 C.ar      1 <0>        -0.0401
      6 C6          0.0021   -0.0041    0.0020 C.ar      1 <0>        -0.1097
      7 C7          1.2917   -2.0866   -0.0208 C.ar      1 <0>        -0.1148
      8 C8          2.5010   -2.7126   -0.0352 C.ar      1 <0>        -0.1012
      9 C9          3.6868   -1.9838   -0.0426 C.ar      1 <0>        -0.1453
     10 C10         3.6713   -0.6172   -0.0357 C.ar      1 <0>         0.1176
     11 O1          4.8369    0.0798   -0.0435 O.3       1 <0>        -0.4935
     12 H1         -0.9633    1.8759    0.0259 H         1 <0>         0.1254
     13 H2          1.1262    3.1695    0.0079 H         1 <0>         0.1251
     14 H3          3.2887    2.0480   -0.0187 H         1 <0>         0.1306
     15 H4         -0.9241   -0.5596    0.0082 H         1 <0>         0.1300
     16 H5          0.3810   -2.6672   -0.0149 H         1 <0>         0.1306
     17 H6          2.5405   -3.7919   -0.0406 H         1 <0>         0.1287
     18 H7          4.6324   -2.5056   -0.0537 H         1 <0>         0.1303
     19 H8          5.1828    0.2775    0.8376 H         1 <0>         0.3917
@<TRIPOS>BOND
     1    1    6 ar
     2    1    2 ar
     3    1   12 1
     4    2    3 ar
     5    2   13 1
     6    3    4 ar
     7    3   14 1
     8    4   10 ar
     9    4    5 ar
    10    5    6 ar
    11    5    7 ar
    12    6   15 1
    13    7    8 ar
    14    7   16 1
    15    8    9 ar
    16    8   17 1
    17    9   10 ar
    18    9   18 1
    19   10   11 1
    20   11   19 1
@<TRIPOS>MOLECULE
ZINC27201166
   34    35     0     0     0
SMALL
USER_CHARGES
ethyl 3-(1-hydroxy-2-naphthyl)propanoate
@<TRIPOS>ATOM
      1 C1          0.6960   12.1519    3.9825 C.3       1 <0>        -0.1555
      2 C2          0.8126   11.5751    2.5702 C.3       1 <0>         0.0590
      3 O1          0.8223   10.1247    2.6391 O.3       1 <0>        -0.3604
      4 C3          0.9202    9.4601    1.4770 C.2       1 <0>         0.4622
      5 O2          0.9953   10.0700    0.4367 O.2       1 <0>        -0.5085
      6 C4          0.9364    7.9532    1.4698 C.3       1 <0>        -0.1079
      7 C5          1.0544    7.4513    0.0293 C.3       1 <0>        -0.0562
      8 C6          1.0707    5.9444    0.0222 C.ar      1 <0>        -0.1408
      9 C7          2.2893    5.2711    0.0074 C.ar      1 <0>        -0.0670
     10 C8          2.3401    3.9107   -0.0003 C.ar      1 <0>        -0.1483
     11 C9          1.1469    3.1677    0.0076 C.ar      1 <0>        -0.0200
     12 C10         1.1626    1.7623    0.0004 C.ar      1 <0>        -0.1086
     13 C11        -0.0126    1.0758    0.0080 C.ar      1 <0>        -0.1092
     14 C12        -1.2345    1.7457    0.0174 C.ar      1 <0>        -0.1171
     15 C13        -1.2876    3.1061    0.0297 C.ar      1 <0>        -0.1091
     16 C14        -0.0956    3.8481    0.0227 C.ar      1 <0>        -0.1174
     17 C15        -0.1107    5.2580    0.0298 C.ar      1 <0>         0.1737
     18 O3         -1.2913    5.9290    0.0438 O.3       1 <0>        -0.4975
     19 H1          0.6886   13.2506    3.9304 H         1 <0>         0.0814
     20 H2          1.5531   11.8192    4.5863 H         1 <0>         0.0676
     21 H3         -0.2376   11.8005    4.4461 H         1 <0>         0.0675
     22 H4         -0.0445   11.9078    1.9664 H         1 <0>         0.0709
     23 H5          1.7462   11.9265    2.1065 H         1 <0>         0.0710
     24 H6          1.7953    7.5930    2.0551 H         1 <0>         0.1060
     25 H7          0.0046    7.5743    1.9149 H         1 <0>         0.1080
     26 H8          0.1955    7.8115   -0.5560 H         1 <0>         0.0848
     27 H9          1.9862    7.8302   -0.4159 H         1 <0>         0.0796
     28 H10         3.2091    5.8372    0.0020 H         1 <0>         0.1296
     29 H11         3.2938    3.4041   -0.0121 H         1 <0>         0.1292
     30 H12         2.1022    1.2300   -0.0107 H         1 <0>         0.1300
     31 H13         0.0021   -0.0041    0.0020 H         1 <0>         0.1254
     32 H14        -2.1529    1.1774    0.0187 H         1 <0>         0.1254
     33 H15        -2.2417    3.6119    0.0411 H         1 <0>         0.1230
     34 H16        -2.2402    5.3725    0.0499 H         1 <0>         0.4292
@<TRIPOS>BOND
     1    1    2 1
     2    1   19 1
     3    1   20 1
     4    1   21 1
     5    2    3 1
     6    2   22 1
     7    2   23 1
     8    3    4 1
     9    4    5 2
    10    4    6 1
    11    6    7 1
    12    6   24 1
    13    6   25 1
    14    7    8 1
    15    7   26 1
    16    7   27 1
    17    8   17 ar
    18    8    9 ar
    19    9   10 ar
    20    9   28 1
    21   10   11 ar
    22   10   29 1
    23   11   16 ar
    24   11   12 ar
    25   12   13 ar
    26   12   30 1
    27   13   14 ar
    28   13   31 1
    29   14   15 ar
    30   14   32 1
    31   15   16 ar
    32   15   33 1
    33   16   17 ar
    34   17   18 1
    35   18   34 1
@<TRIPOS>MOLECULE
ZINC00002845
   50    51     0     0     0
SMALL
USER_CHARGES
4-[2-(3-methylisoxazol-5-yl)vinyl]-2,6-ditert-butyl-phenol
@<TRIPOS>ATOM
      1 C1          6.0531    0.5081   -0.0524 C.3       1 <0>        -0.0775
      2 C2          4.5463    0.4880   -0.0385 C.2       1 <0>         0.0180
      3 C3          3.6910    1.6065   -0.0301 C.2       1 <0>        -0.2211
      4 C4          2.4236    1.0500   -0.0154 C.2       1 <0>         0.0036
      5 O1          2.6077   -0.2843   -0.0248 O.3       1 <0>         0.1056
      6 N1          3.7824   -0.5680   -0.0374 N.2       1 <0>        -0.3678
      7 C5          1.1450    1.7653    0.0006 C.2       1 <0>        -0.0982
      8 C6         -0.0126    1.0758    0.0080 C.2       1 <0>        -0.0615
      9 C7         -1.2970    1.7943    0.0180 C.ar      1 <0>        -0.0722
     10 C8         -1.3186    3.1928    0.0315 C.ar      1 <0>        -0.0988
     11 C9         -2.5234    3.8606    0.0360 C.ar      1 <0>        -0.0914
     12 C10        -3.7157    3.1473    0.0377 C.ar      1 <0>         0.1260
     13 C11        -3.6996    1.7580    0.0296 C.ar      1 <0>        -0.0917
     14 C12        -2.5001    1.0808    0.0198 C.ar      1 <0>        -0.0912
     15 C13        -4.9966    0.9906    0.0321 C.3       1 <0>        -0.0214
     16 C14        -4.7010   -0.5105    0.0224 C.3       1 <0>        -0.1480
     17 C15        -5.7963    1.3448    1.2874 C.3       1 <0>        -0.1425
     18 C16        -5.8092    1.3584   -1.2110 C.3       1 <0>        -0.1422
     19 O2         -4.9011    3.8103    0.0479 O.3       1 <0>        -0.4849
     20 C17        -2.5483    5.3673    0.0448 C.3       1 <0>        -0.0212
     21 C18        -1.1144    5.9011    0.0408 C.3       1 <0>        -0.1482
     22 C19        -3.2840    5.8726   -1.1979 C.3       1 <0>        -0.1423
     23 C20        -3.2716    5.8581    1.3005 C.3       1 <0>        -0.1427
     24 H1          6.4068    0.5193   -1.0833 H         1 <0>         0.0815
     25 H2          6.4093    1.3997    0.4637 H         1 <0>         0.0827
     26 H3          6.4329   -0.3801    0.4525 H         1 <0>         0.0772
     27 H4          3.9604    2.6523   -0.0323 H         1 <0>         0.1742
     28 H5          1.1303    2.8452    0.0065 H         1 <0>         0.1489
     29 H6          0.0021   -0.0041    0.0020 H         1 <0>         0.1304
     30 H7         -0.3923    3.7481    0.0347 H         1 <0>         0.1334
     31 H8         -2.4886    0.0009    0.0131 H         1 <0>         0.1345
     32 H9         -4.1221   -0.7726    0.9080 H         1 <0>         0.0585
     33 H10        -5.6391   -1.0656    0.0242 H         1 <0>         0.0603
     34 H11        -4.1313   -0.7629   -0.8719 H         1 <0>         0.0592
     35 H12        -6.0069    2.4143    1.2943 H         1 <0>         0.0580
     36 H13        -6.7344    0.7898    1.2892 H         1 <0>         0.0613
     37 H14        -5.2174    1.0828    2.1730 H         1 <0>         0.0546
     38 H15        -5.2394    1.1061   -2.1053 H         1 <0>         0.0513
     39 H16        -6.7473    0.8034   -1.2092 H         1 <0>         0.0548
     40 H17        -6.0197    2.4279   -1.2041 H         1 <0>         0.0749
     41 H18        -5.2396    3.9972    0.9342 H         1 <0>         0.3830
     42 H19        -0.5990    5.5514   -0.8538 H         1 <0>         0.0587
     43 H20        -1.1324    6.9909    0.0472 H         1 <0>         0.0608
     44 H21        -0.5902    5.5412    0.9261 H         1 <0>         0.0579
     45 H22        -4.3055    5.4923   -1.1951 H         1 <0>         0.0752
     46 H23        -3.3020    6.9624   -1.1915 H         1 <0>         0.0548
     47 H24        -2.7687    5.5229   -2.0925 H         1 <0>         0.0513
     48 H25        -2.7475    5.4982    2.1858 H         1 <0>         0.0545
     49 H26        -3.2896    6.9480    1.3069 H         1 <0>         0.0613
     50 H27        -4.2932    5.4779    1.3033 H         1 <0>         0.0583
@<TRIPOS>BOND
     1    1    2 1
     2    1   24 1
     3    1   25 1
     4    1   26 1
     5    2    6 2
     6    2    3 1
     7    3    4 2
     8    3   27 1
     9    4    5 1
    10    4    7 1
    11    5    6 1
    12    7    8 2
    13    7   28 1
    14    8    9 1
    15    8   29 1
    16    9   14 ar
    17    9   10 ar
    18   10   11 ar
    19   10   30 1
    20   11   12 ar
    21   11   20 1
    22   12   13 ar
    23   12   19 1
    24   13   14 ar
    25   13   15 1
    26   14   31 1
    27   15   16 1
    28   15   17 1
    29   15   18 1
    30   16   32 1
    31   16   33 1
    32   16   34 1
    33   17   35 1
    34   17   36 1
    35   17   37 1
    36   18   38 1
    37   18   39 1
    38   18   40 1
    39   19   41 1
    40   20   21 1
    41   20   22 1
    42   20   23 1
    43   21   42 1
    44   21   43 1
    45   21   44 1
    46   22   45 1
    47   22   46 1
    48   22   47 1
    49   23   48 1
    50   23   49 1
    51   23   50 1
@<TRIPOS>MOLECULE
ZINC27194618
   26    27     0     0     0
SMALL
USER_CHARGES
2-allylnaphthalen-1-ol
@<TRIPOS>ATOM
      1 C1          1.8244    8.7848    1.9241 C.2       1 <0>        -0.2019
      2 C2          0.9382    7.9457    1.4482 C.2       1 <0>        -0.1429
      3 C3          1.0544    7.4513    0.0293 C.3       1 <0>        -0.0440
      4 C4          1.0707    5.9444    0.0222 C.ar      1 <0>        -0.1321
      5 C5          2.2893    5.2711    0.0074 C.ar      1 <0>        -0.0669
      6 C6          2.3401    3.9107   -0.0003 C.ar      1 <0>        -0.1493
      7 C7          1.1469    3.1677    0.0076 C.ar      1 <0>        -0.0220
      8 C8          1.1626    1.7623    0.0004 C.ar      1 <0>        -0.1082
      9 C9         -0.0126    1.0758    0.0080 C.ar      1 <0>        -0.1107
     10 C10        -1.2345    1.7457    0.0174 C.ar      1 <0>        -0.1174
     11 C11        -1.2876    3.1061    0.0297 C.ar      1 <0>        -0.1098
     12 C12        -0.0956    3.8481    0.0227 C.ar      1 <0>        -0.1168
     13 C13        -0.1107    5.2580    0.0298 C.ar      1 <0>         0.1689
     14 O1         -1.2913    5.9290    0.0438 O.3       1 <0>        -0.4971
     15 H1          1.7396    9.1456    2.9598 H         1 <0>         0.0990
     16 H2          2.6534    9.1286    1.2881 H         1 <0>         0.0980
     17 H3          0.1092    7.6019    2.0842 H         1 <0>         0.1086
     18 H4          0.1955    7.8115   -0.5560 H         1 <0>         0.0843
     19 H5          1.9862    7.8302   -0.4159 H         1 <0>         0.0739
     20 H6          3.2091    5.8372    0.0020 H         1 <0>         0.1278
     21 H7          3.2938    3.4041   -0.0121 H         1 <0>         0.1285
     22 H8          2.1022    1.2300   -0.0107 H         1 <0>         0.1296
     23 H9          0.0021   -0.0041    0.0020 H         1 <0>         0.1252
     24 H10        -2.1529    1.1774    0.0187 H         1 <0>         0.1251
     25 H11        -2.2417    3.6119    0.0411 H         1 <0>         0.1226
     26 H12        -2.2402    5.3725    0.0499 H         1 <0>         0.4275
@<TRIPOS>BOND
     1    1    2 2
     2    1   15 1
     3    1   16 1
     4    2    3 1
     5    2   17 1
     6    3    4 1
     7    3   18 1
     8    3   19 1
     9    4   13 ar
    10    4    5 ar
    11    5    6 ar
    12    5   20 1
    13    6    7 ar
    14    6   21 1
    15    7   12 ar
    16    7    8 ar
    17    8    9 ar
    18    8   22 1
    19    9   10 ar
    20    9   23 1
    21   10   11 ar
    22   10   24 1
    23   11   12 ar
    24   11   25 1
    25   12   13 ar
    26   13   14 1
    27   14   26 1
@<TRIPOS>MOLECULE
ZINC27195404
   32    34     0     0     0
SMALL
USER_CHARGES
2-[(4-fluorophenyl)methyl]naphthalen-1-ol
@<TRIPOS>ATOM
      1 C1         -3.6293    1.7745    0.0292 C.ar      1 <0>        -0.1019
      2 C2         -3.6298    3.1680    0.0369 C.ar      1 <0>        -0.1318
      3 C3         -2.4628    3.8691    0.0445 C.ar      1 <0>        -0.0822
      4 C4         -1.2388    3.1812    0.0300 C.ar      1 <0>        -0.0764
      5 C5         -1.2375    1.7643    0.0175 C.ar      1 <0>        -0.0170
      6 C6         -2.4621    1.0744    0.0199 C.ar      1 <0>        -0.1186
      7 C7         -0.0126    1.0758    0.0080 C.ar      1 <0>        -0.1499
      8 C8          1.1559    1.7750    0.0006 C.ar      1 <0>        -0.0656
      9 C9          1.1600    3.1669    0.0075 C.ar      1 <0>        -0.1931
     10 C10        -0.0104    3.8726    0.0221 C.ar      1 <0>         0.1845
     11 O1          0.0100    5.2304    0.0292 O.3       1 <0>        -0.5009
     12 C11         2.4732    3.9061   -0.0005 C.3       1 <0>        -0.0390
     13 C12         2.8629    4.2533    1.4132 C.ar      1 <0>        -0.0911
     14 C13         2.4602    5.4551    1.9654 C.ar      1 <0>        -0.0926
     15 C14         2.8130    5.7724    3.2634 C.ar      1 <0>        -0.1459
     16 C15         3.5788    4.8908    4.0073 C.ar      1 <0>         0.0959
     17 C16         3.9859    3.6898    3.4514 C.ar      1 <0>        -0.1478
     18 C17         3.6275    3.3723    2.1550 C.ar      1 <0>        -0.0812
     19 F1          3.9281    5.2020    5.2747 F         1 <0>        -0.1385
     20 H1         -4.5689    1.2421    0.0311 H         1 <0>         0.1245
     21 H2         -4.5698    3.6997    0.0445 H         1 <0>         0.1242
     22 H3         -2.4784    4.9490    0.0505 H         1 <0>         0.1305
     23 H4         -2.4769   -0.0055    0.0141 H         1 <0>         0.1297
     24 H5          0.0021   -0.0041    0.0020 H         1 <0>         0.1281
     25 H6          2.0946    1.2410   -0.0113 H         1 <0>         0.1236
     26 H7          0.9707    5.7661    0.0230 H         1 <0>         0.4230
     27 H8          3.2498    3.2691   -0.4490 H         1 <0>         0.0947
     28 H9          2.3708    4.8292   -0.5898 H         1 <0>         0.0787
     29 H10         1.8664    6.1444    1.3835 H         1 <0>         0.1277
     30 H11         2.4948    6.7095    3.6959 H         1 <0>         0.1376
     31 H12         4.5830    3.0012    4.0309 H         1 <0>         0.1372
     32 H13         3.9447    2.4354    1.7214 H         1 <0>         0.1337
@<TRIPOS>BOND
     1    1    6 ar
     2    1    2 ar
     3    1   20 1
     4    2    3 ar
     5    2   21 1
     6    3    4 ar
     7    3   22 1
     8    4   10 ar
     9    4    5 ar
    10    5    6 ar
    11    5    7 ar
    12    6   23 1
    13    7    8 ar
    14    7   24 1
    15    8    9 ar
    16    8   25 1
    17    9   10 ar
    18    9   12 1
    19   10   11 1
    20   11   26 1
    21   12   13 1
    22   12   27 1
    23   12   28 1
    24   13   18 ar
    25   13   14 ar
    26   14   15 ar
    27   14   29 1
    28   15   16 ar
    29   15   30 1
    30   16   17 ar
    31   16   19 1
    32   17   18 ar
    33   17   31 1
    34   18   32 1
@<TRIPOS>MOLECULE
ZINC05915905
   33    34     0     0     0
SMALL
USER_CHARGES
1-(4-chlorophenyl)-3-(4-hydroxy-3-methoxy-phenyl)-prop-2-en-1-one
@<TRIPOS>ATOM
      1 C1          1.1891    5.8925    0.0234 C.3       1 <0>         0.0222
      2 O1         -0.0708    5.2181    0.0313 O.3       1 <0>        -0.3059
      3 C2         -0.0434    3.8585    0.0233 C.ar      1 <0>         0.1006
      4 C3          1.1660    3.1928    0.0081 C.ar      1 <0>        -0.1677
      5 C4          1.1903    1.7927    0.0003 C.ar      1 <0>        -0.0569
      6 C5         -0.0126    1.0758    0.0080 C.ar      1 <0>        -0.1143
      7 C6         -1.2143    1.7484    0.0173 C.ar      1 <0>        -0.1103
      8 C7         -1.2370    3.1371    0.0308 C.ar      1 <0>         0.0940
      9 O2         -2.4252    3.7946    0.0453 O.3       1 <0>        -0.4846
     10 C8          2.4735    1.0783   -0.0163 C.2       1 <0>         0.0044
     11 C9          2.4945   -0.2741   -0.0243 C.2       1 <0>        -0.2421
     12 C10         3.7331   -0.9637   -0.0403 C.2       1 <0>         0.4261
     13 O3          4.7780   -0.3385   -0.0469 O.2       1 <0>        -0.4578
     14 C11         3.7561   -2.4422   -0.0490 C.ar      1 <0>        -0.1580
     15 C12         2.5596   -3.1620   -0.0356 C.ar      1 <0>        -0.0623
     16 C13         2.5874   -4.5405   -0.0491 C.ar      1 <0>        -0.1227
     17 C14         3.7992   -5.2115   -0.0643 C.ar      1 <0>        -0.0080
     18 C15         4.9896   -4.5030   -0.0724 C.ar      1 <0>        -0.1217
     19 C16         4.9745   -3.1242   -0.0648 C.ar      1 <0>        -0.0501
     20 Cl1         3.8262   -6.9472   -0.0740 Cl        1 <0>        -0.0591
     21 H1          1.7602    5.6059    0.9064 H         1 <0>         0.0581
     22 H2          1.7435    5.6161   -0.8734 H         1 <0>         0.0576
     23 H3          1.0245    6.9700    0.0311 H         1 <0>         0.1047
     24 H4          2.0910    3.7504    0.0026 H         1 <0>         0.1397
     25 H5          0.0021   -0.0041    0.0020 H         1 <0>         0.1361
     26 H6         -2.1414    1.1945    0.0187 H         1 <0>         0.1428
     27 H7         -2.7776    3.9895   -0.8339 H         1 <0>         0.3914
     28 H8          3.4002    1.6328   -0.0222 H         1 <0>         0.1384
     29 H9          1.5678   -0.8287   -0.0184 H         1 <0>         0.1367
     30 H10         1.6143   -2.6399   -0.0189 H         1 <0>         0.1415
     31 H11         1.6626   -5.0982   -0.0433 H         1 <0>         0.1415
     32 H12         5.9313   -5.0316   -0.0850 H         1 <0>         0.1414
     33 H13         5.9032   -2.5729   -0.0715 H         1 <0>         0.1443
@<TRIPOS>BOND
     1    1    2 1
     2    1   21 1
     3    1   22 1
     4    1   23 1
     5    2    3 1
     6    3    8 ar
     7    3    4 ar
     8    4    5 ar
     9    4   24 1
    10    5    6 ar
    11    5   10 1
    12    6    7 ar
    13    6   25 1
    14    7    8 ar
    15    7   26 1
    16    8    9 1
    17    9   27 1
    18   10   11 2
    19   10   28 1
    20   11   12 1
    21   11   29 1
    22   12   13 2
    23   12   14 1
    24   14   19 ar
    25   14   15 ar
    26   15   16 ar
    27   15   30 1
    28   16   17 ar
    29   16   31 1
    30   17   18 ar
    31   17   20 1
    32   18   19 ar
    33   18   32 1
    34   19   33 1
@<TRIPOS>MOLECULE
ZINC04252698
   33    34     0     0     0
SMALL
USER_CHARGES
3-(3,4-dihydroxyphenyl)-1-(2,4,6-trihydroxyphenyl)-prop-2-en-1-one
@<TRIPOS>ATOM
      1 C1         -0.0135    1.0745   -0.0113 C.ar      1 <0>        -0.0886
      2 C2         -1.2160    1.7469   -0.0080 C.ar      1 <0>        -0.1326
      3 C3         -1.2393    3.1349    0.0091 C.ar      1 <0>         0.0973
      4 C4         -0.0456    3.8567    0.0116 C.ar      1 <0>         0.0789
      5 C5          1.1638    3.1913    0.0031 C.ar      1 <0>        -0.1028
      6 C6          1.1884    1.7913   -0.0085 C.ar      1 <0>        -0.0747
      7 C7          2.4726    1.0769   -0.0181 C.2       1 <0>        -0.0077
      8 C8          2.4940   -0.2738   -0.0296 C.2       1 <0>        -0.2289
      9 C9          3.7722   -0.9849   -0.0392 C.2       1 <0>         0.4488
     10 O1          4.8152   -0.3619   -0.1324 O.2       1 <0>        -0.4439
     11 C10         3.7984   -2.4527    0.0638 C.ar      1 <0>        -0.2126
     12 C11         3.7740   -3.0725    1.3236 C.ar      1 <0>         0.1742
     13 C12         3.7936   -4.4523    1.4114 C.ar      1 <0>        -0.1824
     14 C13         3.8489   -5.2247    0.2583 C.ar      1 <0>         0.1579
     15 C14         3.8787   -4.6194   -0.9915 C.ar      1 <0>        -0.1805
     16 C15         3.8539   -3.2409   -1.0970 C.ar      1 <0>         0.1741
     17 O2          3.8826   -2.6515   -2.3188 O.3       1 <0>        -0.4897
     18 O3          3.8735   -6.5783    0.3533 O.3       1 <0>        -0.4923
     19 O4          3.7261   -2.3196    2.4513 O.3       1 <0>        -0.4878
     20 O5         -0.0734    5.2163    0.0228 O.3       1 <0>        -0.4857
     21 O6         -2.4279    3.7921    0.0175 O.3       1 <0>        -0.4865
     22 H1          0.0016   -0.0054   -0.0206 H         1 <0>         0.1370
     23 H2         -2.1430    1.1928   -0.0144 H         1 <0>         0.1396
     24 H3          2.0887    3.7491    0.0057 H         1 <0>         0.1409
     25 H4          3.3992    1.6316   -0.0159 H         1 <0>         0.1378
     26 H5          1.5674   -0.8285   -0.0318 H         1 <0>         0.1355
     27 H6          3.7703   -4.9307    2.3794 H         1 <0>         0.1460
     28 H7          3.9209   -5.2271   -1.8833 H         1 <0>         0.1461
     29 H8          4.7736   -2.4622   -2.6433 H         1 <0>         0.4015
     30 H9          4.7634   -6.9524    0.4106 H         1 <0>         0.4002
     31 H10         2.8293   -2.1190    2.7525 H         1 <0>         0.3994
     32 H11        -0.0836    5.6168   -0.8573 H         1 <0>         0.3902
     33 H12        -2.7745    3.9894   -0.8634 H         1 <0>         0.3916
@<TRIPOS>BOND
     1    1    6 ar
     2    1    2 ar
     3    1   22 1
     4    2    3 ar
     5    2   23 1
     6    3    4 ar
     7    3   21 1
     8    4    5 ar
     9    4   20 1
    10    5    6 ar
    11    5   24 1
    12    6    7 1
    13    7    8 2
    14    7   25 1
    15    8    9 1
    16    8   26 1
    17    9   10 2
    18    9   11 1
    19   11   16 ar
    20   11   12 ar
    21   12   13 ar
    22   12   19 1
    23   13   14 ar
    24   13   27 1
    25   14   15 ar
    26   14   18 1
    27   15   16 ar
    28   15   28 1
    29   16   17 1
    30   17   29 1
    31   18   30 1
    32   19   31 1
    33   20   32 1
    34   21   33 1
@<TRIPOS>MOLECULE
ZINC12428433
   32    33     0     0     0
SMALL
USER_CHARGES

@<TRIPOS>ATOM
      1 C1         -0.0169    1.3954    0.0097 C.ar      1 <0>        -0.0904
      2 C2          1.1670    2.0999    0.0022 C.ar      1 <0>        -0.1322
      3 C3          2.3804    1.4253   -0.0135 C.ar      1 <0>         0.0958
      4 C4          2.4078    0.0306   -0.0212 C.ar      1 <0>         0.0793
      5 C5          1.2266   -0.6835   -0.0138 C.ar      1 <0>        -0.1038
      6 C6          0.0021   -0.0041    0.0020 C.ar      1 <0>        -0.0735
      7 C7         -1.2589   -0.7581    0.0105 C.2       1 <0>        -0.0126
      8 C8         -2.4394   -0.1004    0.0257 C.2       1 <0>        -0.2314
      9 C9         -3.6941   -0.8507    0.0342 C.2       1 <0>         0.4226
     10 O1         -3.6755   -2.0687    0.0275 O.2       1 <0>        -0.4421
     11 C10        -4.9819   -0.1332    0.0508 C.ar      1 <0>        -0.2013
     12 C11        -5.0066    1.2652    0.0527 C.ar      1 <0>        -0.0413
     13 C12        -6.2101    1.9309    0.0678 C.ar      1 <0>        -0.1682
     14 C13        -7.4056    1.2179    0.0812 C.ar      1 <0>         0.1575
     15 C14        -7.3926   -0.1691    0.0794 C.ar      1 <0>        -0.1902
     16 C15        -6.1880   -0.8506    0.0589 C.ar      1 <0>         0.1855
     17 O2         -6.1733   -2.2072    0.0519 O.3       1 <0>        -0.4786
     18 O3         -8.5888    1.8827    0.0964 O.3       1 <0>        -0.4961
     19 O4          3.5988   -0.6258   -0.0366 O.3       1 <0>        -0.4857
     20 O5          3.5442    2.1254   -0.0217 O.3       1 <0>        -0.4865
     21 H1         -0.9592    1.9228    0.0261 H         1 <0>         0.1364
     22 H2          1.1512    3.1797    0.0081 H         1 <0>         0.1394
     23 H3          1.2466   -1.7633   -0.0205 H         1 <0>         0.1407
     24 H4         -1.2424   -1.8380    0.0045 H         1 <0>         0.1381
     25 H5         -2.4560    0.9794    0.0317 H         1 <0>         0.1347
     26 H6         -4.0812    1.8220    0.0427 H         1 <0>         0.1409
     27 H7         -6.2276    3.0108    0.0696 H         1 <0>         0.1396
     28 H8         -8.3229   -0.7176    0.0899 H         1 <0>         0.1426
     29 H9         -6.1604   -2.6050    0.9333 H         1 <0>         0.3992
     30 H10        -8.9423    2.0766   -0.7825 H         1 <0>         0.4001
     31 H11         3.9520   -0.8204    0.8423 H         1 <0>         0.3901
     32 H12         3.8902    2.3237    0.8592 H         1 <0>         0.3914
@<TRIPOS>BOND
     1    1    6 ar
     2    1    2 ar
     3    1   21 1
     4    2    3 ar
     5    2   22 1
     6    3    4 ar
     7    3   20 1
     8    4    5 ar
     9    4   19 1
    10    5    6 ar
    11    5   23 1
    12    6    7 1
    13    7    8 2
    14    7   24 1
    15    8    9 1
    16    8   25 1
    17    9   10 2
    18    9   11 1
    19   11   16 ar
    20   11   12 ar
    21   12   13 ar
    22   12   26 1
    23   13   14 ar
    24   13   27 1
    25   14   15 ar
    26   14   18 1
    27   15   16 ar
    28   15   28 1
    29   16   17 1
    30   17   29 1
    31   18   30 1
    32   19   31 1
    33   20   32 1
@<TRIPOS>MOLECULE
ZINC13759082
   23    24     0     0     0
SMALL
USER_CHARGES
1-(6-fluoro-2-pyridyl)-1,2,4-triazinan-3-one
@<TRIPOS>ATOM
      1 C1         -3.5422   -0.7935   -1.4170 C.ar      1 <0>         0.0017
      2 C2         -2.3716   -0.2215   -0.9495 C.ar      1 <0>        -0.2465
      3 C3         -2.4027    1.0778   -0.4558 C.ar      1 <0>         0.4471
      4 N1         -3.5369    1.7616   -0.4266 N.ar      1 <0>        -0.5711
      5 C4         -4.6685    1.2441   -0.8705 C.ar      1 <0>         0.3641
      6 C5         -4.7088   -0.0442   -1.3749 C.ar      1 <0>        -0.2478
      7 F1         -5.8010    1.9795   -0.8271 F         1 <0>        -0.1068
      8 N2         -1.2338    1.6628    0.0169 N.pl3     1 <0>        -0.4191
      9 C6         -1.2230    3.0370    0.5534 C.3       1 <0>         0.1139
     10 C7         -0.0744    3.7924   -0.1261 C.3       1 <0>         0.0915
     11 N3          1.1545    3.0055   -0.0263 N.am      1 <0>        -0.7319
     12 C8          1.1403    1.6643    0.0001 C.2       1 <0>         0.7195
     13 O1          2.1966    1.0625    0.0176 O.2       1 <0>        -0.5760
     14 N4         -0.0111    0.9658    0.0074 N.am      1 <0>        -0.5201
     15 H1         -3.5472   -1.8012   -1.8056 H         1 <0>         0.1501
     16 H2         -1.4460   -0.7776   -0.9676 H         1 <0>         0.1372
     17 H3         -5.6387   -0.4617   -1.7317 H         1 <0>         0.1495
     18 H4         -1.0637    3.0151    1.6315 H         1 <0>         0.0822
     19 H5         -2.1705    3.5273    0.3301 H         1 <0>         0.1290
     20 H6          0.0691    4.7542    0.3663 H         1 <0>         0.1035
     21 H7         -0.3176    3.9546   -1.1761 H         1 <0>         0.0747
     22 H8          2.0059    3.4676    0.0227 H         1 <0>         0.4208
     23 H9          0.0021   -0.0041    0.0020 H         1 <0>         0.4344
@<TRIPOS>BOND
     1    1    6 ar
     2    1    2 ar
     3    1   15 1
     4    2    3 ar
     5    2   16 1
     6    3    4 ar
     7    3    8 1
     8    4    5 ar
     9    5    6 ar
    10    5    7 1
    11    6   17 1
    12    8   14 1
    13    8    9 1
    14    9   10 1
    15    9   18 1
    16    9   19 1
    17   10   11 1
    18   10   20 1
    19   10   21 1
    20   11   12 am
    21   11   22 1
    22   12   13 2
    23   12   14 am
    24   14   23 1
@<TRIPOS>MOLECULE
ZINC03921793
   30    31     0     0     0
SMALL
USER_CHARGES
3-(3,4-dihydroxyphenyl)-1-phenyl-prop-2-en-1-one
@<TRIPOS>ATOM
      1 C1          9.7514    0.1209   -0.0894 C.ar      1 <0>        -0.0898
      2 C2          9.7422    1.5047   -0.0823 C.ar      1 <0>        -0.1315
      3 C3          8.5449    2.1895   -0.0672 C.ar      1 <0>        -0.0634
      4 C4          7.3406    1.4834   -0.0595 C.ar      1 <0>        -0.1626
      5 C5          7.3570    0.0875   -0.0614 C.ar      1 <0>        -0.0758
      6 C6          8.5613   -0.5850   -0.0818 C.ar      1 <0>        -0.1327
      7 C7          6.0529    2.2112   -0.0433 C.2       1 <0>         0.4247
      8 O1          6.0417    3.4287   -0.0366 O.2       1 <0>        -0.4610
      9 C8          4.8319    1.4912   -0.0355 C.2       1 <0>        -0.2412
     10 C9          3.6543    2.1567   -0.0207 C.2       1 <0>         0.0016
     11 C10         2.3892    1.4107   -0.0127 C.ar      1 <0>        -0.0784
     12 C11         2.3996    0.0104   -0.0203 C.ar      1 <0>        -0.0874
     13 C12         1.2118   -0.6864   -0.0132 C.ar      1 <0>        -0.1338
     14 C13         0.0021   -0.0041    0.0020 C.ar      1 <0>         0.0992
     15 C14        -0.0168    1.3905    0.0097 C.ar      1 <0>         0.0791
     16 C15         1.1689    2.0976    0.0022 C.ar      1 <0>        -0.1020
     17 O2         -1.2038    2.0542    0.0189 O.3       1 <0>        -0.4905
     18 O3         -1.1659   -0.6970    0.0090 O.3       1 <0>        -0.4914
     19 H1         10.6916   -0.4104   -0.1005 H         1 <0>         0.1279
     20 H2         10.6746    2.0497   -0.0882 H         1 <0>         0.1297
     21 H3          8.5391    3.2694   -0.0609 H         1 <0>         0.1338
     22 H4          6.4289   -0.4647   -0.0509 H         1 <0>         0.1306
     23 H5          8.5753   -1.6649   -0.0871 H         1 <0>         0.1296
     24 H6          4.8418    0.4113   -0.0414 H         1 <0>         0.1352
     25 H7          3.6444    3.2367   -0.0148 H         1 <0>         0.1395
     26 H8          3.3387   -0.5228   -0.0321 H         1 <0>         0.1369
     27 H9          1.2209   -1.7663   -0.0191 H         1 <0>         0.1397
     28 H10         1.1554    3.1775    0.0077 H         1 <0>         0.1411
     29 H11        -1.5430    2.2413    0.9049 H         1 <0>         0.3956
     30 H12        -1.5122   -0.8929   -0.8724 H         1 <0>         0.3973
@<TRIPOS>BOND
     1    1    6 ar
     2    1    2 ar
     3    1   19 1
     4    2    3 ar
     5    2   20 1
     6    3    4 ar
     7    3   21 1
     8    4    5 ar
     9    4    7 1
    10    5    6 ar
    11    5   22 1
    12    6   23 1
    13    7    8 2
    14    7    9 1
    15    9   10 2
    16    9   24 1
    17   10   11 1
    18   10   25 1
    19   11   16 ar
    20   11   12 ar
    21   12   13 ar
    22   12   26 1
    23   13   14 ar
    24   13   27 1
    25   14   15 ar
    26   14   18 1
    27   15   16 ar
    28   15   17 1
    29   16   28 1
    30   17   29 1
    31   18   30 1
@<TRIPOS>MOLECULE
ZINC01548581
   50    50     0     0     0
SMALL
USER_CHARGES
1-(4-hydroxy-3,5-ditert-butyl-phenyl)hex-5-yn-1-one
@<TRIPOS>ATOM
      1 C1         -0.0127    1.0858    0.0080 C.3       1 <0>        -0.1489
      2 C2         -0.7288    1.5792    1.2668 C.3       1 <0>        -0.0213
      3 C3         -0.7496    3.1091    1.2752 C.3       1 <0>        -0.1425
      4 C4         -2.1642    1.0497    1.2777 C.3       1 <0>        -0.1423
      5 C5          0.0000    1.0800    2.4877 C.ar      1 <0>        -0.1053
      6 C6          1.1241    0.3077    2.3456 C.ar      1 <0>        -0.0529
      7 C7          1.8007   -0.1551    3.4810 C.ar      1 <0>        -0.1773
      8 C8          1.3249    0.1738    4.7563 C.ar      1 <0>        -0.0657
      9 C9          0.1999    0.9467    4.8874 C.ar      1 <0>        -0.1060
     10 C10        -0.4653    1.4082    3.7566 C.ar      1 <0>         0.1518
     11 O1         -1.5750    2.1769    3.8917 O.3       1 <0>        -0.4837
     12 C11        -0.3130    1.3019    6.2592 C.3       1 <0>        -0.0207
     13 C12         0.5963    0.6796    7.3206 C.3       1 <0>        -0.1489
     14 C13        -0.3209    2.8231    6.4227 C.3       1 <0>        -0.1432
     15 C14        -1.7354    0.7636    6.4270 C.3       1 <0>        -0.1430
     16 C15         3.0048   -0.9830    3.3347 C.2       1 <0>         0.3964
     17 O2          3.4149   -1.2670    2.2291 O.2       1 <0>        -0.4491
     18 C16         3.7309   -1.4797    4.5583 C.3       1 <0>        -0.1584
     19 C17         4.9411   -2.3123    4.1302 C.3       1 <0>        -0.1084
     20 C18         5.6783   -2.8166    5.3725 C.3       1 <0>        -0.0125
     21 C19         6.8426   -3.6176    4.9607 C.1       1 <0>        -0.1922
     22 C20         7.7712   -4.2565    4.6323 C.1       1 <0>        -0.2047
     23 H1          0.0021   -0.0041    0.0020 H         1 <0>         0.0589
     24 H2          1.0099    1.4631    0.0003 H         1 <0>         0.0596
     25 H3         -0.5399    1.4469   -0.8751 H         1 <0>         0.0617
     26 H4         -1.2768    3.4701    0.3922 H         1 <0>         0.0561
     27 H5         -1.2598    3.4606    2.1720 H         1 <0>         0.0751
     28 H6          0.2730    3.4864    1.2675 H         1 <0>         0.0516
     29 H7         -2.1494   -0.0402    1.2717 H         1 <0>         0.0549
     30 H8         -2.6744    1.4012    2.1745 H         1 <0>         0.0575
     31 H9         -2.6914    1.4107    0.3946 H         1 <0>         0.0627
     32 H10         1.4872    0.0571    1.3599 H         1 <0>         0.1413
     33 H11         1.8433   -0.1804    5.6351 H         1 <0>         0.1391
     34 H12        -2.3994    1.6734    3.9344 H         1 <0>         0.3870
     35 H13         1.6096    1.0631    7.2011 H         1 <0>         0.0596
     36 H14         0.2253    0.9365    8.3128 H         1 <0>         0.0621
     37 H15         0.6019   -0.4042    7.2042 H         1 <0>         0.0589
     38 H16        -0.9687    3.2665    5.6665 H         1 <0>         0.0751
     39 H17        -0.6919    3.0800    7.4149 H         1 <0>         0.0559
     40 H18         0.6924    3.2066    6.3031 H         1 <0>         0.0518
     41 H19        -1.7298   -0.3202    6.3106 H         1 <0>         0.0552
     42 H20        -2.1064    1.0205    7.4192 H         1 <0>         0.0625
     43 H21        -2.3832    1.2069    5.6708 H         1 <0>         0.0575
     44 H22         4.0388   -0.6995    5.1028 H         1 <0>         0.0924
     45 H23         3.0584   -2.0962    5.1546 H         1 <0>         0.1021
     46 H24         4.6055   -3.1627    3.5367 H         1 <0>         0.0742
     47 H25         5.6137   -1.6958    3.5339 H         1 <0>         0.0739
     48 H26         6.0139   -1.9662    5.9660 H         1 <0>         0.0875
     49 H27         5.0057   -3.4331    5.9688 H         1 <0>         0.0878
     50 H28         8.6017   -4.8279    4.3385 H         1 <0>         0.2172
@<TRIPOS>BOND
     1    1    2 1
     2    1   23 1
     3    1   24 1
     4    1   25 1
     5    2    3 1
     6    2    4 1
     7    2    5 1
     8    3   26 1
     9    3   27 1
    10    3   28 1
    11    4   29 1
    12    4   30 1
    13    4   31 1
    14    5   10 ar
    15    5    6 ar
    16    6    7 ar
    17    6   32 1
    18    7    8 ar
    19    7   16 1
    20    8    9 ar
    21    8   33 1
    22    9   10 ar
    23    9   12 1
    24   10   11 1
    25   11   34 1
    26   12   13 1
    27   12   14 1
    28   12   15 1
    29   13   35 1
    30   13   36 1
    31   13   37 1
    32   14   38 1
    33   14   39 1
    34   14   40 1
    35   15   41 1
    36   15   42 1
    37   15   43 1
    38   16   17 2
    39   16   18 1
    40   18   19 1
    41   18   44 1
    42   18   45 1
    43   19   20 1
    44   19   46 1
    45   19   47 1
    46   20   21 1
    47   20   48 1
    48   20   49 1
    49   21   22 3
    50   22   50 1
@<TRIPOS>MOLECULE
ZINC06262659
   42    43     0     0     0
SMALL
USER_CHARGES

@<TRIPOS>ATOM
      1 C1         -0.0187    1.5258    0.0104 C.3       1 <0>        -0.1481
      2 C2          0.0021   -0.0041    0.0020 C.3       1 <0>        -0.0184
      3 C3          0.7421   -0.5109    1.2415 C.3       1 <0>        -0.1397
      4 C4         -1.4333   -0.5336    0.0129 C.3       1 <0>        -0.1402
      5 C5          0.7074   -0.4901   -1.2379 C.ar      1 <0>        -0.0908
      6 C6          1.2151    0.4185   -2.1418 C.ar      1 <0>        -0.0835
      7 C7          1.8688   -0.0328   -3.2899 C.ar      1 <0>         0.0302
      8 C8          2.0055   -1.4034   -3.5176 C.ar      1 <0>        -0.0988
      9 C9          1.4951   -2.3054   -2.6087 C.ar      1 <0>        -0.0894
     10 C10         0.8502   -1.8524   -1.4654 C.ar      1 <0>         0.1103
     11 O1          0.3533   -2.7448   -0.5692 O.3       1 <0>        -0.4853
     12 C11         1.6421   -3.7851   -2.8534 C.3       1 <0>        -0.0186
     13 C12         2.3895   -4.0127   -4.1689 C.3       1 <0>        -0.1486
     14 C13         2.4296   -4.4165   -1.7036 C.3       1 <0>        -0.1399
     15 C14         0.2564   -4.4285   -2.9362 C.3       1 <0>        -0.1400
     16 C15         2.4142    0.9378   -4.2619 C.2       1 <0>         0.0226
     17 N1          2.4009    2.2644   -4.2406 N.2       1 <0>        -0.2451
     18 N2          2.9187    2.9513   -5.1631 N.2       1 <0>        -0.3485
     19 C16         3.5081    2.3871   -6.2109 C.2       1 <0>         0.2833
     20 S1          3.2878    0.6584   -5.7996 S.3       1 <0>        -0.1451
     21 S2          4.2900    3.1283   -7.6051 S.3       1 <0>        -0.6615
     22 H1          1.0039    1.9031    0.0027 H         1 <0>         0.0612
     23 H2         -0.5459    1.8868   -0.8726 H         1 <0>         0.0605
     24 H3         -0.5289    1.8773    0.9072 H         1 <0>         0.0559
     25 H4          0.2319   -0.1594    2.1383 H         1 <0>         0.0508
     26 H5          0.7568   -1.6008    1.2356 H         1 <0>         0.0739
     27 H6          1.7647   -0.1336    1.2338 H         1 <0>         0.0513
     28 H7         -1.9605   -0.1726   -0.8702 H         1 <0>         0.0545
     29 H8         -1.4185   -1.6235    0.0069 H         1 <0>         0.0571
     30 H9         -1.9435   -0.1821    0.9097 H         1 <0>         0.0573
     31 H10         1.1070    1.4780   -1.9623 H         1 <0>         0.1403
     32 H11         2.5103   -1.7564   -4.4047 H         1 <0>         0.1328
     33 H12        -0.5596   -3.0111   -0.7442 H         1 <0>         0.3765
     34 H13         3.3767   -3.5543   -4.1099 H         1 <0>         0.0602
     35 H14         2.4958   -5.0830   -4.3459 H         1 <0>         0.0570
     36 H15         1.8284   -3.5629   -4.9881 H         1 <0>         0.0595
     37 H16         1.8972   -4.2543   -0.7664 H         1 <0>         0.0746
     38 H17         2.5360   -5.4867   -1.8806 H         1 <0>         0.0509
     39 H18         3.4168   -3.9581   -1.6446 H         1 <0>         0.0512
     40 H19        -0.3046   -3.9788   -3.7554 H         1 <0>         0.0545
     41 H20         0.3628   -5.4988   -3.1132 H         1 <0>         0.0575
     42 H21        -0.2760   -4.2664   -1.9991 H         1 <0>         0.0574
@<TRIPOS>BOND
     1    1    2 1
     2    1   22 1
     3    1   23 1
     4    1   24 1
     5    2    3 1
     6    2    4 1
     7    2    5 1
     8    3   25 1
     9    3   26 1
    10    3   27 1
    11    4   28 1
    12    4   29 1
    13    4   30 1
    14    5   10 ar
    15    5    6 ar
    16    6    7 ar
    17    6   31 1
    18    7    8 ar
    19    7   16 1
    20    8    9 ar
    21    8   32 1
    22    9   10 ar
    23    9   12 1
    24   10   11 1
    25   11   33 1
    26   12   13 1
    27   12   14 1
    28   12   15 1
    29   13   34 1
    30   13   35 1
    31   13   36 1
    32   14   37 1
    33   14   38 1
    34   14   39 1
    35   15   40 1
    36   15   41 1
    37   15   42 1
    38   16   20 1
    39   16   17 2
    40   17   18 1
    41   18   19 2
    42   19   20 1
    43   19   21 1
@<TRIPOS>MOLECULE
ZINC13727692
   44    45     0     0     0
SMALL
USER_CHARGES

@<TRIPOS>ATOM
      1 C1         -0.0187    1.5258    0.0104 C.3       1 <0>        -0.1477
      2 C2          0.0021   -0.0041    0.0020 C.3       1 <0>        -0.0194
      3 C3          0.7421   -0.5109    1.2415 C.3       1 <0>        -0.1418
      4 C4         -1.4333   -0.5336    0.0129 C.3       1 <0>        -0.1421
      5 C5          0.7074   -0.4901   -1.2379 C.ar      1 <0>        -0.1000
      6 C6          1.2153    0.4186   -2.1423 C.ar      1 <0>        -0.0679
      7 C7          1.8677   -0.0317   -3.2889 C.ar      1 <0>        -0.0351
      8 C8          2.0045   -1.4000   -3.5176 C.ar      1 <0>        -0.0620
      9 C9          1.4945   -2.3038   -2.6095 C.ar      1 <0>        -0.1019
     10 C10         0.8503   -1.8522   -1.4656 C.ar      1 <0>         0.1388
     11 O1          0.3541   -2.7450   -0.5697 O.3       1 <0>        -0.4843
     12 C11         1.6421   -3.7832   -2.8560 C.3       1 <0>        -0.0191
     13 C12         2.3892   -4.0089   -4.1720 C.3       1 <0>        -0.1466
     14 C13         2.4302   -4.4155   -1.7071 C.3       1 <0>        -0.1421
     15 C14         0.2566   -4.4270   -2.9392 C.3       1 <0>        -0.1420
     16 C15         2.4146    0.9430   -4.2640 C.2       1 <0>         0.3412
     17 N1          3.0325    0.5378   -5.3605 N.2       1 <0>        -0.5865
     18 C16         3.4933    1.4640   -6.1822 C.2       1 <0>         0.3197
     19 S1          3.0570    2.8918   -5.4116 S.3       1 <0>         0.2351
     20 N2          2.2956    2.2404   -4.0680 N.2       1 <0>        -0.4878
     21 N3          4.1676    1.2993   -7.3783 N.pl3     1 <0>        -0.7857
     22 H1          1.0039    1.9031    0.0027 H         1 <0>         0.0594
     23 H2         -0.5459    1.8868   -0.8726 H         1 <0>         0.0586
     24 H3         -0.5289    1.8773    0.9072 H         1 <0>         0.0601
     25 H4          0.2319   -0.1594    2.1383 H         1 <0>         0.0548
     26 H5          0.7568   -1.6008    1.2356 H         1 <0>         0.0750
     27 H6          1.7647   -0.1336    1.2338 H         1 <0>         0.0513
     28 H7         -1.9605   -0.1726   -0.8702 H         1 <0>         0.0546
     29 H8         -1.4185   -1.6235    0.0069 H         1 <0>         0.0580
     30 H9         -1.9435   -0.1821    0.9097 H         1 <0>         0.0614
     31 H10         1.1074    1.4781   -1.9626 H         1 <0>         0.1419
     32 H11         2.5091   -1.7519   -4.4053 H         1 <0>         0.1439
     33 H12        -0.5588   -3.0116   -0.7444 H         1 <0>         0.3841
     34 H13         3.3762   -3.5503   -4.1127 H         1 <0>         0.0590
     35 H14         2.4959   -5.0790   -4.3502 H         1 <0>         0.0594
     36 H15         1.8277   -3.5585   -4.9904 H         1 <0>         0.0584
     37 H16         1.8979   -4.2547   -0.7696 H         1 <0>         0.0754
     38 H17         2.5369   -5.4855   -1.8854 H         1 <0>         0.0545
     39 H18         3.4172   -3.9568   -1.6479 H         1 <0>         0.0512
     40 H19        -0.3049   -3.9765   -3.7576 H         1 <0>         0.0545
     41 H20         0.3633   -5.4970   -3.1174 H         1 <0>         0.0612
     42 H21        -0.2757   -4.2661   -2.0017 H         1 <0>         0.0578
     43 H22         4.3564    0.4075   -7.7098 H         1 <0>         0.4177
     44 H23         4.4517    2.0756   -7.8858 H         1 <0>         0.4250
@<TRIPOS>BOND
     1    1    2 1
     2    1   22 1
     3    1   23 1
     4    1   24 1
     5    2    3 1
     6    2    4 1
     7    2    5 1
     8    3   25 1
     9    3   26 1
    10    3   27 1
    11    4   28 1
    12    4   29 1
    13    4   30 1
    14    5   10 ar
    15    5    6 ar
    16    6    7 ar
    17    6   31 1
    18    7    8 ar
    19    7   16 1
    20    8    9 ar
    21    8   32 1
    22    9   10 ar
    23    9   12 1
    24   10   11 1
    25   11   33 1
    26   12   13 1
    27   12   14 1
    28   12   15 1
    29   13   34 1
    30   13   35 1
    31   13   36 1
    32   14   37 1
    33   14   38 1
    34   14   39 1
    35   15   40 1
    36   15   41 1
    37   15   42 1
    38   16   20 2
    39   16   17 1
    40   17   18 2
    41   18   19 1
    42   18   21 1
    43   19   20 1
    44   21   43 1
    45   21   44 1
@<TRIPOS>MOLECULE
ZINC08536496
   40    43     0     0     0
SMALL
USER_CHARGES

@<TRIPOS>ATOM
      1 C1         -0.0188    1.3830   -0.2179 C.ar      1 <0>        -0.0770
      2 C2          1.1623    2.0815   -0.3600 C.ar      1 <0>        -0.0476
      3 C3          2.3546    1.4020   -0.5357 C.ar      1 <0>        -0.0431
      4 C4          2.3712    0.0189   -0.5697 C.ar      1 <0>        -0.0466
      5 C5          1.1972   -0.6917   -0.4284 C.ar      1 <0>        -0.1129
      6 C6         -0.0091   -0.0123   -0.2513 C.ar      1 <0>         0.0393
      7 C7         -1.2711   -0.7674   -0.0992 C.2       1 <0>         0.2446
      8 N1         -1.3852   -2.1266   -0.1096 N.pl3     1 <0>        -0.5451
      9 H1         -0.6623   -2.7644   -0.2169 H         1 <0>         0.4270
     10 C8         -2.7186   -2.4236    0.0613 C.2       1 <0>         0.0464
     11 C9         -3.3780   -1.2101    0.1713 C.2       1 <0>         0.0829
     12 N2         -2.4603   -0.2361    0.0731 N.2       1 <0>        -0.4408
     13 C10        -4.8346   -1.0217    0.3669 C.ar      1 <0>        -0.0246
     14 C11        -5.5281   -1.8229    1.2735 C.ar      1 <0>        -0.0683
     15 C12        -6.8841   -1.6434    1.4525 C.ar      1 <0>        -0.1511
     16 C13        -7.5572   -0.6693    0.7327 C.ar      1 <0>         0.1083
     17 C14        -6.8727    0.1289   -0.1696 C.ar      1 <0>        -0.1525
     18 C15        -5.5155   -0.0388   -0.3509 C.ar      1 <0>        -0.0589
     19 F1         -8.8854   -0.4976    0.9110 F         1 <0>        -0.1362
     20 C16        -3.3249   -3.7670    0.1160 C.ar      1 <0>         0.0178
     21 C17        -4.4680   -4.0729   -0.6356 C.ar      1 <0>        -0.1405
     22 C18        -5.0007   -5.3415   -0.5543 C.ar      1 <0>         0.1090
     23 N3         -4.4496   -6.2604    0.2166 N.ar      1 <0>        -0.4766
     24 C19        -3.3734   -6.0152    0.9406 C.ar      1 <0>         0.1077
     25 C20        -2.7710   -4.7757    0.9164 C.ar      1 <0>        -0.1635
     26 N4          3.6187    2.1584   -0.6885 N.pl3     1 <0>         0.0303
     27 O1          3.6072    3.3670   -0.6596 O.2       1 <0>        -0.1508
     28 O2          4.6621    1.5673   -0.8422 O.3       1 <0>        -0.1544
     29 H2         -0.9483    1.9145   -0.0768 H         1 <0>         0.1632
     30 H3          1.1562    3.1612   -0.3344 H         1 <0>         0.1627
     31 H4          3.3052   -0.5055   -0.7075 H         1 <0>         0.1606
     32 H5          1.2114   -1.7713   -0.4554 H         1 <0>         0.1425
     33 H6         -5.0044   -2.5829    1.8344 H         1 <0>         0.1293
     34 H7         -7.4220   -2.2634    2.1544 H         1 <0>         0.1395
     35 H8         -7.4018    0.8864   -0.7289 H         1 <0>         0.1408
     36 H9         -4.9819    0.5867   -1.0512 H         1 <0>         0.1379
     37 H10        -4.9244   -3.3260   -1.2682 H         1 <0>         0.1408
     38 H11        -5.8814   -5.5871   -1.1291 H         1 <0>         0.1634
     39 H12        -2.9567   -6.7978    1.5572 H         1 <0>         0.1618
     40 H13        -1.8880   -4.5835    1.5078 H         1 <0>         0.1348
@<TRIPOS>BOND
     1    1    6 ar
     2    1    2 ar
     3    1   29 1
     4    2    3 ar
     5    2   30 1
     6    3    4 ar
     7    3   26 1
     8    4    5 ar
     9    4   31 1
    10    5    6 ar
    11    5   32 1
    12    6    7 1
    13    7   12 2
    14    7    8 1
    15    8    9 1
    16    8   10 1
    17   10   11 2
    18   10   20 1
    19   11   12 1
    20   11   13 1
    21   13   18 ar
    22   13   14 ar
    23   14   15 ar
    24   14   33 1
    25   15   16 ar
    26   15   34 1
    27   16   17 ar
    28   16   19 1
    29   17   18 ar
    30   17   35 1
    31   18   36 1
    32   20   25 ar
    33   20   21 ar
    34   21   22 ar
    35   21   37 1
    36   22   23 ar
    37   22   38 1
    38   23   24 ar
    39   24   25 ar
    40   24   39 1
    41   25   40 1
    42   26   27 2
    43   26   28 1
@<TRIPOS>MOLECULE
ZINC08536496
   40    43     0     0     0
SMALL
USER_CHARGES

@<TRIPOS>ATOM
      1 C1         -0.0263    1.3931   -0.2829 C.ar      1 <0>        -0.0848
      2 C2          1.1510    2.0873   -0.4426 C.ar      1 <0>        -0.0399
      3 C3          2.3486    1.4050   -0.5973 C.ar      1 <0>        -0.0077
      4 C4          2.3735    0.0182   -0.5934 C.ar      1 <0>        -0.0378
      5 C5          1.2075   -0.6952   -0.4356 C.ar      1 <0>        -0.1233
      6 C6         -0.0122   -0.0132   -0.2770 C.ar      1 <0>         0.0552
      7 C7         -1.2588   -0.7621   -0.1079 C.2       1 <0>         0.1896
      8 N1         -1.3484   -2.1302   -0.0830 N.pl3     1 <0>        -0.5131
      9 H1         -0.6120   -2.7552   -0.1722 H         1 <0>         0.4317
     10 C8         -2.6658   -2.4517    0.0912 C.2       1 <0>         0.0607
     11 C9         -3.3809   -1.1436    0.1713 C.2       1 <0>         0.0776
     12 N2         -2.4610   -0.2065    0.0486 N.2       1 <0>        -0.4151
     13 C10        -4.8270   -0.9398    0.3571 C.ar      1 <0>         0.0358
     14 C11        -5.5577   -1.7242    1.2663 C.ar      1 <0>        -0.1522
     15 C12        -6.9114   -1.4961    1.4065 C.ar      1 <0>         0.1033
     16 N3         -7.5183   -0.5602    0.7032 N.ar      1 <0>        -0.4817
     17 C13        -6.8738    0.1994   -0.1608 C.ar      1 <0>         0.1026
     18 C14        -5.5174    0.0491   -0.3651 C.ar      1 <0>        -0.1450
     19 C15        -3.2264   -3.7370    0.1757 C.ar      1 <0>        -0.0577
     20 C16        -4.3801   -4.0631   -0.5778 C.ar      1 <0>        -0.0484
     21 C17        -4.9145   -5.3121   -0.4883 C.ar      1 <0>        -0.1476
     22 C18        -4.3299   -6.2689    0.3415 C.ar      1 <0>         0.1180
     23 C19        -3.1933   -5.9591    1.0885 C.ar      1 <0>        -0.1492
     24 C20        -2.6385   -4.7181    1.0107 C.ar      1 <0>        -0.0720
     25 F1         -4.8690   -7.5050    0.4228 F         1 <0>        -0.1309
     26 N4          3.6104    2.1630   -0.7685 N.pl3     1 <0>        -0.0218
     27 O1          3.5920    3.4798   -0.7733 O.2       1 <0>        -0.1633
     28 O2          4.7501    1.5197   -0.9157 O.3       1 <0>        -0.1679
     29 H2         -0.9572    1.9262   -0.1582 H         1 <0>         0.1642
     30 H3          1.1423    3.1673   -0.4478 H         1 <0>         0.1637
     31 H4          3.3113   -0.5036   -0.7149 H         1 <0>         0.1616
     32 H5          1.2289   -1.7750   -0.4335 H         1 <0>         0.1431
     33 H6         -5.0677   -2.4931    1.8452 H         1 <0>         0.1347
     34 H7         -7.4823   -2.0931    2.1023 H         1 <0>         0.1588
     35 H8         -7.4148    0.9532   -0.7137 H         1 <0>         0.1600
     36 H9         -4.9956    0.6778   -1.0713 H         1 <0>         0.1397
     37 H10        -4.8346   -3.3237   -1.2207 H         1 <0>         0.1379
     38 H11        -5.7946   -5.5630   -1.0618 H         1 <0>         0.1444
     39 H12        -2.7491   -6.7077    1.7277 H         1 <0>         0.1430
     40 H13        -1.7561   -4.4817    1.5867 H         1 <0>         0.1335
@<TRIPOS>BOND
     1    1    6 ar
     2    1    2 ar
     3    1   29 1
     4    2    3 ar
     5    2   30 1
     6    3    4 ar
     7    3   26 1
     8    4    5 ar
     9    4   31 1
    10    5    6 ar
    11    5   32 1
    12    6    7 1
    13    7   12 2
    14    7    8 1
    15    8    9 1
    16    8   10 1
    17   10   11 2
    18   10   19 1
    19   11   12 1
    20   11   13 1
    21   13   18 ar
    22   13   14 ar
    23   14   15 ar
    24   14   33 1
    25   15   16 ar
    26   15   34 1
    27   16   17 ar
    28   17   18 ar
    29   17   35 1
    30   18   36 1
    31   19   24 ar
    32   19   20 ar
    33   20   21 ar
    34   20   37 1
    35   21   22 ar
    36   21   38 1
    37   22   23 ar
    38   22   25 1
    39   23   24 ar
    40   23   39 1
    41   24   40 1
    42   26   27 2
    43   26   28 1
@<TRIPOS>MOLECULE
ZINC00538316
   39    41     0     0     0
SMALL
USER_CHARGES
1,1,1-trifluoro-N-[3-(2-quinolylmethoxy)phenyl]methanesulfonamide
@<TRIPOS>ATOM
      1 C1          1.1590    3.1683    0.0071 C.ar      1 <0>        -0.1140
      2 C2          1.1549    1.7747    0.0006 C.ar      1 <0>        -0.0984
      3 C3         -0.0126    1.0758    0.0080 C.ar      1 <0>        -0.0931
      4 C4         -1.2381    1.7649    0.0175 C.ar      1 <0>         0.1326
      5 C5         -1.2315    3.1820    0.0295 C.ar      1 <0>        -0.1027
      6 C6         -0.0074    3.8703    0.0211 C.ar      1 <0>        -0.0963
      7 C7         -2.4591    3.8699    0.0436 C.ar      1 <0>        -0.0542
      8 C8         -3.6102    3.1342    0.0506 C.ar      1 <0>        -0.1557
      9 C9         -3.5459    1.7428    0.0439 C.ar      1 <0>         0.1571
     10 N1         -2.4004    1.1052    0.0304 N.ar      1 <0>        -0.4692
     11 C10        -4.8271    0.9493    0.0519 C.3       1 <0>         0.1110
     12 O1         -5.9413    1.8439    0.0658 O.3       1 <0>        -0.3089
     13 C11        -7.1804    1.2858    0.0744 C.ar      1 <0>         0.1490
     14 C12        -7.3201   -0.0953    0.0696 C.ar      1 <0>        -0.2010
     15 C13        -8.5792   -0.6643    0.0793 C.ar      1 <0>        -0.0532
     16 C14        -9.7032    0.1390    0.0938 C.ar      1 <0>        -0.1750
     17 C15        -9.5695    1.5219    0.0988 C.ar      1 <0>         0.1533
     18 C16        -8.3051    2.0952    0.0939 C.ar      1 <0>        -0.1490
     19 N2        -10.7056    2.3342    0.1139 N.pl3     1 <0>        -1.0199
     20 S1        -11.9586    1.9862    1.1392 S.o2      1 <0>         2.6059
     21 O2        -12.9334    2.9852    0.8725 O.2       1 <0>        -0.8746
     22 O3        -12.2458    0.6139    0.9081 O.2       1 <0>        -0.8646
     23 C17       -11.2744    2.2096    2.8043 C.3       1 <0>        -0.0381
     24 F1        -10.8341    3.5290    2.9543 F         1 <0>        -0.1582
     25 F2        -12.2635    1.9371    3.7553 F         1 <0>        -0.1587
     26 F3        -10.1979    1.3351    2.9873 F         1 <0>        -0.1548
     27 H1          2.0999    3.6985    0.0006 H         1 <0>         0.1299
     28 H2          2.0936    1.2408   -0.0109 H         1 <0>         0.1324
     29 H3          0.0021   -0.0041    0.0020 H         1 <0>         0.1372
     30 H4          0.0086    4.9501    0.0260 H         1 <0>         0.1321
     31 H5         -2.4904    4.9494    0.0483 H         1 <0>         0.1428
     32 H6         -4.5691    3.6309    0.0618 H         1 <0>         0.1476
     33 H7         -4.8734    0.3251   -0.8405 H         1 <0>         0.0927
     34 H8         -4.8574    0.3172    0.9394 H         1 <0>         0.0923
     35 H9         -6.4434   -0.7259    0.0586 H         1 <0>         0.1376
     36 H10        -8.6850   -1.7391    0.0758 H         1 <0>         0.1404
     37 H11       -10.6862   -0.3082    0.1018 H         1 <0>         0.1615
     38 H12        -8.1982    3.1698    0.1018 H         1 <0>         0.1428
     39 H13       -10.7606    3.1022   -0.4760 H         1 <0>         0.4413
@<TRIPOS>BOND
     1    1    6 ar
     2    1    2 ar
     3    1   27 1
     4    2    3 ar
     5    2   28 1
     6    3    4 ar
     7    3   29 1
     8    4   10 ar
     9    4    5 ar
    10    5    6 ar
    11    5    7 ar
    12    6   30 1
    13    7    8 ar
    14    7   31 1
    15    8    9 ar
    16    8   32 1
    17    9   10 ar
    18    9   11 1
    19   11   12 1
    20   11   33 1
    21   11   34 1
    22   12   13 1
    23   13   18 ar
    24   13   14 ar
    25   14   15 ar
    26   14   35 1
    27   15   16 ar
    28   15   36 1
    29   16   17 ar
    30   16   37 1
    31   17   18 ar
    32   17   19 1
    33   18   38 1
    34   19   20 1
    35   19   39 1
    36   20   21 2
    37   20   22 2
    38   20   23 1
    39   23   24 1
    40   23   25 1
    41   23   26 1
@<TRIPOS>MOLECULE
ZINC01614326
   27    27     0     0     0
SMALL
USER_CHARGES
ethyl (E)-3-(3,4-dihydroxyphenyl)prop-2-enoate
@<TRIPOS>ATOM
      1 C1          0.0840   -8.9977   -3.7425 C.3       1 <0>        -0.1530
      2 C2          0.0900   -8.4243   -2.3241 C.3       1 <0>         0.0607
      3 O1          0.0709   -6.9968   -2.3872 O.3       1 <0>        -0.3512
      4 C3          0.0734   -6.3316   -1.2133 C.2       1 <0>         0.5012
      5 O2          0.0913   -6.9482   -0.1648 O.2       1 <0>        -0.5141
      6 C4          0.0552   -4.9140   -1.2018 C.2       1 <0>        -0.2067
      7 C5          0.0577   -4.2479   -0.0264 C.2       1 <0>         0.0116
      8 C6          0.0388   -2.7785   -0.0145 C.ar      1 <0>        -0.0802
      9 C7          0.0177   -2.0670   -1.2197 C.ar      1 <0>        -0.0852
     10 C8         -0.0058   -0.6899   -1.2055 C.ar      1 <0>        -0.1340
     11 C9          0.0021   -0.0041    0.0020 C.ar      1 <0>         0.1017
     12 C10         0.0230   -0.7057    1.2070 C.ar      1 <0>         0.0783
     13 C11         0.0413   -2.0863    1.2023 C.ar      1 <0>        -0.0997
     14 O3          0.0259   -0.0298    2.3871 O.3       1 <0>        -0.4904
     15 O4         -0.0163    1.3539    0.0095 O.3       1 <0>        -0.4914
     16 H1          0.9644   -8.6460   -4.2803 H         1 <0>         0.0670
     17 H2          0.0985  -10.0865   -3.6943 H         1 <0>         0.0805
     18 H3         -0.8153   -8.6691   -4.2635 H         1 <0>         0.0670
     19 H4          0.9893   -8.7529   -1.8031 H         1 <0>         0.0683
     20 H5         -0.7905   -8.7760   -1.7863 H         1 <0>         0.0682
     21 H6          0.0393   -4.3666   -2.1326 H         1 <0>         0.1431
     22 H7          0.0736   -4.7954    0.9044 H         1 <0>         0.1426
     23 H8          0.0156   -2.5977   -2.1603 H         1 <0>         0.1395
     24 H9         -0.0266   -0.1420   -2.1360 H         1 <0>         0.1406
     25 H10         0.0579   -2.6308    2.1349 H         1 <0>         0.1419
     26 H11        -0.8565    0.1542    2.7371 H         1 <0>         0.3959
     27 H12         0.8616    1.7592    0.0033 H         1 <0>         0.3979
@<TRIPOS>BOND
     1    1    2 1
     2    1   16 1
     3    1   17 1
     4    1   18 1
     5    2    3 1
     6    2   19 1
     7    2   20 1
     8    3    4 1
     9    4    5 2
    10    4    6 1
    11    6    7 2
    12    6   21 1
    13    7    8 1
    14    7   22 1
    15    8   13 ar
    16    8    9 ar
    17    9   10 ar
    18    9   23 1
    19   10   11 ar
    20   10   24 1
    21   11   12 ar
    22   11   15 1
    23   12   13 ar
    24   12   14 1
    25   13   25 1
    26   14   26 1
    27   15   27 1
@<TRIPOS>MOLECULE
ZINC00598626
   42    45     0     0     0
SMALL
USER_CHARGES

@<TRIPOS>ATOM
      1 C1         -0.0417    1.7893   -0.5853 C.3       1 <0>        -0.1469
      2 S1         -0.0337   -0.0217   -0.6900 S.3       1 <0>        -0.1088
      3 C2         -1.7286   -0.4668   -0.5054 C.ar      1 <0>        -0.0711
      4 C3         -2.6920    0.5230   -0.3352 C.ar      1 <0>        -0.1322
      5 C4         -4.0173    0.1780   -0.1907 C.ar      1 <0>        -0.0512
      6 C5         -4.3944   -1.1669   -0.2156 C.ar      1 <0>        -0.0283
      7 C6         -3.4251   -2.1583   -0.3871 C.ar      1 <0>        -0.0875
      8 C7         -2.1019   -1.8072   -0.5359 C.ar      1 <0>        -0.0959
      9 C8         -5.8150   -1.5401   -0.0604 C.2       1 <0>         0.2718
     10 N1         -6.3029   -2.8144   -0.0623 N.pl3     1 <0>        -0.5512
     11 H1         -5.7861   -3.6289   -0.1646 H         1 <0>         0.4246
     12 C9         -7.6676   -2.7271    0.1082 C.2       1 <0>         0.0281
     13 C10        -7.9630   -1.3777    0.2093 C.2       1 <0>         0.0812
     14 N2         -6.8103   -0.6977    0.1074 N.2       1 <0>        -0.4568
     15 C11        -9.3096   -0.7903    0.4019 C.ar      1 <0>        -0.0195
     16 C12       -10.1978   -1.3607    1.3132 C.ar      1 <0>        -0.0698
     17 C13       -11.4504   -0.8102    1.4890 C.ar      1 <0>        -0.1512
     18 C14       -11.8268    0.3073    0.7613 C.ar      1 <0>         0.1049
     19 C15       -10.9480    0.8774   -0.1457 C.ar      1 <0>        -0.1528
     20 C16        -9.6908    0.3381   -0.3236 C.ar      1 <0>        -0.0605
     21 F1        -13.0548    0.8426    0.9365 F         1 <0>        -0.1375
     22 C17        -8.6238   -3.8479    0.1700 C.ar      1 <0>         0.0251
     23 C18        -9.8070   -3.8283   -0.5817 C.ar      1 <0>        -0.1433
     24 C19       -10.6718   -4.8977   -0.4936 C.ar      1 <0>         0.1077
     25 N3        -10.3986   -5.9287    0.2843 N.ar      1 <0>        -0.4795
     26 C20        -9.2966   -5.9881    1.0087 C.ar      1 <0>         0.1065
     27 C21        -8.3727   -4.9660    0.9777 C.ar      1 <0>        -0.1658
     28 H2          0.9765    2.1638   -0.6901 H         1 <0>         0.1122
     29 H3         -0.6626    2.1966   -1.3833 H         1 <0>         0.0868
     30 H4         -0.4440    2.0956    0.3803 H         1 <0>         0.0868
     31 H5         -2.3999    1.5625   -0.3161 H         1 <0>         0.1318
     32 H6         -4.7645    0.9465   -0.0579 H         1 <0>         0.1427
     33 H7         -3.7137   -3.1989   -0.4063 H         1 <0>         0.1241
     34 H8         -1.3526   -2.5729   -0.6723 H         1 <0>         0.1354
     35 H9         -9.9056   -2.2322    1.8803 H         1 <0>         0.1288
     36 H10       -12.1390   -1.2512    2.1945 H         1 <0>         0.1384
     37 H11       -11.2460    1.7481   -0.7108 H         1 <0>         0.1395
     38 H12        -9.0046    0.7862   -1.0270 H         1 <0>         0.1374
     39 H13       -10.0374   -2.9879   -1.2198 H         1 <0>         0.1395
     40 H14       -11.5859   -4.8922   -1.0687 H         1 <0>         0.1619
     41 H15        -9.1147   -6.8516    1.6314 H         1 <0>         0.1604
     42 H16        -7.4713   -5.0234    1.5698 H         1 <0>         0.1341
@<TRIPOS>BOND
     1    1    2 1
     2    1   28 1
     3    1   29 1
     4    1   30 1
     5    2    3 1
     6    3    8 ar
     7    3    4 ar
     8    4    5 ar
     9    4   31 1
    10    5    6 ar
    11    5   32 1
    12    6    7 ar
    13    6    9 1
    14    7    8 ar
    15    7   33 1
    16    8   34 1
    17    9   14 2
    18    9   10 1
    19   10   11 1
    20   10   12 1
    21   12   13 2
    22   12   22 1
    23   13   14 1
    24   13   15 1
    25   15   20 ar
    26   15   16 ar
    27   16   17 ar
    28   16   35 1
    29   17   18 ar
    30   17   36 1
    31   18   19 ar
    32   18   21 1
    33   19   20 ar
    34   19   37 1
    35   20   38 1
    36   22   27 ar
    37   22   23 ar
    38   23   24 ar
    39   23   39 1
    40   24   25 ar
    41   24   40 1
    42   25   26 ar
    43   26   27 ar
    44   26   41 1
    45   27   42 1
@<TRIPOS>MOLECULE
ZINC28099433
   24    25     0     0     0
SMALL
USER_CHARGES
3-hydroxynaphthalene-2-carbohydroxamic acid
@<TRIPOS>ATOM
      1 C1         -3.8000    6.0325    0.0538 C.ar      1 <0>        -0.1332
      2 C2         -4.9894    5.3056    0.0555 C.ar      1 <0>        -0.0899
      3 C3         -4.9795    3.9447    0.0476 C.ar      1 <0>        -0.1242
      4 C4         -3.7537    3.2566    0.0376 C.ar      1 <0>         0.0175
      5 C5         -3.7126    1.8522    0.0297 C.ar      1 <0>        -0.1810
      6 C6         -2.5121    1.2055    0.0205 C.ar      1 <0>         0.2275
      7 C7         -1.3024    1.9321    0.0187 C.ar      1 <0>        -0.2117
      8 C8         -1.3161    3.3172    0.0320 C.ar      1 <0>        -0.0189
      9 C9         -2.5430    3.9963    0.0359 C.ar      1 <0>        -0.1033
     10 C10        -2.5942    5.4023    0.0442 C.ar      1 <0>        -0.0853
     11 C11        -0.0144    1.2116    0.0087 C.2       1 <0>         0.5893
     12 O1          0.0021   -0.0041    0.0020 O.2       1 <0>        -0.5286
     13 N1          1.1435    1.9013    0.0014 N.am      1 <0>        -0.5859
     14 O2          2.3792    1.2101   -0.0142 O.3       1 <0>        -0.3417
     15 O3         -2.4804   -0.1514    0.0134 O.3       1 <0>        -0.5199
     16 H1         -3.8361    7.1119    0.0599 H         1 <0>         0.1261
     17 H2         -5.9333    5.8304    0.0629 H         1 <0>         0.1269
     18 H3         -5.9096    3.3956    0.0487 H         1 <0>         0.1319
     19 H4         -4.6316    1.2850    0.0306 H         1 <0>         0.1416
     20 H5         -0.3884    3.8702    0.0354 H         1 <0>         0.1327
     21 H6         -1.6807    5.9785    0.0427 H         1 <0>         0.1291
     22 H7          1.1286    3.0012    0.0076 H         1 <0>         0.4304
     23 H8          3.3242    1.7730   -0.0202 H         1 <0>         0.4257
     24 H9         -1.5152   -0.6790    0.0060 H         1 <0>         0.4449
@<TRIPOS>BOND
     1    1   10 ar
     2    1    2 ar
     3    1   16 1
     4    2    3 ar
     5    2   17 1
     6    3    4 ar
     7    3   18 1
     8    4    9 ar
     9    4    5 ar
    10    5    6 ar
    11    5   19 1
    12    6    7 ar
    13    6   15 1
    14    7    8 ar
    15    7   11 1
    16    8    9 ar
    17    8   20 1
    18    9   10 ar
    19   10   21 1
    20   11   12 2
    21   11   13 am
    22   13   14 1
    23   13   22 1
    24   14   23 1
    25   15   24 1
@<TRIPOS>MOLECULE
ZINC19436641
   24    25     0     0     0
SMALL
USER_CHARGES
1-hydroxynaphthalene-2-carbohydroxamic acid
@<TRIPOS>ATOM
      1 C1         -0.0126    1.0758    0.0080 C.ar      1 <0>        -0.0856
      2 C2         -1.2339    1.7454    0.0174 C.ar      1 <0>        -0.1360
      3 C3         -1.2857    3.1063    0.0301 C.ar      1 <0>        -0.0664
      4 C4         -0.0930    3.8476    0.0226 C.ar      1 <0>        -0.0998
      5 C5          1.1495    3.1672    0.0076 C.ar      1 <0>         0.0081
      6 C6          1.1634    1.7628    0.0004 C.ar      1 <0>        -0.1271
      7 C7          2.3495    3.9041   -0.0004 C.ar      1 <0>        -0.1600
      8 C8          2.3180    5.2598    0.0067 C.ar      1 <0>        -0.0465
      9 C9          1.0943    5.9546    0.0212 C.ar      1 <0>        -0.2759
     10 C10        -0.1116    5.2572    0.0294 C.ar      1 <0>         0.2831
     11 O1         -1.2892    5.9262    0.0434 O.3       1 <0>        -0.5069
     12 C11         1.0885    7.4278    0.0281 C.2       1 <0>         0.5960
     13 O2          0.0330    8.0317    0.0410 O.2       1 <0>        -0.5418
     14 N1          2.2530    8.1063    0.0202 N.am      1 <0>        -0.5870
     15 O3          2.2474    9.5223    0.0269 O.3       1 <0>        -0.3448
     16 H1          0.0021   -0.0041    0.0020 H         1 <0>         0.1280
     17 H2         -2.1525    1.1775    0.0187 H         1 <0>         0.1284
     18 H3         -2.2394    3.6130    0.0420 H         1 <0>         0.1361
     19 H4          2.1026    1.2298   -0.0107 H         1 <0>         0.1334
     20 H5          3.2981    3.3879   -0.0115 H         1 <0>         0.1342
     21 H6          3.2449    5.8141    0.0012 H         1 <0>         0.1229
     22 H7         -1.2968    7.0262    0.0486 H         1 <0>         0.4528
     23 H8          3.2078    7.5601    0.0085 H         1 <0>         0.4309
     24 H9          3.1978   10.0761    0.0205 H         1 <0>         0.4238
@<TRIPOS>BOND
     1    1    6 ar
     2    1    2 ar
     3    1   16 1
     4    2    3 ar
     5    2   17 1
     6    3    4 ar
     7    3   18 1
     8    4   10 ar
     9    4    5 ar
    10    5    6 ar
    11    5    7 ar
    12    6   19 1
    13    7    8 ar
    14    7   20 1
    15    8    9 ar
    16    8   21 1
    17    9   10 ar
    18    9   12 1
    19   10   11 1
    20   11   22 1
    21   12   13 2
    22   12   14 am
    23   14   15 1
    24   14   23 1
    25   15   24 1
@<TRIPOS>MOLECULE
ZINC19436641
   23    24     0     0     0
SMALL
USER_CHARGES
1-hydroxynaphthalene-2-carbohydroxamic acid
@<TRIPOS>ATOM
      1 C1         -0.0126    1.0758    0.0080 C.ar      1 <0>        -0.1012
      2 C2         -1.2339    1.7454    0.0174 C.ar      1 <0>        -0.1868
      3 C3         -1.2857    3.1063    0.0301 C.ar      1 <0>        -0.0441
      4 C4         -0.0930    3.8476    0.0226 C.ar      1 <0>        -0.1461
      5 C5          1.1495    3.1672    0.0076 C.ar      1 <0>         0.0237
      6 C6          1.1634    1.7628    0.0004 C.ar      1 <0>        -0.1557
      7 C7          2.3495    3.9041   -0.0004 C.ar      1 <0>        -0.2748
      8 C8          2.3180    5.2598    0.0067 C.ar      1 <0>        -0.0010
      9 C9          1.0943    5.9546    0.0212 C.ar      1 <0>        -0.3477
     10 C10        -0.1116    5.2572    0.0294 C.ar      1 <0>         0.3381
     11 O1         -1.2892    5.9262    0.0434 O.3       1 <0>        -0.6355
     12 C11         1.0885    7.4278    0.0281 C.2       1 <0>         0.5815
     13 O2          0.0330    8.0317    0.0410 O.2       1 <0>        -0.5199
     14 N1          2.2530    8.1063    0.0202 N.am      1 <0>        -0.6176
     15 O3          2.2474    9.5223    0.0269 O.3       1 <0>        -0.3616
     16 H1          0.0021   -0.0041    0.0020 H         1 <0>         0.1068
     17 H2         -2.1525    1.1775    0.0187 H         1 <0>         0.1079
     18 H3         -2.2394    3.6130    0.0420 H         1 <0>         0.1229
     19 H4          2.1026    1.2298   -0.0107 H         1 <0>         0.1119
     20 H5          3.2981    3.3879   -0.0115 H         1 <0>         0.1031
     21 H6          3.2449    5.8141    0.0012 H         1 <0>         0.0933
     22 H7          3.2078    7.5601    0.0085 H         1 <0>         0.4073
     23 H8          3.1978   10.0761    0.0205 H         1 <0>         0.3955
@<TRIPOS>BOND
     1    1    6 ar
     2    1    2 ar
     3    1   16 1
     4    2    3 ar
     5    2   17 1
     6    3    4 ar
     7    3   18 1
     8    4   10 ar
     9    4    5 ar
    10    5    6 ar
    11    5    7 ar
    12    6   19 1
    13    7    8 ar
    14    7   20 1
    15    8    9 ar
    16    8   21 1
    17    9   10 ar
    18    9   12 1
    19   10   11 1
    20   12   13 2
    21   12   14 am
    22   14   15 1
    23   14   22 1
    24   15   23 1
@<TRIPOS>MOLECULE
ZINC28106903
   33    34     0     0     0
SMALL
USER_CHARGES
(2R)-2-(6-methoxy-2-naphthyl)propanehydroxamic acid
@<TRIPOS>ATOM
      1 C1         -0.5890   -4.8119    1.2287 C.3       1 <0>        -0.1461
      2 C2          0.1125   -4.2835   -0.0241 C.3       1 <0>        -0.0540
      3 H1          1.1573   -4.6266   -0.0497 H         1 <0>         0.1105
      4 C3          0.0895   -2.7767   -0.0149 C.ar      1 <0>        -0.0777
      5 C4         -1.1339   -2.1091    0.0006 C.ar      1 <0>        -0.0704
      6 C5         -1.1898   -0.7494    0.0088 C.ar      1 <0>        -0.1163
      7 C6          0.0021   -0.0041    0.0020 C.ar      1 <0>        -0.0071
      8 C7         -0.0170    1.4003    0.0097 C.ar      1 <0>        -0.1551
      9 C8          1.1609    2.0915    0.0022 C.ar      1 <0>         0.1299
     10 C9          2.3872    1.4192   -0.0131 C.ar      1 <0>        -0.1919
     11 C10         2.4393    0.0604   -0.0208 C.ar      1 <0>        -0.0629
     12 C11         1.2461   -0.6832   -0.0134 C.ar      1 <0>        -0.0839
     13 C12         1.2635   -2.0883   -0.0215 C.ar      1 <0>        -0.0830
     14 O1          1.1412    3.4502    0.0092 O.3       1 <0>        -0.3175
     15 C13         2.4048    4.1174    0.0008 C.3       1 <0>         0.0227
     16 C14        -0.6017   -4.7894   -1.2509 C.2       1 <0>         0.5254
     17 O2         -1.0822   -4.0037   -2.0400 O.2       1 <0>        -0.5139
     18 N1         -0.7065   -6.1149   -1.4710 N.am      1 <0>        -0.6004
     19 O3         -1.3776   -6.5902   -2.6237 O.3       1 <0>        -0.3511
     20 H2         -0.5722   -5.9118    1.2220 H         1 <0>         0.0651
     21 H3         -1.6315   -4.4612    1.2406 H         1 <0>         0.0679
     22 H4         -0.0676   -4.4427    2.1241 H         1 <0>         0.0771
     23 H5         -2.0511   -2.6793    0.0059 H         1 <0>         0.1208
     24 H6         -2.1450   -0.2455    0.0202 H         1 <0>         0.1293
     25 H7         -0.9578    1.9307    0.0171 H         1 <0>         0.1349
     26 H8          3.3057    1.9872   -0.0185 H         1 <0>         0.1308
     27 H9          3.3934   -0.4455   -0.0330 H         1 <0>         0.1317
     28 H10         2.2039   -2.6193   -0.0328 H         1 <0>         0.1273
     29 H11         2.2448    5.2057    0.0077 H         1 <0>         0.1027
     30 H12         2.9628    3.8346   -0.9040 H         1 <0>         0.0568
     31 H13         2.9795    3.8255    0.8922 H         1 <0>         0.0568
     32 H14        -0.2707   -6.8275   -0.7552 H         1 <0>         0.4238
     33 H15        -1.4632   -7.6720   -2.8034 H         1 <0>         0.4178
@<TRIPOS>BOND
     1    1    2 1
     2    1   20 1
     3    1   21 1
     4    1   22 1
     5    2    3 1
     6    2    4 1
     7    2   16 1
     8    4   13 ar
     9    4    5 ar
    10    5    6 ar
    11    5   23 1
    12    6    7 ar
    13    6   24 1
    14    7   12 ar
    15    7    8 ar
    16    8    9 ar
    17    8   25 1
    18    9   10 ar
    19    9   14 1
    20   10   11 ar
    21   10   26 1
    22   11   12 ar
    23   11   27 1
    24   12   13 ar
    25   13   28 1
    26   14   15 1
    27   15   29 1
    28   15   30 1
    29   15   31 1
    30   16   17 2
    31   16   18 am
    32   18   19 1
    33   18   32 1
    34   19   33 1
@<TRIPOS>MOLECULE
ZINC28106909
   33    34     0     0     0
SMALL
USER_CHARGES
(2S)-2-(6-methoxy-2-naphthyl)propanehydroxamic acid
@<TRIPOS>ATOM
      1 C1         -0.6126   -4.7971   -1.2696 C.3       1 <0>        -0.1461
      2 C2          0.1125   -4.2835   -0.0241 C.3       1 <0>        -0.0540
      3 H1          1.1576   -4.6268   -0.0224 H         1 <0>         0.1105
      4 C3          0.0895   -2.7767   -0.0149 C.ar      1 <0>        -0.0777
      5 C4         -1.1339   -2.1091    0.0006 C.ar      1 <0>        -0.0704
      6 C5         -1.1898   -0.7494    0.0088 C.ar      1 <0>        -0.1163
      7 C6          0.0021   -0.0041    0.0020 C.ar      1 <0>        -0.0071
      8 C7         -0.0170    1.4003    0.0097 C.ar      1 <0>        -0.1551
      9 C8          1.1609    2.0915    0.0022 C.ar      1 <0>         0.1299
     10 C9          2.3872    1.4192   -0.0131 C.ar      1 <0>        -0.1919
     11 C10         2.4393    0.0604   -0.0208 C.ar      1 <0>        -0.0630
     12 C11         1.2461   -0.6832   -0.0134 C.ar      1 <0>        -0.0839
     13 C12         1.2635   -2.0883   -0.0224 C.ar      1 <0>        -0.0830
     14 O1          1.1412    3.4502    0.0092 O.3       1 <0>        -0.3175
     15 C13         2.4048    4.1174    0.0008 C.3       1 <0>         0.0227
     16 C14        -0.5784   -4.8040    1.2099 C.2       1 <0>         0.5254
     17 O2         -1.0438   -4.0278    2.0173 O.2       1 <0>        -0.5139
     18 N1         -0.6792   -6.1321    1.4163 N.am      1 <0>        -0.6004
     19 O3         -1.3284   -6.6211    2.5757 O.3       1 <0>        -0.3511
     20 H2         -0.5958   -5.8970   -1.2762 H         1 <0>         0.0651
     21 H3         -0.1082   -4.4172   -2.1703 H         1 <0>         0.0771
     22 H4         -1.6551   -4.4464   -1.2577 H         1 <0>         0.0679
     23 H5         -2.0511   -2.6793    0.0059 H         1 <0>         0.1208
     24 H6         -2.1450   -0.2455    0.0202 H         1 <0>         0.1293
     25 H7         -0.9578    1.9307    0.0171 H         1 <0>         0.1349
     26 H8          3.3057    1.9872   -0.0185 H         1 <0>         0.1308
     27 H9          3.3934   -0.4455   -0.0330 H         1 <0>         0.1317
     28 H10         2.2039   -2.6193   -0.0351 H         1 <0>         0.1273
     29 H11         2.2448    5.2057    0.0077 H         1 <0>         0.1027
     30 H12         2.9628    3.8346   -0.9040 H         1 <0>         0.0568
     31 H13         2.9795    3.8255    0.8922 H         1 <0>         0.0568
     32 H14        -0.2571   -6.8361    0.6840 H         1 <0>         0.4238
     33 H15        -1.4107   -7.7050    2.7442 H         1 <0>         0.4178
@<TRIPOS>BOND
     1    1    2 1
     2    1   20 1
     3    1   21 1
     4    1   22 1
     5    2    3 1
     6    2    4 1
     7    2   16 1
     8    4   13 ar
     9    4    5 ar
    10    5    6 ar
    11    5   23 1
    12    6    7 ar
    13    6   24 1
    14    7   12 ar
    15    7    8 ar
    16    8    9 ar
    17    8   25 1
    18    9   10 ar
    19    9   14 1
    20   10   11 ar
    21   10   26 1
    22   11   12 ar
    23   11   27 1
    24   12   13 ar
    25   13   28 1
    26   14   15 1
    27   15   29 1
    28   15   30 1
    29   15   31 1
    30   16   17 2
    31   16   18 am
    32   18   19 1
    33   18   32 1
    34   19   33 1
@<TRIPOS>MOLECULE
ZINC05844485
   45    47     0     0     0
SMALL
USER_CHARGES
7-chloro-2-[(4-methoxyphenyl)methyl]-3-methyl-5-propyl-benzofuran-4-ol
@<TRIPOS>ATOM
      1 C1          7.5787   -1.1600    1.3577 C.3       1 <0>        -0.1526
      2 C2          6.0622   -0.9575    1.3743 C.3       1 <0>        -0.1184
      3 C3          5.5254   -1.0068   -0.0576 C.3       1 <0>        -0.0687
      4 C4          4.0317   -0.8074   -0.0412 C.ar      1 <0>        -0.1146
      5 C5          3.1873   -1.9079   -0.0386 C.ar      1 <0>        -0.0677
      6 C6          1.8179   -1.7453   -0.0246 C.ar      1 <0>        -0.0311
      7 C7          1.2684   -0.4675   -0.0125 C.ar      1 <0>         0.0735
      8 C8          2.1203    0.6478   -0.0147 C.ar      1 <0>        -0.1345
      9 C9          3.5076    0.4715   -0.0294 C.ar      1 <0>         0.1630
     10 O1          4.3345    1.5500   -0.0315 O.3       1 <0>        -0.4826
     11 C10         1.2355    1.8186    0.0000 C.2       1 <0>        -0.1588
     12 C11        -0.0162    1.3407    0.0094 C.2       1 <0>         0.0417
     13 O2          0.0021   -0.0041    0.0020 O.3       1 <0>        -0.1763
     14 C12        -1.2631    2.1869    0.0202 C.3       1 <0>         0.0003
     15 C13        -1.6861    2.4762   -1.3970 C.ar      1 <0>        -0.1275
     16 C14        -1.2115    3.6030   -2.0426 C.ar      1 <0>        -0.0686
     17 C15        -1.5933    3.8674   -3.3436 C.ar      1 <0>        -0.2075
     18 C16        -2.4626    3.0072   -3.9986 C.ar      1 <0>         0.1312
     19 C17        -2.9419    1.8803   -3.3467 C.ar      1 <0>        -0.1498
     20 C18        -2.5526    1.6173   -2.0476 C.ar      1 <0>        -0.0654
     21 O3         -2.8437    3.2678   -5.2768 O.3       1 <0>        -0.3169
     22 C19        -2.3108    4.4459   -5.8852 C.3       1 <0>         0.0262
     23 C20         1.6511    3.2671    0.0034 C.3       1 <0>        -0.0815
     24 Cl1         0.7793   -3.1363   -0.0227 Cl        1 <0>        -0.0528
     25 H1          7.9611   -1.1248    2.3778 H         1 <0>         0.0558
     26 H2          7.8110   -2.1289    0.9157 H         1 <0>         0.0542
     27 H3          8.0442   -0.3705    0.7678 H         1 <0>         0.0548
     28 H4          5.8298    0.0114    1.8163 H         1 <0>         0.0675
     29 H5          5.5967   -1.7470    1.9643 H         1 <0>         0.0619
     30 H6          5.7578   -1.9757   -0.4995 H         1 <0>         0.0750
     31 H7          5.9909   -0.2173   -0.6475 H         1 <0>         0.0758
     32 H8          3.6069   -2.9030   -0.0479 H         1 <0>         0.1498
     33 H9          4.5653    1.8669   -0.9155 H         1 <0>         0.3910
     34 H10        -2.0608    1.6519    0.5354 H         1 <0>         0.0973
     35 H11        -1.0613    3.1247    0.5377 H         1 <0>         0.1081
     36 H12        -0.5382    4.2747   -1.5307 H         1 <0>         0.1276
     37 H13        -1.2188    4.7454   -3.8489 H         1 <0>         0.1301
     38 H14        -3.6184    1.2089   -3.8546 H         1 <0>         0.1330
     39 H15        -2.9251    0.7399   -1.5398 H         1 <0>         0.1317
     40 H16        -2.6089    5.3203   -5.3066 H         1 <0>         0.0568
     41 H17        -1.2231    4.3812   -5.9113 H         1 <0>         0.0560
     42 H18        -2.6941    4.5350   -6.9017 H         1 <0>         0.1018
     43 H19         1.7615    3.6111    1.0318 H         1 <0>         0.0724
     44 H20         2.6017    3.3736   -0.5193 H         1 <0>         0.0709
     45 H21         0.8909    3.8645   -0.4999 H         1 <0>         0.0682
@<TRIPOS>BOND
     1    1    2 1
     2    1   25 1
     3    1   26 1
     4    1   27 1
     5    2    3 1
     6    2   28 1
     7    2   29 1
     8    3    4 1
     9    3   30 1
    10    3   31 1
    11    4    9 ar
    12    4    5 ar
    13    5    6 ar
    14    5   32 1
    15    6    7 ar
    16    6   24 1
    17    7   13 1
    18    7    8 ar
    19    8    9 ar
    20    8   11 1
    21    9   10 1
    22   10   33 1
    23   11   12 2
    24   11   23 1
    25   12   13 1
    26   12   14 1
    27   14   15 1
    28   14   34 1
    29   14   35 1
    30   15   20 ar
    31   15   16 ar
    32   16   17 ar
    33   16   36 1
    34   17   18 ar
    35   17   37 1
    36   18   19 ar
    37   18   21 1
    38   19   20 ar
    39   19   38 1
    40   20   39 1
    41   21   22 1
    42   22   40 1
    43   22   41 1
    44   22   42 1
    45   23   43 1
    46   23   44 1
    47   23   45 1
@<TRIPOS>MOLECULE
ZINC00596951
   45    48     0     0     0
SMALL
USER_CHARGES

@<TRIPOS>ATOM
      1 C1         -0.0074    1.3728   -0.1530 C.ar      1 <0>        -0.1207
      2 C2          1.1705    2.0977   -0.3238 C.ar      1 <0>        -0.1036
      3 C3          2.3763    1.4713   -0.3956 C.ar      1 <0>        -0.0922
      4 C4          2.4417    0.0703   -0.2967 C.ar      1 <0>         0.1322
      5 C5          1.2426   -0.6647   -0.1230 C.ar      1 <0>        -0.1058
      6 C6          0.0159    0.0153   -0.0532 C.ar      1 <0>        -0.0944
      7 C7          1.3101   -2.0669   -0.0241 C.ar      1 <0>        -0.0597
      8 C8          2.5383   -2.6601   -0.1006 C.ar      1 <0>        -0.1486
      9 C9          3.6783   -1.8784   -0.2720 C.ar      1 <0>         0.1682
     10 N1          3.6118   -0.5722   -0.3633 N.ar      1 <0>        -0.4736
     11 C10         5.0240   -2.5518   -0.3535 C.3       1 <0>         0.1118
     12 O1          4.8574   -3.9657   -0.2302 O.3       1 <0>        -0.3167
     13 C11         5.9822   -4.7265   -0.2834 C.ar      1 <0>         0.1656
     14 C12         7.2218   -4.1229   -0.4452 C.ar      1 <0>        -0.2742
     15 C13         8.3665   -4.8949   -0.4995 C.ar      1 <0>        -0.0399
     16 C14         8.2815   -6.2697   -0.3930 C.ar      1 <0>        -0.2081
     17 C15         7.0436   -6.8794   -0.2304 C.ar      1 <0>         0.2998
     18 C16         5.8929   -6.1046   -0.1704 C.ar      1 <0>        -0.2220
     19 N2          6.9573   -8.2698   -0.1227 N.pl3     1 <0>        -0.6650
     20 C17         8.1010   -9.0471   -0.2395 C.ar      1 <0>         0.1636
     21 C18         8.3984   -9.6765   -1.4426 C.ar      1 <0>        -0.1375
     22 C19         9.5357  -10.4485   -1.5562 C.ar      1 <0>        -0.1242
     23 C20        10.3909  -10.6036   -0.4756 C.ar      1 <0>        -0.1370
     24 C21        10.1150   -9.9885    0.7247 C.ar      1 <0>        -0.0838
     25 C22         8.9682   -9.1977    0.8561 C.ar      1 <0>        -0.1339
     26 C23         8.6697   -8.5330    2.1332 C.2       1 <0>         0.5179
     27 O2          9.4755   -8.5841    3.0526 O.co2     1 <0>        -0.6926
     28 O3          7.6154   -7.9287    2.2767 O.co2     1 <0>        -0.6654
     29 H1         -0.9509    1.8952   -0.0947 H         1 <0>         0.1263
     30 H2          1.1256    3.1740   -0.4007 H         1 <0>         0.1290
     31 H3          3.2797    2.0481   -0.5285 H         1 <0>         0.1354
     32 H4         -0.9037   -0.5355    0.0790 H         1 <0>         0.1296
     33 H5          0.4157   -2.6576    0.1089 H         1 <0>         0.1413
     34 H6          2.6253   -3.7341   -0.0280 H         1 <0>         0.1514
     35 H7          5.4873   -2.3229   -1.3132 H         1 <0>         0.0876
     36 H8          5.6612   -2.1893    0.4532 H         1 <0>         0.0889
     37 H9          7.2915   -3.0484   -0.5292 H         1 <0>         0.1173
     38 H10         9.3295   -4.4226   -0.6258 H         1 <0>         0.1167
     39 H11         9.1777   -6.8708   -0.4364 H         1 <0>         0.1146
     40 H12         4.9298   -6.5756   -0.0400 H         1 <0>         0.1225
     41 H13         6.0980   -8.6917    0.0338 H         1 <0>         0.4031
     42 H14         7.7380   -9.5612   -2.2893 H         1 <0>         0.1170
     43 H15         9.7616  -10.9358   -2.4931 H         1 <0>         0.1156
     44 H16        11.2784  -11.2109   -0.5761 H         1 <0>         0.1154
     45 H17        10.7847  -10.1133    1.5628 H         1 <0>         0.1277
@<TRIPOS>BOND
     1    1    6 ar
     2    1    2 ar
     3    1   29 1
     4    2    3 ar
     5    2   30 1
     6    3    4 ar
     7    3   31 1
     8    4   10 ar
     9    4    5 ar
    10    5    6 ar
    11    5    7 ar
    12    6   32 1
    13    7    8 ar
    14    7   33 1
    15    8    9 ar
    16    8   34 1
    17    9   10 ar
    18    9   11 1
    19   11   12 1
    20   11   35 1
    21   11   36 1
    22   12   13 1
    23   13   18 ar
    24   13   14 ar
    25   14   15 ar
    26   14   37 1
    27   15   16 ar
    28   15   38 1
    29   16   17 ar
    30   16   39 1
    31   17   18 ar
    32   17   19 1
    33   18   40 1
    34   19   20 1
    35   19   41 1
    36   20   25 ar
    37   20   21 ar
    38   21   22 ar
    39   21   42 1
    40   22   23 ar
    41   22   43 1
    42   23   24 ar
    43   23   44 1
    44   24   25 ar
    45   24   45 1
    46   25   26 1
    47   26   27 2
    48   26   28 1
@<TRIPOS>MOLECULE
ZINC00597557
   49    53     0     0     0
SMALL
USER_CHARGES
2-[1-methoxy-6-(2-naphthylmethoxy)indan-1-yl]thiazole
@<TRIPOS>ATOM
      1 C1          2.9278    3.0805    2.2657 C.3       1 <0>         0.0260
      2 O1          2.9504    4.1111    1.2761 O.3       1 <0>        -0.3642
      3 C2          2.5450    3.6777   -0.0238 C.3       1 <0>         0.2551
      4 C3          3.4079    2.4835   -0.4835 C.3       1 <0>        -0.1346
      5 C4          2.5727    1.2722   -0.0174 C.3       1 <0>        -0.0839
      6 C5          1.1425    1.7671    0.0184 C.ar      1 <0>        -0.1174
      7 C6          1.1267    3.1501    0.0147 C.ar      1 <0>        -0.0769
      8 C7         -0.0802    3.8263    0.0446 C.ar      1 <0>        -0.1091
      9 C8         -1.2733    3.1211    0.0783 C.ar      1 <0>         0.1300
     10 C9         -1.2551    1.7341    0.0753 C.ar      1 <0>        -0.1939
     11 C10        -0.0493    1.0623    0.0516 C.ar      1 <0>        -0.0669
     12 O2         -2.4577    3.7869    0.1081 O.3       1 <0>        -0.3064
     13 C11        -3.6466    2.9947    0.1418 C.3       1 <0>         0.1014
     14 C12        -4.8519    3.8988    0.1715 C.ar      1 <0>        -0.0933
     15 C13        -5.4332    4.3074   -1.0275 C.ar      1 <0>        -0.0964
     16 C14        -6.5226    5.1231   -1.0359 C.ar      1 <0>        -0.1061
     17 C15        -7.0719    5.5622    0.1809 C.ar      1 <0>        -0.0445
     18 C16        -8.1965    6.4045    0.2124 C.ar      1 <0>        -0.1088
     19 C17        -8.7012    6.8094    1.4097 C.ar      1 <0>        -0.1112
     20 C18        -8.1195    6.4012    2.6086 C.ar      1 <0>        -0.1168
     21 C19        -7.0301    5.5856    2.6169 C.ar      1 <0>        -0.1026
     22 C20        -6.4804    5.1472    1.4001 C.ar      1 <0>        -0.0564
     23 C21        -5.3598    4.2996    1.3688 C.ar      1 <0>        -0.0752
     24 C22         2.6543    4.8120   -1.0100 C.2       1 <0>         0.0952
     25 N1          2.4284    4.8051   -2.3034 N.2       1 <0>        -0.4958
     26 C23         2.5664    5.8941   -3.0305 C.2       1 <0>         0.0278
     27 C24         2.9630    7.0361   -2.4132 C.2       1 <0>        -0.2193
     28 S1          3.1186    6.4615   -0.7282 S.3       1 <0>         0.0838
     29 H1          1.9429    2.6138    2.2819 H         1 <0>         0.0527
     30 H2          3.6814    2.3302    2.0262 H         1 <0>         0.0529
     31 H3          3.1419    3.5112    3.2438 H         1 <0>         0.0937
     32 H4          4.3804    2.4960    0.0087 H         1 <0>         0.0941
     33 H5          3.5212    2.4819   -1.5676 H         1 <0>         0.0972
     34 H6          2.8883    0.9552    0.9766 H         1 <0>         0.0868
     35 H7          2.6708    0.4500   -0.7262 H         1 <0>         0.0857
     36 H8         -0.0927    4.9062    0.0413 H         1 <0>         0.1253
     37 H9         -2.1823    1.1808    0.0967 H         1 <0>         0.1331
     38 H10        -0.0354   -0.0176    0.0545 H         1 <0>         0.1288
     39 H11        -3.6878    2.3633   -0.7457 H         1 <0>         0.0735
     40 H12        -3.6404    2.3680    1.0336 H         1 <0>         0.0730
     41 H13        -5.0131    3.9714   -1.9640 H         1 <0>         0.1254
     42 H14        -6.9625    5.4316   -1.9728 H         1 <0>         0.1309
     43 H15        -8.6575    6.7291   -0.7088 H         1 <0>         0.1286
     44 H16        -9.5657    7.4563    1.4310 H         1 <0>         0.1249
     45 H17        -8.5397    6.7370    3.5452 H         1 <0>         0.1250
     46 H18        -6.5898    5.2774    3.5537 H         1 <0>         0.1283
     47 H19        -4.9018    3.9711    2.2901 H         1 <0>         0.1297
     48 H20         2.3732    5.8779   -4.0929 H         1 <0>         0.1718
     49 H21         3.1363    8.0190   -2.8258 H         1 <0>         0.1988
@<TRIPOS>BOND
     1    1    2 1
     2    1   29 1
     3    1   30 1
     4    1   31 1
     5    2    3 1
     6    3    7 1
     7    3    4 1
     8    3   24 1
     9    4    5 1
    10    4   32 1
    11    4   33 1
    12    5    6 1
    13    5   34 1
    14    5   35 1
    15    6   11 ar
    16    6    7 ar
    17    7    8 ar
    18    8    9 ar
    19    8   36 1
    20    9   10 ar
    21    9   12 1
    22   10   11 ar
    23   10   37 1
    24   11   38 1
    25   12   13 1
    26   13   14 1
    27   13   39 1
    28   13   40 1
    29   14   23 ar
    30   14   15 ar
    31   15   16 ar
    32   15   41 1
    33   16   17 ar
    34   16   42 1
    35   17   22 ar
    36   17   18 ar
    37   18   19 ar
    38   18   43 1
    39   19   20 ar
    40   19   44 1
    41   20   21 ar
    42   20   45 1
    43   21   22 ar
    44   21   46 1
    45   22   23 ar
    46   23   47 1
    47   24   28 1
    48   24   25 2
    49   25   26 1
    50   26   27 2
    51   26   48 1
    52   27   28 1
    53   27   49 1
@<TRIPOS>MOLECULE
ZINC03784103
   49    53     0     0     0
SMALL
USER_CHARGES
2-[1-methoxy-6-(2-naphthylmethoxy)indan-1-yl]thiazole
@<TRIPOS>ATOM
      1 C1          7.3797    2.4477   -5.2486 C.3       1 <0>         0.0085
      2 O1          8.1997    3.5589   -4.8815 O.3       1 <0>        -0.3493
      3 C2          7.4776    4.6485   -4.3041 C.3       1 <0>         0.2533
      4 C3          8.4496    5.7688   -3.8771 C.3       1 <0>        -0.0968
      5 C4          8.7388    5.4128   -2.4034 C.3       1 <0>        -0.0766
      6 C5          7.5199    4.6475   -1.9340 C.ar      1 <0>        -0.1062
      7 C6          6.7949    4.2081   -3.0268 C.ar      1 <0>        -0.0786
      8 C7          5.6325    3.4819   -2.8368 C.ar      1 <0>        -0.1182
      9 C8          5.1930    3.1934   -1.5539 C.ar      1 <0>         0.1284
     10 C9          5.9189    3.6398   -0.4595 C.ar      1 <0>        -0.1927
     11 C10         7.0812    4.3593   -0.6523 C.ar      1 <0>        -0.0672
     12 O2          4.0511    2.4801   -1.3692 O.3       1 <0>        -0.3074
     13 C11         3.6594    2.2207   -0.0196 C.3       1 <0>         0.1013
     14 C12         2.3803    1.4239   -0.0121 C.ar      1 <0>        -0.0933
     15 C13         1.1564    2.0906    0.0022 C.ar      1 <0>        -0.0964
     16 C14        -0.0170    1.4012    0.0097 C.ar      1 <0>        -0.1062
     17 C15         0.0021   -0.0041    0.0020 C.ar      1 <0>        -0.0445
     18 C16        -1.1888   -0.7503    0.0088 C.ar      1 <0>        -0.1089
     19 C17        -1.1315   -2.1100    0.0006 C.ar      1 <0>        -0.1112
     20 C18         0.0924   -2.7766   -0.0145 C.ar      1 <0>        -0.1167
     21 C19         1.2657   -2.0872   -0.0219 C.ar      1 <0>        -0.1027
     22 C20         1.2466   -0.6819   -0.0134 C.ar      1 <0>        -0.0566
     23 C21         2.4375    0.0642   -0.0204 C.ar      1 <0>        -0.0752
     24 C22         6.4628    5.1815   -5.2824 C.2       1 <0>         0.0617
     25 N1          5.6161    6.1740   -5.1339 N.2       1 <0>        -0.4897
     26 C23         4.7892    6.5214   -6.0977 C.2       1 <0>         0.0266
     27 C24         4.8195    5.8185   -7.2585 C.2       1 <0>        -0.2199
     28 S1          6.1082    4.6357   -6.8924 S.3       1 <0>         0.0621
     29 H1          6.8709    2.0638   -4.3643 H         1 <0>         0.0577
     30 H2          6.6404    2.7684   -5.9825 H         1 <0>         0.0500
     31 H3          8.0022    1.6632   -5.6789 H         1 <0>         0.1005
     32 H4          7.9723    6.7457   -3.9532 H         1 <0>         0.0980
     33 H5          9.3635    5.7356   -4.4702 H         1 <0>         0.0977
     34 H6          8.8661    6.3202   -1.8131 H         1 <0>         0.0850
     35 H7          9.6288    4.7875   -2.3314 H         1 <0>         0.0894
     36 H8          5.0663    3.1387   -3.6900 H         1 <0>         0.1224
     37 H9          5.5777    3.4212    0.5416 H         1 <0>         0.1331
     38 H10         7.6485    4.7029    0.2001 H         1 <0>         0.1296
     39 H11         3.5022    3.1653    0.5011 H         1 <0>         0.0737
     40 H12         4.4431    1.6544    0.4837 H         1 <0>         0.0732
     41 H13         1.1389    3.1704    0.0082 H         1 <0>         0.1254
     42 H14        -0.9579    1.9313    0.0171 H         1 <0>         0.1308
     43 H15        -2.1445   -0.2473    0.0202 H         1 <0>         0.1286
     44 H16        -2.0482   -2.6810    0.0055 H         1 <0>         0.1250
     45 H17         0.1099   -3.8564   -0.0207 H         1 <0>         0.1250
     46 H18         2.2067   -2.6171   -0.0336 H         1 <0>         0.1283
     47 H19         3.3931   -0.4388   -0.0325 H         1 <0>         0.1297
     48 H20         4.1002    7.3427   -5.9662 H         1 <0>         0.1710
     49 H21         4.2289    5.9401   -8.1545 H         1 <0>         0.1977
@<TRIPOS>BOND
     1    1    2 1
     2    1   29 1
     3    1   30 1
     4    1   31 1
     5    2    3 1
     6    3    7 1
     7    3    4 1
     8    3   24 1
     9    4    5 1
    10    4   32 1
    11    4   33 1
    12    5    6 1
    13    5   34 1
    14    5   35 1
    15    6   11 ar
    16    6    7 ar
    17    7    8 ar
    18    8    9 ar
    19    8   36 1
    20    9   10 ar
    21    9   12 1
    22   10   11 ar
    23   10   37 1
    24   11   38 1
    25   12   13 1
    26   13   14 1
    27   13   39 1
    28   13   40 1
    29   14   23 ar
    30   14   15 ar
    31   15   16 ar
    32   15   41 1
    33   16   17 ar
    34   16   42 1
    35   17   22 ar
    36   17   18 ar
    37   18   19 ar
    38   18   43 1
    39   19   20 ar
    40   19   44 1
    41   20   21 ar
    42   20   45 1
    43   21   22 ar
    44   21   46 1
    45   22   23 ar
    46   23   47 1
    47   24   28 1
    48   24   25 2
    49   25   26 1
    50   26   27 2
    51   26   48 1
    52   27   28 1
    53   27   49 1
@<TRIPOS>MOLECULE
ZINC09485329
   56    58     0     0     0
SMALL
USER_CHARGES
tert-butyl 4-[4-(1H-indol-3-yl)butanoyl]piperazine-1-carboxylate
@<TRIPOS>ATOM
      1 C1         -3.0744    3.1093   -9.3272 C.3       1 <0>        -0.1838
      2 C2         -2.7571    4.4074   -8.5822 C.3       1 <0>         0.1365
      3 C3         -4.0169    5.2722   -8.5051 C.3       1 <0>        -0.1413
      4 C4         -1.6605    5.1692   -9.3293 C.3       1 <0>        -0.1842
      5 O1         -2.3010    4.0957   -7.2394 O.3       1 <0>        -0.3626
      6 C5         -1.1946    3.3364   -7.1305 C.2       1 <0>         0.6548
      7 O2         -0.6256    2.9448   -8.1302 O.2       1 <0>        -0.5636
      8 N1         -0.7181    3.0105   -5.9126 N.am      1 <0>        -0.5979
      9 C6          0.4886    2.1824   -5.7786 C.3       1 <0>         0.1143
     10 C7          0.1537    0.9657   -4.9070 C.3       1 <0>         0.0968
     11 N2         -0.5238    1.4325   -3.6893 N.am      1 <0>        -0.6190
     12 C8         -1.7337    2.2560   -3.8233 C.3       1 <0>         0.0924
     13 C9         -1.3956    3.4774   -4.6949 C.3       1 <0>         0.0969
     14 C10        -0.0473    1.1066   -2.4714 C.2       1 <0>         0.5158
     15 O3          0.9491    0.4223   -2.3733 O.2       1 <0>        -0.5329
     16 C11        -0.7527    1.5927   -1.2315 C.3       1 <0>        -0.1410
     17 C12        -0.0127    1.0858    0.0080 C.3       1 <0>        -0.0981
     18 C13        -0.7288    1.5792    1.2668 C.3       1 <0>        -0.0428
     19 C14         0.0000    1.0800    2.4877 C.2       1 <0>        -0.1687
     20 C15        -0.2888   -0.0242    3.1942 C.2       1 <0>         0.0527
     21 N3          0.5910   -0.1564    4.2338 N.pl3     1 <0>        -0.5964
     22 H1          0.5835   -0.8781    4.8819 H         1 <0>         0.4158
     23 C16         1.4851    0.8907    4.2264 C.ar      1 <0>         0.0945
     24 C17         1.1542    1.7112    3.1323 C.ar      1 <0>        -0.1013
     25 C18         1.9006    2.8621    2.8738 C.ar      1 <0>        -0.0701
     26 C19         2.9506    3.1863    3.6862 C.ar      1 <0>        -0.1469
     27 C20         3.2809    2.3806    4.7669 C.ar      1 <0>        -0.0989
     28 C21         2.5576    1.2400    5.0401 C.ar      1 <0>        -0.1315
     29 H2         -3.8556    2.5665   -8.7950 H         1 <0>         0.0595
     30 H3         -3.4168    3.3432  -10.3353 H         1 <0>         0.0719
     31 H4         -2.1769    2.4932   -9.3822 H         1 <0>         0.0866
     32 H5         -3.7908    6.1970   -7.9743 H         1 <0>         0.0671
     33 H6         -4.3593    5.5062   -9.5131 H         1 <0>         0.0820
     34 H7         -4.7981    4.7295   -7.9728 H         1 <0>         0.0670
     35 H8         -0.7630    4.5531   -9.3842 H         1 <0>         0.0867
     36 H9         -2.0029    5.4032  -10.3373 H         1 <0>         0.0719
     37 H10        -1.4345    6.0940   -8.7985 H         1 <0>         0.0597
     38 H11         1.2806    2.7637   -5.3064 H         1 <0>         0.0779
     39 H12         0.8172    1.8482   -6.7627 H         1 <0>         0.1098
     40 H13         1.0724    0.4446   -4.6376 H         1 <0>         0.1091
     41 H14        -0.5042    0.2922   -5.4563 H         1 <0>         0.0737
     42 H15        -2.5229    1.6722   -4.2972 H         1 <0>         0.0775
     43 H16        -2.0618    2.5872   -2.8380 H         1 <0>         0.1024
     44 H17        -0.7377    4.1509   -4.1456 H         1 <0>         0.0779
     45 H18        -2.3143    3.9984   -4.9643 H         1 <0>         0.1059
     46 H19        -1.7753    1.2154   -1.2238 H         1 <0>         0.0946
     47 H20        -0.7675    2.6825   -1.2255 H         1 <0>         0.0950
     48 H21         0.0021   -0.0041    0.0020 H         1 <0>         0.0694
     49 H22         1.0099    1.4631    0.0003 H         1 <0>         0.0712
     50 H23        -0.7436    2.6691    1.2728 H         1 <0>         0.0703
     51 H24        -1.7514    1.2020    1.2746 H         1 <0>         0.0696
     52 H25        -1.0951   -0.7081    2.9736 H         1 <0>         0.1687
     53 H26         1.6493    3.4939    2.0348 H         1 <0>         0.1200
     54 H27         3.5282    4.0766    3.4855 H         1 <0>         0.1218
     55 H28         4.1133    2.6501    5.4000 H         1 <0>         0.1246
     56 H29         2.8229    0.6192    5.8831 H         1 <0>         0.1188
@<TRIPOS>BOND
     1    1    2 1
     2    1   29 1
     3    1   30 1
     4    1   31 1
     5    2    3 1
     6    2    4 1
     7    2    5 1
     8    3   32 1
     9    3   33 1
    10    3   34 1
    11    4   35 1
    12    4   36 1
    13    4   37 1
    14    5    6 1
    15    6    7 2
    16    6    8 am
    17    8   13 1
    18    8    9 1
    19    9   10 1
    20    9   38 1
    21    9   39 1
    22   10   11 1
    23   10   40 1
    24   10   41 1
    25   11   12 1
    26   11   14 am
    27   12   13 1
    28   12   42 1
    29   12   43 1
    30   13   44 1
    31   13   45 1
    32   14   15 2
    33   14   16 1
    34   16   17 1
    35   16   46 1
    36   16   47 1
    37   17   18 1
    38   17   48 1
    39   17   49 1
    40   18   19 1
    41   18   50 1
    42   18   51 1
    43   19   24 1
    44   19   20 2
    45   20   21 1
    46   20   52 1
    47   21   22 1
    48   21   23 1
    49   23   28 ar
    50   23   24 ar
    51   24   25 ar
    52   25   26 ar
    53   25   53 1
    54   26   27 ar
    55   26   54 1
    56   27   28 ar
    57   27   55 1
    58   28   56 1
@<TRIPOS>MOLECULE
ZINC05199754
   34    36     0     0     0
SMALL
USER_CHARGES
2-(4-dimethylaminophenyl)indane-1,3-dione
@<TRIPOS>ATOM
      1 C1          7.0305    0.6190    4.4710 C.3       1 <0>         0.0947
      2 N1          5.5776    0.7507    4.6050 N.pl3     1 <0>        -0.6472
      3 C2          4.9737    0.8866    5.9328 C.3       1 <0>         0.0945
      4 C3          4.7680    0.7467    3.4668 C.ar      1 <0>         0.1785
      5 C4          5.3442    0.7376    2.2028 C.ar      1 <0>        -0.2015
      6 C5          4.5408    0.7341    1.0795 C.ar      1 <0>        -0.0584
      7 C6          3.1644    0.7397    1.2119 C.ar      1 <0>         0.0008
      8 C7          2.5875    0.7545    2.4686 C.ar      1 <0>        -0.1039
      9 C8          3.3850    0.7523    3.5962 C.ar      1 <0>        -0.1974
     10 C9          2.2909    0.7359   -0.0162 C.2       1 <0>        -0.5061
     11 C10         1.3519    1.9184    0.0081 C.2       1 <0>         0.4074
     12 O1          1.6700    3.0883    0.0202 O.3       1 <0>        -0.5115
     13 C11        -0.0228    1.3869    0.0144 C.ar      1 <0>        -0.1330
     14 C12        -1.2542    2.0461    0.0400 C.ar      1 <0>        -0.0930
     15 C13        -2.4293    1.3196    0.0374 C.ar      1 <0>        -0.1250
     16 C14        -2.3977   -0.0638    0.0192 C.ar      1 <0>        -0.1250
     17 C15        -1.1907   -0.7357   -0.0014 C.ar      1 <0>        -0.0928
     18 C16         0.0094   -0.0205   -0.0041 C.ar      1 <0>        -0.1327
     19 C17         1.4069   -0.4885   -0.0235 C.2       1 <0>         0.4080
     20 O2          1.7780   -1.6425   -0.0414 O.2       1 <0>        -0.5116
     21 H1          7.2939    0.5288    3.4068 H         1 <0>         0.0789
     22 H2          7.3685   -0.2785    5.0098 H         1 <0>         0.0440
     23 H3          7.5199    1.5078    4.8958 H         1 <0>         0.0440
     24 H4          3.8817    0.9727    5.8319 H         1 <0>         0.0764
     25 H5          5.3687    1.7877    6.4247 H         1 <0>         0.0444
     26 H6          5.2173    0.0014    6.5387 H         1 <0>         0.0440
     27 H7          6.4192    0.7336    2.0987 H         1 <0>         0.1126
     28 H8          4.9881    0.7267    0.0965 H         1 <0>         0.1228
     29 H9          1.5122    0.7637    2.5685 H         1 <0>         0.0982
     30 H10         2.9338    0.7594    4.5774 H         1 <0>         0.1085
     31 H11        -1.2878    3.1255    0.0546 H         1 <0>         0.1210
     32 H12        -3.3785    1.8345    0.0531 H         1 <0>         0.1197
     33 H13        -3.3224   -0.6217    0.0209 H         1 <0>         0.1197
     34 H14        -1.1749   -1.8155   -0.0152 H         1 <0>         0.1210
@<TRIPOS>BOND
     1    1    2 1
     2    1   21 1
     3    1   22 1
     4    1   23 1
     5    2    3 1
     6    2    4 1
     7    3   24 1
     8    3   25 1
     9    3   26 1
    10    4    9 ar
    11    4    5 ar
    12    5    6 ar
    13    5   27 1
    14    6    7 ar
    15    6   28 1
    16    7    8 ar
    17    7   10 1
    18    8    9 ar
    19    8   29 1
    20    9   30 1
    21   10   19 1
    22   10   11 2
    23   11   12 1
    24   11   13 1
    25   13   18 ar
    26   13   14 ar
    27   14   15 ar
    28   14   31 1
    29   15   16 ar
    30   15   32 1
    31   16   17 ar
    32   16   33 1
    33   17   18 ar
    34   17   34 1
    35   18   19 1
    36   19   20 2
@<TRIPOS>MOLECULE
ZINC00001463
   26    28     0     0     0
SMALL
USER_CHARGES

@<TRIPOS>ATOM
      1 C1         -0.0168    1.3898    0.0097 C.ar      1 <0>        -0.1249
      2 C2          1.1620    2.1001    0.0022 C.ar      1 <0>        -0.1249
      3 C3          2.3853    1.4319   -0.0130 C.ar      1 <0>        -0.0889
      4 C4          2.4148    0.0504   -0.0208 C.ar      1 <0>        -0.1240
      5 C5          1.2096   -0.6758   -0.0132 C.ar      1 <0>        -0.1240
      6 C6          0.0021   -0.0041    0.0020 C.ar      1 <0>        -0.0889
      7 C7          1.5668   -2.1187   -0.0244 C.2       1 <0>         0.4315
      8 C8          2.9642   -2.2250   -0.0383 C.2       1 <0>        -0.5404
      9 C9          3.5234   -0.9398   -0.0367 C.2       1 <0>         0.4315
     10 O1          4.7192   -0.6778   -0.0471 O.3       1 <0>        -0.5479
     11 C10         3.7282   -3.4931   -0.0529 C.ar      1 <0>         0.0884
     12 C11         3.6466   -4.3468   -1.1532 C.ar      1 <0>        -0.0990
     13 C12         4.3610   -5.5271   -1.1620 C.ar      1 <0>        -0.1529
     14 C13         5.1583   -5.8651   -0.0805 C.ar      1 <0>         0.0507
     15 C14         5.2428   -5.0209    1.0147 C.ar      1 <0>        -0.1529
     16 C15         4.5366   -3.8357    1.0312 C.ar      1 <0>        -0.0989
     17 F1          5.8554   -7.0223   -0.0939 F         1 <0>        -0.1568
     18 O2          0.7763   -3.0534   -0.0215 O.2       1 <0>        -0.5479
     19 H1         -0.9606    1.9146    0.0260 H         1 <0>         0.1205
     20 H2          1.1392    3.1798    0.0079 H         1 <0>         0.1205
     21 H3          3.3082    1.9928   -0.0192 H         1 <0>         0.1219
     22 H4         -0.9251   -0.5578    0.0083 H         1 <0>         0.1219
     23 H5          3.0251   -4.0843   -1.9966 H         1 <0>         0.1213
     24 H6          4.2983   -6.1889   -2.0132 H         1 <0>         0.1214
     25 H7          5.8654   -5.2892    1.8553 H         1 <0>         0.1213
     26 H8          4.6064   -3.1763    1.8837 H         1 <0>         0.1213
@<TRIPOS>BOND
     1    1    6 ar
     2    1    2 ar
     3    1   19 1
     4    2    3 ar
     5    2   20 1
     6    3    4 ar
     7    3   21 1
     8    4    5 ar
     9    4    9 1
    10    5    6 ar
    11    5    7 1
    12    6   22 1
    13    7    8 1
    14    7   18 2
    15    8   11 1
    16    8    9 2
    17    9   10 1
    18   11   16 ar
    19   11   12 ar
    20   12   13 ar
    21   12   23 1
    22   13   14 ar
    23   13   24 1
    24   14   15 ar
    25   14   17 1
    26   15   16 ar
    27   15   25 1
    28   16   26 1
@<TRIPOS>MOLECULE
ZINC01430234
   38    41     0     0     0
SMALL
USER_CHARGES
2-phenyl-2-phenylsulfanyl-indane-1,3-dione
@<TRIPOS>ATOM
      1 C1         -4.2399   -0.2809   -3.4923 C.ar      1 <0>        -0.1035
      2 C2         -4.6613    0.7620   -2.6887 C.ar      1 <0>        -0.1101
      3 C3         -3.9868    1.0473   -1.5163 C.ar      1 <0>        -0.0885
      4 C4         -2.8914    0.2891   -1.1470 C.ar      1 <0>        -0.0861
      5 C5         -2.4672   -0.7507   -1.9530 C.ar      1 <0>        -0.1092
      6 C6         -3.1443   -1.0387   -3.1232 C.ar      1 <0>        -0.1124
      7 C7         -2.1562    0.6001    0.1312 C.3       1 <0>        -0.1223
      8 C8         -1.0410    1.5845   -0.1297 C.2       1 <0>         0.4422
      9 O1         -1.1630    2.7097   -0.5644 O.2       1 <0>        -0.3847
     10 C9          0.2239    0.9209    0.2337 C.ar      1 <0>        -0.1359
     11 C10         1.5417    1.3821    0.1839 C.ar      1 <0>        -0.0554
     12 C11         2.5780    0.5640    0.5904 C.ar      1 <0>        -0.0920
     13 C12         2.3214   -0.7161    1.0495 C.ar      1 <0>        -0.0927
     14 C13         1.0257   -1.1920    1.1069 C.ar      1 <0>        -0.0559
     15 C14        -0.0371   -0.3814    0.7007 C.ar      1 <0>        -0.1382
     16 C15        -1.4869   -0.6445    0.6638 C.2       1 <0>         0.4250
     17 O2         -2.0398   -1.6699    0.9995 O.2       1 <0>        -0.3892
     18 S1         -3.3018    1.2727    1.3664 S.3       1 <0>        -0.0292
     19 C16        -4.5496    0.0367    1.5080 C.ar      1 <0>        -0.1066
     20 C17        -4.4893   -1.1074    0.7214 C.ar      1 <0>        -0.1026
     21 C18        -5.4663   -2.0761    0.8386 C.ar      1 <0>        -0.1063
     22 C19        -6.5094   -1.9042    1.7303 C.ar      1 <0>        -0.1137
     23 C20        -6.5755   -0.7645    2.5110 C.ar      1 <0>        -0.1100
     24 C21        -5.5995    0.2062    2.4026 C.ar      1 <0>        -0.0920
     25 H1         -4.7669   -0.5038   -4.4083 H         1 <0>         0.1294
     26 H2         -5.5172    1.3541   -2.9770 H         1 <0>         0.1313
     27 H3         -4.3158    1.8622   -0.8886 H         1 <0>         0.1399
     28 H4         -1.6087   -1.3402   -1.6667 H         1 <0>         0.1200
     29 H5         -2.8153   -1.8537   -3.7509 H         1 <0>         0.1304
     30 H6          1.7506    2.3797   -0.1730 H         1 <0>         0.1427
     31 H7          3.5948    0.9257    0.5498 H         1 <0>         0.1439
     32 H8          3.1393   -1.3472    1.3645 H         1 <0>         0.1436
     33 H9          0.8341   -2.1921    1.4668 H         1 <0>         0.1420
     34 H10        -3.6772   -1.2404    0.0219 H         1 <0>         0.1419
     35 H11        -5.4180   -2.9672    0.2303 H         1 <0>         0.1235
     36 H12        -7.2744   -2.6616    1.8169 H         1 <0>         0.1250
     37 H13        -7.3917   -0.6335    3.2060 H         1 <0>         0.1288
     38 H14        -5.6522    1.0962    3.0121 H         1 <0>         0.1266
@<TRIPOS>BOND
     1    1    6 ar
     2    1    2 ar
     3    1   25 1
     4    2    3 ar
     5    2   26 1
     6    3    4 ar
     7    3   27 1
     8    4    5 ar
     9    4    7 1
    10    5    6 ar
    11    5   28 1
    12    6   29 1
    13    7   16 1
    14    7    8 1
    15    7   18 1
    16    8    9 2
    17    8   10 1
    18   10   15 ar
    19   10   11 ar
    20   11   12 ar
    21   11   30 1
    22   12   13 ar
    23   12   31 1
    24   13   14 ar
    25   13   32 1
    26   14   15 ar
    27   14   33 1
    28   15   16 1
    29   16   17 2
    30   18   19 1
    31   19   24 ar
    32   19   20 ar
    33   20   21 ar
    34   20   34 1
    35   21   22 ar
    36   21   35 1
    37   22   23 ar
    38   22   36 1
    39   23   24 ar
    40   23   37 1
    41   24   38 1
@<TRIPOS>MOLECULE
ZINC01845036
   26    27     0     0     0
SMALL
USER_CHARGES
1-[3-(trifluoromethyl)phenyl]-4,5-dihydropyrazol-3-amine
@<TRIPOS>ATOM
      1 C1          1.1769    1.7819    0.0004 C.ar      1 <0>        -0.0722
      2 C2         -0.0126    1.0758    0.0080 C.ar      1 <0>        -0.1293
      3 C3         -1.2205    1.7491    0.0173 C.ar      1 <0>        -0.1395
      4 C4         -1.2433    3.1298    0.0298 C.ar      1 <0>        -0.1202
      5 C5         -0.0501    3.8429    0.0218 C.ar      1 <0>         0.2468
      6 C6          1.1623    3.1623    0.0070 C.ar      1 <0>        -0.1621
      7 N1         -0.0690    5.2369    0.0281 N.pl3     1 <0>        -0.4689
      8 C7          1.1160    6.1097    0.0204 C.3       1 <0>         0.0893
      9 C8          0.5165    7.5300    0.0318 C.3       1 <0>        -0.1304
     10 C9         -0.9769    7.2939    0.0451 C.2       1 <0>         0.3283
     11 N2         -1.2130    6.0324    0.0366 N.2       1 <0>        -0.3279
     12 N3         -1.9433    8.2881    0.0583 N.pl3     1 <0>        -0.8296
     13 C10        -2.5135    0.9751    0.0192 C.3       1 <0>         0.5086
     14 F1         -2.2361   -0.3961    0.0105 F         1 <0>        -0.1765
     15 F2         -3.2469    1.2952    1.1668 F         1 <0>        -0.1763
     16 F3         -3.2577    1.3076   -1.1177 F         1 <0>        -0.1762
     17 H1          2.1183    1.2526   -0.0111 H         1 <0>         0.1373
     18 H2          0.0021   -0.0041    0.0020 H         1 <0>         0.1367
     19 H3         -2.1870    3.6549    0.0409 H         1 <0>         0.1395
     20 H4          2.0914    3.7129    0.0004 H         1 <0>         0.1299
     21 H5          1.7223    5.9417    0.9105 H         1 <0>         0.0817
     22 H6          1.7067    5.9470   -0.8812 H         1 <0>         0.0816
     23 H7          0.8265    8.0687    0.9272 H         1 <0>         0.1030
     24 H8          0.8095    8.0760   -0.8649 H         1 <0>         0.1031
     25 H9         -1.6790    9.2214    0.0596 H         1 <0>         0.4138
     26 H10        -2.8836    8.0502    0.0663 H         1 <0>         0.4097
@<TRIPOS>BOND
     1    1    6 ar
     2    1    2 ar
     3    1   17 1
     4    2    3 ar
     5    2   18 1
     6    3    4 ar
     7    3   13 1
     8    4    5 ar
     9    4   19 1
    10    5    6 ar
    11    5    7 1
    12    6   20 1
    13    7   11 1
    14    7    8 1
    15    8    9 1
    16    8   21 1
    17    8   22 1
    18    9   10 1
    19    9   23 1
    20    9   24 1
    21   10   11 2
    22   10   12 1
    23   12   25 1
    24   12   26 1
    25   13   14 1
    26   13   15 1
    27   13   16 1
@<TRIPOS>MOLECULE
ZINC00120208
   23    25     0     0     0
SMALL
USER_CHARGES
10H-phenoxazine
@<TRIPOS>ATOM
      1 C1         -2.4083    1.3647    0.0258 C.ar      1 <0>        -0.1035
      2 C2         -2.3926   -0.0172    0.0157 C.ar      1 <0>        -0.1215
      3 C3         -1.1905   -0.7039    0.0039 C.ar      1 <0>        -0.1032
      4 C4          0.0021   -0.0041    0.0020 C.ar      1 <0>         0.0635
      5 C5         -0.0169    1.3914    0.0097 C.ar      1 <0>         0.1255
      6 C6         -1.2182    2.0734    0.0192 C.ar      1 <0>        -0.1387
      7 N1          1.2131    2.0771    0.0016 N.pl3     1 <0>        -0.6899
      8 C7          2.3085    1.3776   -0.5403 C.ar      1 <0>         0.1257
      9 C8          3.3963    2.0459   -1.0680 C.ar      1 <0>        -0.1389
     10 C9          4.4517    1.3240   -1.6002 C.ar      1 <0>        -0.1033
     11 C10         4.4155   -0.0576   -1.6029 C.ar      1 <0>        -0.1217
     12 C11         3.3283   -0.7307   -1.0721 C.ar      1 <0>        -0.1030
     13 C12         2.2717   -0.0176   -0.5362 C.ar      1 <0>         0.0632
     14 O1          1.1954   -0.6599   -0.0041 O.3       1 <0>        -0.2466
     15 H1         -3.3502    1.8931    0.0361 H         1 <0>         0.1321
     16 H2         -3.3236   -0.5646    0.0173 H         1 <0>         0.1345
     17 H3         -1.1843   -1.7838   -0.0035 H         1 <0>         0.1380
     18 H4         -1.2294    3.1533    0.0268 H         1 <0>         0.1315
     19 H5          1.3007    2.9784    0.3493 H         1 <0>         0.4202
     20 H6          3.4237    3.1255   -1.0653 H         1 <0>         0.1315
     21 H7          5.3047    1.8416   -2.0136 H         1 <0>         0.1321
     22 H8          5.2401   -0.6154   -2.0215 H         1 <0>         0.1345
     23 H9          3.3057   -1.8105   -1.0761 H         1 <0>         0.1380
@<TRIPOS>BOND
     1    1    6 ar
     2    1    2 ar
     3    1   15 1
     4    2    3 ar
     5    2   16 1
     6    3    4 ar
     7    3   17 1
     8    4   14 1
     9    4    5 ar
    10    5    6 ar
    11    5    7 1
    12    6   18 1
    13    7    8 1
    14    7   19 1
    15    8   13 ar
    16    8    9 ar
    17    9   10 ar
    18    9   20 1
    19   10   11 ar
    20   10   21 1
    21   11   12 ar
    22   11   22 1
    23   12   13 ar
    24   12   23 1
    25   13   14 1
@<TRIPOS>MOLECULE
ZINC05424029
   50    52     0     0     0
SMALL
USER_CHARGES
2-(3,5-ditert-butylphenyl)indane-1,3-dione
@<TRIPOS>ATOM
      1 C1         -0.0127    1.0858    0.0080 C.3       1 <0>        -0.1436
      2 C2         -0.7288    1.5792    1.2668 C.3       1 <0>        -0.0241
      3 C3          0.0111    1.0724    2.5063 C.3       1 <0>        -0.1355
      4 C4         -0.7496    3.1091    1.2752 C.3       1 <0>        -0.1354
      5 C5         -2.1426    1.0576    1.2775 C.ar      1 <0>        -0.0821
      6 C6         -2.5938    0.2624    0.2407 C.ar      1 <0>        -0.1050
      7 C7         -3.8907   -0.2161    0.2505 C.ar      1 <0>         0.0520
      8 C8         -4.7363    0.1004    1.2973 C.ar      1 <0>        -0.1490
      9 C9         -4.2848    0.8949    2.3346 C.ar      1 <0>        -0.0773
     10 C10        -2.9866    1.3697    2.3269 C.ar      1 <0>        -0.1379
     11 C11        -5.2068    1.2403    3.4755 C.3       1 <0>        -0.0249
     12 C12        -6.5723    0.5907    3.2423 C.3       1 <0>        -0.1416
     13 C13        -4.6125    0.7215    4.7864 C.3       1 <0>        -0.1347
     14 C14        -5.3716    2.7592    3.5561 C.3       1 <0>        -0.1347
     15 C15        -4.3829   -1.0822   -0.8802 C.2       1 <0>        -0.5124
     16 C16        -5.6160   -0.4737   -1.5046 C.2       1 <0>         0.4094
     17 O1         -5.6892    0.6113   -2.0404 O.3       1 <0>        -0.5100
     18 C17        -6.7143   -1.4429   -1.3409 C.ar      1 <0>        -0.1329
     19 C18        -8.0531   -1.3776   -1.7347 C.ar      1 <0>        -0.0923
     20 C19        -8.9070   -2.4294   -1.4645 C.ar      1 <0>        -0.1243
     21 C20        -8.4457   -3.5544   -0.8036 C.ar      1 <0>        -0.1242
     22 C21        -7.1255   -3.6397   -0.4058 C.ar      1 <0>        -0.0922
     23 C22        -6.2450   -2.5874   -0.6685 C.ar      1 <0>        -0.1325
     24 C23        -4.8134   -2.4309   -0.3547 C.2       1 <0>         0.4098
     25 O2         -4.1115   -3.2359    0.2190 O.2       1 <0>        -0.5103
     26 H1         -0.5447    1.4502   -0.8831 H         1 <0>         0.0619
     27 H2          0.0022   -0.0141    0.0020 H         1 <0>         0.0618
     28 H3          1.0193    1.4665    0.0002 H         1 <0>         0.0484
     29 H4         -0.5038    1.4272    3.4113 H         1 <0>         0.0521
     30 H5          1.0431    1.4531    2.4985 H         1 <0>         0.0505
     31 H6          0.0260   -0.0275    2.5003 H         1 <0>         0.0560
     32 H7         -1.2645    3.4638    2.1802 H         1 <0>         0.0520
     33 H8         -1.2817    3.4734    0.3840 H         1 <0>         0.0561
     34 H9          0.2824    3.4899    1.2674 H         1 <0>         0.0505
     35 H10        -1.9332    0.0152   -0.5771 H         1 <0>         0.1242
     36 H11        -5.7497   -0.2728    1.3046 H         1 <0>         0.1029
     37 H12        -2.6327    1.9874    3.1391 H         1 <0>         0.1042
     38 H13        -7.2453    0.8428    4.0751 H         1 <0>         0.0505
     39 H14        -6.4537   -0.5014    3.1844 H         1 <0>         0.0563
     40 H15        -6.9996    0.9636    2.2998 H         1 <0>         0.0565
     41 H16        -5.2855    0.9736    5.6192 H         1 <0>         0.0506
     42 H17        -3.6308    1.1885    4.9540 H         1 <0>         0.0546
     43 H18        -4.4940   -0.3706    4.7284 H         1 <0>         0.0548
     44 H19        -6.0446    3.0113    4.3889 H         1 <0>         0.0506
     45 H20        -5.7988    3.1322    2.6136 H         1 <0>         0.0549
     46 H21        -4.3898    3.2261    3.7238 H         1 <0>         0.0546
     47 H22        -8.4212   -0.5033   -2.2509 H         1 <0>         0.1209
     48 H23        -9.9411   -2.3735   -1.7712 H         1 <0>         0.1199
     49 H24        -9.1220   -4.3709   -0.5978 H         1 <0>         0.1200
     50 H25        -6.7736   -4.5212    0.1095 H         1 <0>         0.1209
@<TRIPOS>BOND
     1    1    2 1
     2    1   26 1
     3    1   27 1
     4    1   28 1
     5    2    3 1
     6    2    4 1
     7    2    5 1
     8    3   29 1
     9    3   30 1
    10    3   31 1
    11    4   32 1
    12    4   33 1
    13    4   34 1
    14    5   10 ar
    15    5    6 ar
    16    6    7 ar
    17    6   35 1
    18    7    8 ar
    19    7   15 1
    20    8    9 ar
    21    8   36 1
    22    9   10 ar
    23    9   11 1
    24   10   37 1
    25   11   12 1
    26   11   13 1
    27   11   14 1
    28   12   38 1
    29   12   39 1
    30   12   40 1
    31   13   41 1
    32   13   42 1
    33   13   43 1
    34   14   44 1
    35   14   45 1
    36   14   46 1
    37   15   24 1
    38   15   16 2
    39   16   17 1
    40   16   18 1
    41   18   23 ar
    42   18   19 ar
    43   19   20 ar
    44   19   47 1
    45   20   21 ar
    46   20   48 1
    47   21   22 ar
    48   21   49 1
    49   22   23 ar
    50   22   50 1
    51   23   24 1
    52   24   25 2
@<TRIPOS>MOLECULE
ZINC05424029
   51    53     0     0     0
SMALL
USER_CHARGES
isopentyl 3,7-dimethylocta-2,6-dienoate
@<TRIPOS>ATOM
      1 C1         -0.0127    1.0858    0.0080 C.3       1 <0>        -0.1468
      2 C2         -0.7288    1.5792    1.2668 C.3       1 <0>        -0.0295
      3 C3          0.0111    1.0724    2.5063 C.3       1 <0>        -0.1387
      4 C4         -0.7496    3.1091    1.2752 C.3       1 <0>        -0.1386
      5 C5         -2.1426    1.0576    1.2775 C.ar      1 <0>        -0.0627
      6 C6         -2.5938    0.2624    0.2407 C.ar      1 <0>        -0.1001
      7 C7         -3.8907   -0.2161    0.2505 C.ar      1 <0>        -0.0297
      8 C8         -4.7363    0.1004    1.2973 C.ar      1 <0>        -0.1218
      9 C9         -4.2848    0.8949    2.3346 C.ar      1 <0>        -0.0582
     10 C10        -2.9866    1.3697    2.3269 C.ar      1 <0>        -0.1034
     11 C11        -5.2068    1.2403    3.4755 C.3       1 <0>        -0.0290
     12 C12        -6.5723    0.5907    3.2423 C.3       1 <0>        -0.1473
     13 C13        -4.6125    0.7215    4.7864 C.3       1 <0>        -0.1393
     14 C14        -5.3716    2.7592    3.5561 C.3       1 <0>        -0.1390
     15 C15        -4.3829   -1.0822   -0.8802 C.3       1 <0>        -0.1840
     16 C16        -4.6197   -1.1293   -2.3710 C.2       1 <0>         0.4062
     17 O1         -4.4007   -0.2369   -3.1618 O.2       1 <0>        -0.4266
     18 C17        -5.1674   -2.4608   -2.6862 C.ar      1 <0>        -0.2328
     19 C18        -5.5576   -3.0200   -3.9056 C.ar      1 <0>        -0.2040
     20 C19        -6.0507   -4.3097   -3.9503 C.ar      1 <0>         0.1856
     21 C20        -6.1620   -5.0579   -2.7914 C.ar      1 <0>        -0.2734
     22 C21        -5.7814   -4.5244   -1.5753 C.ar      1 <0>        -0.0105
     23 C22        -6.2450   -2.5874   -0.6685 C.ar      1 <0>         0.2621
     24 C23        -4.8134   -2.4309   -0.3547 C.2       1 <0>         0.2664
     25 O2         -4.1115   -3.2359    0.2190 O.2       1 <0>        -0.4257
     26 H1          0.0021   -0.0041    0.0020 H         1 <0>         0.0588
     27 H2          1.0099    1.4631    0.0003 H         1 <0>         0.0598
     28 H3         -0.5399    1.4469   -0.8751 H         1 <0>         0.0590
     29 H4          1.0337    1.4497    2.4986 H         1 <0>         0.0596
     30 H5         -0.4990    1.4239    3.4031 H         1 <0>         0.0571
     31 H6          0.0259   -0.0175    2.5003 H         1 <0>         0.0569
     32 H7         -1.2768    3.4701    0.3922 H         1 <0>         0.0569
     33 H8         -1.2598    3.4606    2.1720 H         1 <0>         0.0571
     34 H9          0.2730    3.4864    1.2675 H         1 <0>         0.0596
     35 H10        -1.9332    0.0152   -0.5771 H         1 <0>         0.1278
     36 H11        -5.7497   -0.2728    1.3046 H         1 <0>         0.1291
     37 H12        -2.6327    1.9874    3.1391 H         1 <0>         0.1238
     38 H13        -6.4549   -0.4914    3.1849 H         1 <0>         0.0596
     39 H14        -7.2392    0.8406    4.0675 H         1 <0>         0.0611
     40 H15        -6.9957    0.9603    2.3084 H         1 <0>         0.0608
     41 H16        -3.6397    1.1843    4.9526 H         1 <0>         0.0564
     42 H17        -5.2793    0.9713    5.6117 H         1 <0>         0.0603
     43 H18        -4.4950   -0.3606    4.7290 H         1 <0>         0.0571
     44 H19        -5.7950    3.1288    2.6221 H         1 <0>         0.0574
     45 H20        -6.0385    3.0090    4.3813 H         1 <0>         0.0602
     46 H21        -4.3988    3.2220    3.7222 H         1 <0>         0.0564
     47 H22        -5.3659   -0.9447   -1.0018 H         1 <0>         0.0885
     48 H23        -5.4741   -2.4429   -4.8146 H         1 <0>         0.1206
     49 H24        -6.3509   -4.7369   -4.8958 H         1 <0>         0.1458
     50 H25        -6.5485   -6.0653   -2.8381 H         1 <0>         0.1375
     51 H26        -5.8716   -5.1150   -0.6756 H         1 <0>         0.0937
@<TRIPOS>BOND
     1    1    2 1
     2    1   26 1
     3    1   27 1
     4    1   28 1
     5    2    3 1
     6    2    4 1
     7    2    5 1
     8    3   29 1
     9    3   30 1
    10    3   31 1
    11    4   32 1
    12    4   33 1
    13    4   34 1
    14    5   10 ar
    15    5    6 ar
    16    6    7 ar
    17    6   35 1
    18    7    8 ar
    19    7   15 1
    20    8    9 ar
    21    8   36 1
    22    9   10 ar
    23    9   11 1
    24   10   37 1
    25   11   12 1
    26   11   13 1
    27   11   14 1
    28   12   38 1
    29   12   39 1
    30   12   40 1
    31   13   41 1
    32   13   42 1
    33   13   43 1
    34   14   44 1
    35   14   45 1
    36   14   46 1
    37   15   47 1
    38   15   24 1
    39   15   16 1
    40   16   18 1
    41   16   17 2
    42   18   23 ar
    43   18   19 ar
    44   19   20 ar
    45   19   48 1
    46   20   21 ar
    47   20   49 1
    48   21   22 ar
    49   21   50 1
    50   22   23 ar
    51   22   51 1
    52   23   24 1
    53   24   25 2
@<TRIPOS>MOLECULE
ZINC00001201
   26    28     0     0     0
SMALL
USER_CHARGES

@<TRIPOS>ATOM
      1 C1         -0.0168    1.3897    0.0097 C.ar      1 <0>        -0.1247
      2 C2          1.1620    2.1000    0.0022 C.ar      1 <0>        -0.1247
      3 C3          2.3853    1.4320   -0.0134 C.ar      1 <0>        -0.0887
      4 C4          2.4148    0.0504   -0.0211 C.ar      1 <0>        -0.1241
      5 C5          1.2097   -0.6758   -0.0130 C.ar      1 <0>        -0.1241
      6 C6          0.0021   -0.0041    0.0020 C.ar      1 <0>        -0.0887
      7 C7          1.5668   -2.1187   -0.0247 C.2       1 <0>         0.4322
      8 C8          2.9643   -2.2250   -0.0394 C.2       1 <0>        -0.5423
      9 C9          3.5235   -0.9397   -0.0378 C.2       1 <0>         0.4322
     10 O1          4.7192   -0.6776   -0.0484 O.3       1 <0>        -0.5473
     11 C10         3.7282   -3.4929   -0.0538 C.ar      1 <0>         0.1034
     12 C11         3.6461   -4.3474   -1.1536 C.ar      1 <0>        -0.1146
     13 C12         4.3603   -5.5278   -1.1614 C.ar      1 <0>        -0.1112
     14 C13         5.1572   -5.8650   -0.0807 C.ar      1 <0>        -0.0670
     15 C14         5.2422   -5.0212    1.0137 C.ar      1 <0>        -0.1113
     16 C15         4.5374   -3.8352    1.0300 C.ar      1 <0>        -0.1145
     17 Cl1         6.0530   -7.3520   -0.0975 Cl        1 <0>        -0.1031
     18 O2          0.7763   -3.0534   -0.0214 O.2       1 <0>        -0.5473
     19 H1         -0.9606    1.9145    0.0260 H         1 <0>         0.1206
     20 H2          1.1392    3.1798    0.0082 H         1 <0>         0.1206
     21 H3          3.3082    1.9929   -0.0200 H         1 <0>         0.1220
     22 H4         -0.9251   -0.5578    0.0082 H         1 <0>         0.1220
     23 H5          3.0245   -4.0855   -1.9971 H         1 <0>         0.1207
     24 H6          4.2973   -6.1902   -2.0121 H         1 <0>         0.1197
     25 H7          5.8652   -5.2895    1.8541 H         1 <0>         0.1197
     26 H8          4.6085   -3.1752    1.8819 H         1 <0>         0.1207
@<TRIPOS>BOND
     1    1    6 ar
     2    1    2 ar
     3    1   19 1
     4    2    3 ar
     5    2   20 1
     6    3    4 ar
     7    3   21 1
     8    4    5 ar
     9    4    9 1
    10    5    6 ar
    11    5    7 1
    12    6   22 1
    13    7    8 1
    14    7   18 2
    15    8   11 1
    16    8    9 2
    17    9   10 1
    18   11   16 ar
    19   11   12 ar
    20   12   13 ar
    21   12   23 1
    22   13   14 ar
    23   13   24 1
    24   14   15 ar
    25   14   17 1
    26   15   16 ar
    27   15   25 1
    28   16   26 1
@<TRIPOS>MOLECULE
ZINC13734161
   49    50     0     0     0
SMALL
USER_CHARGES
(5Z)-5-[(3,5-ditert-butyl-4-hydroxy-phenyl)methylene]-2-methylsulfanyl-thiazol-4-one
@<TRIPOS>ATOM
      1 C1          0.4942    1.7654    0.0793 C.3       1 <0>        -0.1516
      2 C2         -0.4268    1.9821    1.2817 C.3       1 <0>        -0.0221
      3 C3         -0.4934    3.4749    1.6106 C.3       1 <0>        -0.1428
      4 C4         -1.8296    1.4702    0.9485 C.3       1 <0>        -0.1427
      5 C5          0.1134    1.2295    2.4704 C.ar      1 <0>        -0.0904
      6 C6          1.2724    0.4966    2.3506 C.ar      1 <0>        -0.0822
      7 C7          1.7735   -0.2020    3.4561 C.ar      1 <0>        -0.1020
      8 C8          1.0915   -0.1504    4.6783 C.ar      1 <0>        -0.0718
      9 C9         -0.0666    0.5856    4.7868 C.ar      1 <0>        -0.0951
     10 C10        -0.5566    1.2814    3.6874 C.ar      1 <0>         0.1451
     11 O1         -1.6962    2.0104    3.8014 O.3       1 <0>        -0.4821
     12 C11        -0.8013    0.6425    6.1013 C.3       1 <0>        -0.0213
     13 C12        -0.0545   -0.1971    7.1397 C.3       1 <0>        -0.1496
     14 C13        -0.8795    2.0937    6.5795 C.3       1 <0>        -0.1432
     15 C14        -2.2159    0.0885    5.9193 C.3       1 <0>        -0.1430
     16 C15         3.0095   -0.9851    3.3345 C.2       1 <0>         0.0746
     17 C16         3.7592   -0.8988    2.2067 C.2       1 <0>        -0.2563
     18 C17         4.9451   -1.6851    1.7928 C.2       1 <0>         0.5352
     19 O2          5.4068   -2.5713    2.4940 O.2       1 <0>        -0.4393
     20 N1          5.4699   -1.3789    0.6275 N.2       1 <0>        -0.6011
     21 C18         4.9833   -0.4146   -0.1394 C.2       1 <0>         0.1964
     22 S1          3.5984    0.2010    0.8056 S.3       1 <0>         0.0102
     23 S2          5.5622    0.1291   -1.7122 S.3       1 <0>         0.0942
     24 C19         6.9647   -0.9930   -1.9360 C.3       1 <0>        -0.1633
     25 H1          0.5416    0.7019   -0.1549 H         1 <0>         0.0593
     26 H2          1.4935    2.1301    0.3167 H         1 <0>         0.0600
     27 H3          0.1035    2.3097   -0.7804 H         1 <0>         0.0649
     28 H4         -0.8841    4.0192    0.7508 H         1 <0>         0.0575
     29 H5         -1.1495    3.6293    2.4672 H         1 <0>         0.0758
     30 H6          0.5060    3.8396    1.8480 H         1 <0>         0.0524
     31 H7         -1.7821    0.4068    0.7142 H         1 <0>         0.0553
     32 H8         -2.4857    1.6246    1.8051 H         1 <0>         0.0582
     33 H9         -2.2203    2.0146    0.0888 H         1 <0>         0.0642
     34 H10         1.7945    0.4606    1.4058 H         1 <0>         0.1411
     35 H11         1.4737   -0.6870    5.5342 H         1 <0>         0.1408
     36 H12        -2.5020    1.5141    3.6028 H         1 <0>         0.3870
     37 H13         0.9533    0.1975    7.2693 H         1 <0>         0.0599
     38 H14        -0.5859   -0.1560    8.0905 H         1 <0>         0.0625
     39 H15         0.0012   -1.2310    6.7990 H         1 <0>         0.0593
     40 H16        -1.4116    2.6919    5.8398 H         1 <0>         0.0757
     41 H17        -1.4109    2.1348    7.5303 H         1 <0>         0.0566
     42 H18         0.1282    2.4883    6.7092 H         1 <0>         0.0521
     43 H19        -2.1601   -0.9454    5.5786 H         1 <0>         0.0556
     44 H20        -2.7473    0.1296    6.8701 H         1 <0>         0.0632
     45 H21        -2.7479    0.6867    5.1796 H         1 <0>         0.0580
     46 H22         3.3221   -1.6298    4.1427 H         1 <0>         0.1614
     47 H23         7.6796   -0.8470   -1.1262 H         1 <0>         0.1019
     48 H24         6.6104   -2.0237   -1.9265 H         1 <0>         0.1019
     49 H25         7.4487   -0.7839   -2.8900 H         1 <0>         0.1197
@<TRIPOS>BOND
     1    1    2 1
     2    1   25 1
     3    1   26 1
     4    1   27 1
     5    2    3 1
     6    2    4 1
     7    2    5 1
     8    3   28 1
     9    3   29 1
    10    3   30 1
    11    4   31 1
    12    4   32 1
    13    4   33 1
    14    5   10 ar
    15    5    6 ar
    16    6    7 ar
    17    6   34 1
    18    7    8 ar
    19    7   16 1
    20    8    9 ar
    21    8   35 1
    22    9   10 ar
    23    9   12 1
    24   10   11 1
    25   11   36 1
    26   12   13 1
    27   12   14 1
    28   12   15 1
    29   13   37 1
    30   13   38 1
    31   13   39 1
    32   14   40 1
    33   14   41 1
    34   14   42 1
    35   15   43 1
    36   15   44 1
    37   15   45 1
    38   16   17 2
    39   16   46 1
    40   17   22 1
    41   17   18 1
    42   18   19 2
    43   18   20 1
    44   20   21 2
    45   21   22 1
    46   21   23 1
    47   23   24 1
    48   24   47 1
    49   24   48 1
    50   24   49 1
@<TRIPOS>MOLECULE
ZINC04059838
   32    35     0     0     0
SMALL
USER_CHARGES
2-(2-naphthyl)indane-1,3-dione
@<TRIPOS>ATOM
      1 C1         -8.1489    2.4881   -4.4698 C.ar      1 <0>        -0.1371
      2 C2         -8.7393    2.5160   -3.2076 C.ar      1 <0>        -0.1321
      3 C3         -7.9796    2.5151   -2.0784 C.ar      1 <0>        -0.1025
      4 C4         -6.5785    2.4837   -2.1831 C.ar      1 <0>        -0.0483
      5 C5         -5.7611    2.4809   -1.0399 C.ar      1 <0>        -0.1006
      6 C6         -4.4077    2.4506   -1.1799 C.ar      1 <0>         0.0471
      7 C7         -3.8172    2.4276   -2.4421 C.ar      1 <0>        -0.1183
      8 C8         -4.5770    2.4245   -3.5712 C.ar      1 <0>        -0.1253
      9 C9         -5.9781    2.4549   -3.4665 C.ar      1 <0>        -0.0676
     10 C10        -6.7955    2.4577   -4.6097 C.ar      1 <0>        -0.1040
     11 C11        -3.5344    2.4482    0.0483 C.2       1 <0>        -0.5143
     12 C12        -2.6162    1.2493    0.0328 C.2       1 <0>         0.4095
     13 O1         -2.9546    0.0852    0.0300 O.3       1 <0>        -0.5075
     14 C13        -1.2324    1.7567    0.0174 C.ar      1 <0>        -0.1342
     15 C14        -0.0126    1.0758    0.0080 C.ar      1 <0>        -0.0911
     16 C15         1.1750    1.7817    0.0004 C.ar      1 <0>        -0.1237
     17 C16         1.1676    3.1655    0.0079 C.ar      1 <0>        -0.1235
     18 C17        -0.0274    3.8585    0.0235 C.ar      1 <0>        -0.0913
     19 C18        -1.2399    3.1645    0.0309 C.ar      1 <0>        -0.1333
     20 C19        -2.6290    3.6570    0.0467 C.2       1 <0>         0.4095
     21 O2         -2.9799    4.8174    0.0566 O.2       1 <0>        -0.5081
     22 H1         -8.7747    2.4902   -5.3499 H         1 <0>         0.1124
     23 H2         -9.8159    2.5390   -3.1243 H         1 <0>         0.1137
     24 H3         -8.4511    2.5371   -1.1070 H         1 <0>         0.1228
     25 H4         -6.2046    2.5030   -0.0554 H         1 <0>         0.1297
     26 H5         -2.7405    2.4083   -2.5254 H         1 <0>         0.1025
     27 H6         -4.1056    2.4023   -4.5426 H         1 <0>         0.1138
     28 H7         -6.3519    2.4363   -5.5942 H         1 <0>         0.1164
     29 H8          0.0021   -0.0041    0.0020 H         1 <0>         0.1219
     30 H9          2.1151    1.2502   -0.0118 H         1 <0>         0.1208
     31 H10         2.1019    3.7072    0.0019 H         1 <0>         0.1208
     32 H11        -0.0244    4.9385    0.0296 H         1 <0>         0.1219
@<TRIPOS>BOND
     1    1   10 ar
     2    1    2 ar
     3    1   22 1
     4    2    3 ar
     5    2   23 1
     6    3    4 ar
     7    3   24 1
     8    4    9 ar
     9    4    5 ar
    10    5    6 ar
    11    5   25 1
    12    6    7 ar
    13    6   11 1
    14    7    8 ar
    15    7   26 1
    16    8    9 ar
    17    8   27 1
    18    9   10 ar
    19   10   28 1
    20   11   20 1
    21   11   12 2
    22   12   13 1
    23   12   14 1
    24   14   19 ar
    25   14   15 ar
    26   15   16 ar
    27   15   29 1
    28   16   17 ar
    29   16   30 1
    30   17   18 ar
    31   17   31 1
    32   18   19 ar
    33   18   32 1
    34   19   20 1
    35   20   21 2
@<TRIPOS>MOLECULE
ZINC04059838
   33    36     0     0     0
SMALL
USER_CHARGES
2-(2-naphthyl)indane-1,3-dione
@<TRIPOS>ATOM
      1 C1         -8.1489    2.4881   -4.4698 C.ar      1 <0>        -0.1127
      2 C2         -8.7393    2.5160   -3.2076 C.ar      1 <0>        -0.1147
      3 C3         -7.9796    2.5151   -2.0784 C.ar      1 <0>        -0.1033
      4 C4         -6.5785    2.4837   -2.1831 C.ar      1 <0>        -0.0510
      5 C5         -5.7611    2.4809   -1.0399 C.ar      1 <0>        -0.0751
      6 C6         -4.4077    2.4506   -1.1799 C.ar      1 <0>        -0.0343
      7 C7         -3.8172    2.4276   -2.4421 C.ar      1 <0>        -0.1148
      8 C8         -4.5770    2.4245   -3.5712 C.ar      1 <0>        -0.0927
      9 C9         -5.9781    2.4549   -3.4665 C.ar      1 <0>        -0.0502
     10 C10        -6.7955    2.4577   -4.6097 C.ar      1 <0>        -0.1061
     11 C11        -3.5344    2.4482    0.0483 C.3       1 <0>        -0.1890
     12 C12        -3.2027    1.6903    1.3117 C.2       1 <0>         0.4068
     13 O1         -3.7138    0.6560    1.6842 O.2       1 <0>        -0.4260
     14 C13        -2.1393    2.4386    2.0058 C.ar      1 <0>        -0.2285
     15 C14        -1.4822    2.1808    3.2114 C.ar      1 <0>        -0.2045
     16 C15        -0.5070    3.0464    3.6680 C.ar      1 <0>         0.1876
     17 C16        -0.1770    4.1765    2.9407 C.ar      1 <0>        -0.2742
     18 C17        -0.8188    4.4536    1.7491 C.ar      1 <0>        -0.0134
     19 C18        -1.2399    3.1645    0.0309 C.ar      1 <0>         0.2648
     20 C19        -2.6290    3.6570    0.0467 C.2       1 <0>         0.2657
     21 O2         -2.9799    4.8174    0.0566 O.2       1 <0>        -0.4253
     22 H1         -8.7747    2.4902   -5.3499 H         1 <0>         0.1251
     23 H2         -9.8159    2.5390   -3.1243 H         1 <0>         0.1250
     24 H3         -8.4511    2.5371   -1.1070 H         1 <0>         0.1283
     25 H4         -6.2046    2.5030   -0.0554 H         1 <0>         0.1301
     26 H5         -2.7405    2.4083   -2.5254 H         1 <0>         0.1287
     27 H6         -4.1056    2.4023   -4.5426 H         1 <0>         0.1361
     28 H7         -6.3519    2.4363   -5.5942 H         1 <0>         0.1297
     29 H8         -2.6860    1.9562   -0.1469 H         1 <0>         0.0909
     30 H9         -1.7337    1.3010    3.7851 H         1 <0>         0.1217
     31 H10         0.0012    2.8396    4.5983 H         1 <0>         0.1460
     32 H11         0.5868    4.8464    3.3070 H         1 <0>         0.1366
     33 H12        -0.5555    5.3379    1.1877 H         1 <0>         0.0926
@<TRIPOS>BOND
     1    1   10 ar
     2    1    2 ar
     3    1   22 1
     4    2    3 ar
     5    2   23 1
     6    3    4 ar
     7    3   24 1
     8    4    9 ar
     9    4    5 ar
    10    5    6 ar
    11    5   25 1
    12    6    7 ar
    13    6   11 1
    14    7    8 ar
    15    7   26 1
    16    8    9 ar
    17    8   27 1
    18    9   10 ar
    19   10   28 1
    20   11   29 1
    21   11   20 1
    22   11   12 1
    23   12   14 1
    24   12   13 2
    25   14   19 ar
    26   14   15 ar
    27   15   16 ar
    28   15   30 1
    29   16   17 ar
    30   16   31 1
    31   17   18 ar
    32   17   32 1
    33   18   19 ar
    34   18   33 1
    35   19   20 1
    36   20   21 2
@<TRIPOS>MOLECULE
ZINC00000381
   35    35     0     0     0
SMALL
USER_CHARGES

@<TRIPOS>ATOM
      1 C1         -0.0187    1.5258    0.0104 C.3       1 <0>        -0.1453
      2 C2          0.0021   -0.0041    0.0020 C.3       1 <0>        -0.0539
      3 H1          0.5293   -0.3651    0.8851 H         1 <0>         0.1099
      4 C3         -1.4117   -0.5257    0.0127 C.ar      1 <0>        -0.0811
      5 C4         -2.2755   -0.2024   -1.0170 C.ar      1 <0>        -0.0796
      6 C5         -3.5724   -0.6809   -1.0072 C.ar      1 <0>        -0.1190
      7 C6         -4.0053   -1.4830    0.0321 C.ar      1 <0>        -0.0721
      8 C7         -3.1413   -1.8070    1.0613 C.ar      1 <0>        -0.1183
      9 C8         -1.8431   -1.3321    1.0493 C.ar      1 <0>        -0.1061
     10 C9         -5.4194   -2.0038    0.0433 C.3       1 <0>        -0.0783
     11 C10        -5.4724   -3.3512   -0.6796 C.3       1 <0>        -0.0917
     12 C11        -4.6553   -4.3818    0.1022 C.3       1 <0>        -0.1514
     13 C12        -6.9253   -3.8205   -0.7778 C.3       1 <0>        -0.1483
     14 C13         0.7074   -0.4901   -1.2379 C.2       1 <0>         0.5263
     15 O1          0.1200   -1.1910   -2.0344 O.2       1 <0>        -0.5062
     16 N1          1.9912   -0.1458   -1.4616 N.am      1 <0>        -0.5980
     17 O2          2.6539   -0.6025   -2.6266 O.3       1 <0>        -0.3187
     18 H2          1.0039    1.9031    0.0027 H         1 <0>         0.0637
     19 H3         -0.5459    1.8868   -0.8726 H         1 <0>         0.0669
     20 H4         -0.5289    1.8773    0.9072 H         1 <0>         0.0769
     21 H5         -1.9373    0.4243   -1.8289 H         1 <0>         0.1181
     22 H6         -4.2475   -0.4277   -1.8113 H         1 <0>         0.1211
     23 H7         -3.4796   -2.4334    1.8734 H         1 <0>         0.1222
     24 H8         -1.1669   -1.5883    1.8515 H         1 <0>         0.1214
     25 H9         -5.7517   -2.1309    1.0736 H         1 <0>         0.0723
     26 H10        -6.0723   -1.2935   -0.4640 H         1 <0>         0.0721
     27 H11        -5.0572   -3.2426   -1.6815 H         1 <0>         0.0710
     28 H12        -5.0705   -4.4905    1.1041 H         1 <0>         0.0534
     29 H13        -4.6930   -5.3418   -0.4128 H         1 <0>         0.0531
     30 H14        -3.6202   -4.0475    0.1721 H         1 <0>         0.0596
     31 H15        -7.5075   -3.0863   -1.3347 H         1 <0>         0.0545
     32 H16        -6.9631   -4.7805   -1.2927 H         1 <0>         0.0557
     33 H17        -7.3406   -3.9292    0.2242 H         1 <0>         0.0548
     34 H18         2.4610    0.4148   -0.8245 H         1 <0>         0.4073
     35 H19         3.5709   -0.3043   -2.6999 H         1 <0>         0.3876
@<TRIPOS>BOND
     1    1    2 1
     2    1   18 1
     3    1   19 1
     4    1   20 1
     5    2    3 1
     6    2    4 1
     7    2   14 1
     8    4    9 ar
     9    4    5 ar
    10    5    6 ar
    11    5   21 1
    12    6    7 ar
    13    6   22 1
    14    7    8 ar
    15    7   10 1
    16    8    9 ar
    17    8   23 1
    18    9   24 1
    19   10   11 1
    20   10   25 1
    21   10   26 1
    22   11   12 1
    23   11   13 1
    24   11   27 1
    25   12   28 1
    26   12   29 1
    27   12   30 1
    28   13   31 1
    29   13   32 1
    30   13   33 1
    31   14   15 2
    32   14   16 am
    33   16   17 1
    34   16   34 1
    35   17   35 1
@<TRIPOS>MOLECULE
ZINC05284667
   35    35     0     0     0
SMALL
USER_CHARGES

@<TRIPOS>ATOM
      1 C1         -0.0187    1.5258    0.0104 C.3       1 <0>        -0.1453
      2 C2          0.0021   -0.0041    0.0020 C.3       1 <0>        -0.0538
      3 H1          0.5293   -0.3651    0.8851 H         1 <0>         0.1100
      4 C3          0.7074   -0.4901   -1.2379 C.ar      1 <0>        -0.0807
      5 C4          0.2220   -0.1511   -2.4870 C.ar      1 <0>        -0.0801
      6 C5          0.8690   -0.5969   -3.6243 C.ar      1 <0>        -0.1187
      7 C6          2.0018   -1.3813   -3.5125 C.ar      1 <0>        -0.0720
      8 C7          2.4878   -1.7195   -2.2634 C.ar      1 <0>        -0.1180
      9 C8          1.8432   -1.2701   -1.1261 C.ar      1 <0>        -0.1063
     10 C9          2.7066   -1.8681   -4.7524 C.3       1 <0>        -0.0793
     11 C10         3.7662   -0.8469   -5.1709 C.3       1 <0>        -0.0905
     12 C11         4.8503   -0.7664   -4.0943 C.3       1 <0>        -0.1512
     13 C12         4.3953   -1.2790   -6.4969 C.3       1 <0>        -0.1490
     14 C13        -1.4117   -0.5257    0.0127 C.2       1 <0>         0.5263
     15 O1         -1.8076   -1.2234   -0.8969 O.2       1 <0>        -0.5064
     16 N1         -2.2363   -0.2169    1.0331 N.am      1 <0>        -0.5979
     17 O2         -3.5647   -0.7070    1.0432 O.3       1 <0>        -0.3187
     18 H2          1.0039    1.9031    0.0027 H         1 <0>         0.0769
     19 H3         -0.5459    1.8868   -0.8726 H         1 <0>         0.0669
     20 H4         -0.5289    1.8773    0.9072 H         1 <0>         0.0637
     21 H5         -0.6631    0.4617   -2.5743 H         1 <0>         0.1180
     22 H6          0.4893   -0.3327   -4.6002 H         1 <0>         0.1211
     23 H7          3.3726   -2.3325   -2.1760 H         1 <0>         0.1222
     24 H8          2.2251   -1.5312   -0.1501 H         1 <0>         0.1214
     25 H9          3.1858   -2.8251   -4.5458 H         1 <0>         0.0725
     26 H10         1.9822   -1.9908   -5.5576 H         1 <0>         0.0724
     27 H11         3.3005    0.1313   -5.2914 H         1 <0>         0.0703
     28 H12         5.3160   -1.7445   -3.9738 H         1 <0>         0.0537
     29 H13         5.6052   -0.0389   -4.3925 H         1 <0>         0.0529
     30 H14         4.4021   -0.4585   -3.1496 H         1 <0>         0.0593
     31 H15         3.6230   -1.3363   -7.2639 H         1 <0>         0.0547
     32 H16         5.1502   -0.5515   -6.7951 H         1 <0>         0.0556
     33 H17         4.8610   -2.2571   -6.3764 H         1 <0>         0.0550
     34 H18        -1.9197    0.3412    1.7606 H         1 <0>         0.4073
     35 H19        -4.0792   -0.4328    1.8147 H         1 <0>         0.3877
@<TRIPOS>BOND
     1    1    2 1
     2    1   18 1
     3    1   19 1
     4    1   20 1
     5    2    3 1
     6    2    4 1
     7    2   14 1
     8    4    9 ar
     9    4    5 ar
    10    5    6 ar
    11    5   21 1
    12    6    7 ar
    13    6   22 1
    14    7    8 ar
    15    7   10 1
    16    8    9 ar
    17    8   23 1
    18    9   24 1
    19   10   11 1
    20   10   25 1
    21   10   26 1
    22   11   12 1
    23   11   13 1
    24   11   27 1
    25   12   28 1
    26   12   29 1
    27   12   30 1
    28   13   31 1
    29   13   32 1
    30   13   33 1
    31   14   15 2
    32   14   16 am
    33   16   17 1
    34   16   34 1
    35   17   35 1
@<TRIPOS>MOLECULE
ZINC17042869
   45    46     0     0     0
SMALL
USER_CHARGES
(5Z)-5-[(3,5-ditert-butyl-4-hydroxy-phenyl)methylene]-2-thioxo-thiazolidin-4-one
@<TRIPOS>ATOM
      1 C1          4.2258   -1.0731   -0.1978 C.3       1 <0>        -0.1486
      2 C2          3.3249   -2.2226    0.2582 C.3       1 <0>        -0.0115
      3 C3          3.8243   -2.7601    1.6008 C.3       1 <0>        -0.1404
      4 C4          3.3597   -3.3421   -0.7841 C.3       1 <0>        -0.1406
      5 C5          1.9115   -1.7227    0.4116 C.ar      1 <0>        -0.1190
      6 C6          1.6166   -0.4043    0.1472 C.ar      1 <0>        -0.0622
      7 C7          0.3028    0.0589    0.2906 C.ar      1 <0>        -0.1095
      8 C8         -0.7029   -0.8216    0.7081 C.ar      1 <0>        -0.0667
      9 C9         -0.3977   -2.1394    0.9641 C.ar      1 <0>        -0.1645
     10 C10         0.9081   -2.5937    0.8201 C.ar      1 <0>         0.1816
     11 O1          1.2045   -3.8931    1.0790 O.3       1 <0>        -0.5082
     12 C11        -1.4801   -3.0896    1.4074 C.3       1 <0>        -0.0279
     13 C12        -2.8135   -2.3433    1.4855 C.3       1 <0>        -0.1467
     14 C13        -1.5957   -4.2363    0.4011 C.3       1 <0>        -0.1524
     15 C14        -1.1301   -3.6541    2.7858 C.3       1 <0>        -0.1522
     16 C15        -0.0178    1.4642    0.0101 C.2       1 <0>         0.0078
     17 C16        -1.3123    1.8712   -0.0240 C.2       1 <0>        -0.2107
     18 C17        -1.8678    3.2365   -0.1128 C.2       1 <0>         0.5287
     19 O2         -1.1487    4.2169   -0.1687 O.3       1 <0>        -0.5050
     20 N1         -3.1860    3.3401   -0.1281 N.2       1 <0>        -0.6507
     21 C18        -3.9791    2.2512   -0.0651 C.2       1 <0>         0.3756
     22 S1         -5.6896    2.1799   -0.0723 S.2       1 <0>        -0.5762
     23 S2         -2.8134    0.9013    0.0185 S.3       1 <0>        -0.1410
     24 H1          3.8668   -0.6866   -1.1631 H         1 <0>         0.0587
     25 H2          5.2574   -1.4380   -0.3097 H         1 <0>         0.0560
     26 H3          4.2008   -0.2682    0.5516 H         1 <0>         0.0586
     27 H4          3.1766   -3.5865    1.9287 H         1 <0>         0.0708
     28 H5          3.7994   -1.9552    2.3501 H         1 <0>         0.0497
     29 H6          4.8560   -3.1250    1.4888 H         1 <0>         0.0507
     30 H7          2.7120   -4.1685   -0.4563 H         1 <0>         0.0708
     31 H8          4.3914   -3.7070   -0.8960 H         1 <0>         0.0506
     32 H9          3.0007   -2.9556   -1.7494 H         1 <0>         0.0500
     33 H10         2.3970    0.2717   -0.1698 H         1 <0>         0.1343
     34 H11        -1.7169   -0.4686    0.8246 H         1 <0>         0.1558
     35 H12         0.4121   -4.5841    1.4024 H         1 <0>         0.4189
     36 H13        -3.6035   -3.0370    1.8091 H         1 <0>         0.0594
     37 H14        -3.0651   -1.9375    0.4945 H         1 <0>         0.0689
     38 H15        -2.7304   -1.5189    2.2090 H         1 <0>         0.0634
     39 H16        -2.3858   -4.9299    0.7247 H         1 <0>         0.0658
     40 H17        -0.6371   -4.7729    0.3450 H         1 <0>         0.0561
     41 H18        -1.8473   -3.8305   -0.5899 H         1 <0>         0.0666
     42 H19        -1.9202   -4.3477    3.1094 H         1 <0>         0.0658
     43 H20        -1.0470   -2.8297    3.5093 H         1 <0>         0.0650
     44 H21        -0.1715   -4.1907    2.7296 H         1 <0>         0.0563
     45 H22         0.7910    2.1871   -0.1724 H         1 <0>         0.1482
@<TRIPOS>BOND
     1    1    2 1
     2    1   24 1
     3    1   25 1
     4    1   26 1
     5    2    3 1
     6    2    4 1
     7    2    5 1
     8    3   27 1
     9    3   28 1
    10    3   29 1
    11    4   30 1
    12    4   31 1
    13    4   32 1
    14    5   10 ar
    15    5    6 ar
    16    6    7 ar
    17    6   33 1
    18    7    8 ar
    19    7   16 1
    20    8    9 ar
    21    8   34 1
    22    9   10 ar
    23    9   12 1
    24   10   11 1
    25   11   35 1
    26   12   13 1
    27   12   14 1
    28   12   15 1
    29   13   36 1
    30   13   37 1
    31   13   38 1
    32   14   39 1
    33   14   40 1
    34   14   41 1
    35   15   42 1
    36   15   43 1
    37   15   44 1
    38   16   17 2
    39   16   45 1
    40   17   23 1
    41   17   18 1
    42   18   19 1
    43   18   20 2
    44   20   21 1
    45   21   22 2
    46   21   23 1
@<TRIPOS>MOLECULE
ZINC00608008
   43    45     0     0     0
SMALL
USER_CHARGES
2-[1-(4-chlorobenzoyl)-5-methoxy-2-methyl-indol-3-yl]ethanehydroxamic acid
@<TRIPOS>ATOM
      1 C1          1.7006   -0.5924   -2.5275 C.3       1 <0>        -0.1046
      2 C2          2.1699   -0.7436   -1.1035 C.2       1 <0>         0.1234
      3 C3          1.4276   -0.4881   -0.0172 C.2       1 <0>        -0.1461
      4 C4          2.2636   -0.7708    1.1547 C.ar      1 <0>        -0.0352
      5 C5          2.0527   -0.7001    2.5325 C.ar      1 <0>        -0.1108
      6 C6          3.0730   -1.0449    3.3978 C.ar      1 <0>         0.1133
      7 C7          4.3044   -1.4605    2.8995 C.ar      1 <0>        -0.1750
      8 C8          4.5223   -1.5336    1.5409 C.ar      1 <0>        -0.0824
      9 C9          3.5081   -1.1908    0.6552 C.ar      1 <0>         0.0765
     10 N1          3.4230   -1.1615   -0.7260 N.am      1 <0>        -0.5041
     11 C10         4.4170   -1.4968   -1.5722 C.2       1 <0>         0.6025
     12 O1          4.5835   -2.6596   -1.8836 O.2       1 <0>        -0.4276
     13 C11         5.3036   -0.4513   -2.1209 C.ar      1 <0>        -0.1664
     14 C12         5.1794    0.8712   -1.6888 C.ar      1 <0>        -0.0421
     15 C13         6.0135    1.8420   -2.2014 C.ar      1 <0>        -0.1202
     16 C14         6.9662    1.5100   -3.1507 C.ar      1 <0>         0.0042
     17 C15         7.0908    0.2012   -3.5871 C.ar      1 <0>        -0.1235
     18 C16         6.2662   -0.7796   -3.0783 C.ar      1 <0>        -0.0380
     19 Cl1         8.0086    2.7392   -3.7958 Cl        1 <0>        -0.0521
     20 O2          2.8735   -0.9781    4.7412 O.3       1 <0>        -0.3165
     21 C17         3.9701   -1.3487    5.5791 C.3       1 <0>         0.0269
     22 C18        -0.0004   -0.0067   -0.0023 C.3       1 <0>        -0.0506
     23 C19        -0.0225    1.5001    0.0037 C.2       1 <0>         0.5224
     24 O3          1.0187    2.1219   -0.0034 O.2       1 <0>        -0.5061
     25 N2         -1.1995    2.1567    0.0113 N.am      1 <0>        -0.6009
     26 O4         -1.2203    3.5726    0.0169 O.3       1 <0>        -0.3197
     27 H1          1.9156    0.4178   -2.8757 H         1 <0>         0.0876
     28 H2          2.2198   -1.3128   -3.1597 H         1 <0>         0.0705
     29 H3          0.6268   -0.7730   -2.5773 H         1 <0>         0.0926
     30 H4          1.0977   -0.3774    2.9200 H         1 <0>         0.1331
     31 H5          5.0960   -1.7284    3.5837 H         1 <0>         0.1359
     32 H6          5.4816   -1.8569    1.1645 H         1 <0>         0.1230
     33 H7          4.4343    1.1319   -0.9518 H         1 <0>         0.1447
     34 H8          5.9214    2.8641   -1.8649 H         1 <0>         0.1455
     35 H9          7.8357   -0.0514   -4.3272 H         1 <0>         0.1464
     36 H10         6.3645   -1.7997   -3.4190 H         1 <0>         0.1477
     37 H11         4.2498   -2.3824    5.3756 H         1 <0>         0.0554
     38 H12         4.8192   -0.6959    5.3763 H         1 <0>         0.0554
     39 H13         3.6779   -1.2504    6.6246 H         1 <0>         0.1006
     40 H14        -0.5007   -0.3810    0.8908 H         1 <0>         0.1111
     41 H15        -0.5169   -0.3742   -0.8891 H         1 <0>         0.1085
     42 H16        -2.0323    1.6594    0.0129 H         1 <0>         0.4075
     43 H17        -2.1094    3.9528    0.0222 H         1 <0>         0.3870
@<TRIPOS>BOND
     1    1    2 1
     2    1   27 1
     3    1   28 1
     4    1   29 1
     5    2   10 1
     6    2    3 2
     7    3    4 1
     8    3   22 1
     9    4    9 ar
    10    4    5 ar
    11    5    6 ar
    12    5   30 1
    13    6    7 ar
    14    6   20 1
    15    7    8 ar
    16    7   31 1
    17    8    9 ar
    18    8   32 1
    19    9   10 1
    20   10   11 am
    21   11   12 2
    22   11   13 1
    23   13   18 ar
    24   13   14 ar
    25   14   15 ar
    26   14   33 1
    27   15   16 ar
    28   15   34 1
    29   16   17 ar
    30   16   19 1
    31   17   18 ar
    32   17   35 1
    33   18   36 1
    34   20   21 1
    35   21   37 1
    36   21   38 1
    37   21   39 1
    38   22   23 1
    39   22   40 1
    40   22   41 1
    41   23   24 2
    42   23   25 am
    43   25   26 1
    44   25   42 1
    45   26   43 1
@<TRIPOS>MOLECULE
ZINC00003709
   25    26     0     0     0
SMALL
USER_CHARGES
1-phenylhexahydropyridazin-3-one
@<TRIPOS>ATOM
      1 C1          1.1759    1.7827   -0.0005 C.ar      1 <0>        -0.1717
      2 C2          1.1606    3.1647   -0.0471 C.ar      1 <0>        -0.0675
      3 C3         -0.0414    3.8445   -0.0273 C.ar      1 <0>        -0.1954
      4 C4         -1.2362    3.1382    0.0293 C.ar      1 <0>         0.2153
      5 C5         -1.2171    1.7500    0.0761 C.ar      1 <0>        -0.1878
      6 C6         -0.0115    1.0766    0.0608 C.ar      1 <0>        -0.0678
      7 N1         -2.4538    3.8224    0.0442 N.pl3     1 <0>        -0.4422
      8 C7         -3.7251    3.0918   -0.0640 C.3       1 <0>         0.1256
      9 C8         -4.6225    3.8459   -1.0481 C.3       1 <0>        -0.1426
     10 C9         -4.8928    5.2478   -0.4985 C.3       1 <0>        -0.1372
     11 C10        -3.6044    5.9126   -0.1050 C.2       1 <0>         0.5192
     12 O1         -3.5741    7.1221   -0.0203 O.2       1 <0>        -0.5416
     13 N2         -2.4868    5.2196    0.1567 N.am      1 <0>        -0.5101
     14 H1          2.1174    1.2536   -0.0116 H         1 <0>         0.1222
     15 H2          2.0898    3.7131   -0.0946 H         1 <0>         0.1246
     16 H3         -0.0525    4.9240   -0.0593 H         1 <0>         0.1168
     17 H4         -2.1441    1.1979    0.1247 H         1 <0>         0.1270
     18 H5          0.0040   -0.0027    0.0971 H         1 <0>         0.1266
     19 H6         -3.5407    2.0826   -0.4321 H         1 <0>         0.1058
     20 H7         -4.2091    3.0469    0.9116 H         1 <0>         0.0734
     21 H8         -5.5653    3.3120   -1.1670 H         1 <0>         0.0969
     22 H9         -4.1194    3.9221   -2.0121 H         1 <0>         0.0788
     23 H10        -5.5418    5.1740    0.3741 H         1 <0>         0.1057
     24 H11        -5.3882    5.8457   -1.2635 H         1 <0>         0.1088
     25 H12        -1.6859    5.6940    0.4293 H         1 <0>         0.4173
@<TRIPOS>BOND
     1    1    6 ar
     2    1    2 ar
     3    1   14 1
     4    2    3 ar
     5    2   15 1
     6    3    4 ar
     7    3   16 1
     8    4    5 ar
     9    4    7 1
    10    5    6 ar
    11    5   17 1
    12    6   18 1
    13    7   13 1
    14    7    8 1
    15    8    9 1
    16    8   19 1
    17    8   20 1
    18    9   10 1
    19    9   21 1
    20    9   22 1
    21   10   11 1
    22   10   23 1
    23   10   24 1
    24   11   12 2
    25   11   13 am
    26   13   25 1
@<TRIPOS>MOLECULE
ZINC00012808
   28    30     0     0     0
SMALL
USER_CHARGES
5-phenyl-2-(3-pyridyl)thiazol-4-ol
@<TRIPOS>ATOM
      1 C1          0.5938    1.2162    5.1933 C.ar      1 <0>        -0.1086
      2 C2          1.8292    1.7878    4.9441 C.ar      1 <0>        -0.1156
      3 C3          2.2505    1.9888    3.6463 C.ar      1 <0>        -0.1044
      4 C4          1.4270    1.6139    2.5822 C.ar      1 <0>        -0.0067
      5 C5          0.1789    1.0428    2.8411 C.ar      1 <0>        -0.0951
      6 C6         -0.2272    0.8424    4.1440 C.ar      1 <0>        -0.1165
      7 C7          1.8712    1.8258    1.1904 C.2       1 <0>        -0.1482
      8 C8          1.2234    1.5327   -0.0014 C.2       1 <0>         0.2512
      9 N1          1.8154    1.8176   -1.1352 N.2       1 <0>        -0.5045
     10 C9          3.0198    2.3738   -1.1693 C.2       1 <0>         0.1605
     11 S1          3.3948    2.5290    0.5717 S.3       1 <0>         0.0737
     12 C10         3.8356    2.7628   -2.3381 C.ar      1 <0>        -0.0712
     13 C11         3.3598    2.5565   -3.6390 C.ar      1 <0>        -0.0262
     14 C12         4.1625    2.9388   -4.6989 C.ar      1 <0>        -0.1698
     15 C13         5.3976    3.5072   -4.4426 C.ar      1 <0>         0.1180
     16 N2          5.8200    3.6900   -3.2064 N.ar      1 <0>        -0.4773
     17 C14         5.0911    3.3474   -2.1644 C.ar      1 <0>         0.1332
     18 O1         -0.0110    0.9628    0.0073 O.3       1 <0>        -0.4591
     19 H1          0.2690    1.0608    6.2115 H         1 <0>         0.1274
     20 H2          2.4650    2.0768    5.7679 H         1 <0>         0.1294
     21 H3          3.2151    2.4346    3.4532 H         1 <0>         0.1236
     22 H4         -0.4647    0.7547    2.0231 H         1 <0>         0.1401
     23 H5         -1.1901    0.3969    4.3457 H         1 <0>         0.1300
     24 H6          2.3914    2.1101   -3.8103 H         1 <0>         0.1483
     25 H7          3.8283    2.7954   -5.7159 H         1 <0>         0.1470
     26 H8          6.0261    3.8065   -5.2684 H         1 <0>         0.1655
     27 H9          5.4695    3.5168   -1.1672 H         1 <0>         0.1598
     28 H10         0.0021   -0.0041    0.0020 H         1 <0>         0.3951
@<TRIPOS>BOND
     1    1    6 ar
     2    1    2 ar
     3    1   19 1
     4    2    3 ar
     5    2   20 1
     6    3    4 ar
     7    3   21 1
     8    4    5 ar
     9    4    7 1
    10    5    6 ar
    11    5   22 1
    12    6   23 1
    13    7   11 1
    14    7    8 2
    15    8    9 1
    16    8   18 1
    17    9   10 2
    18   10   11 1
    19   10   12 1
    20   12   17 ar
    21   12   13 ar
    22   13   14 ar
    23   13   24 1
    24   14   15 ar
    25   14   25 1
    26   15   16 ar
    27   15   26 1
    28   16   17 ar
    29   17   27 1
    30   18   28 1
@<TRIPOS>MOLECULE
ZINC13822602
   28    30     0     0     0
SMALL
USER_CHARGES
5-phenyl-2-(4-pyridyl)thiazol-4-ol
@<TRIPOS>ATOM
      1 C1          3.9878    5.6370   -0.0064 C.ar      1 <0>        -0.1071
      2 C2          2.6050    5.6846    0.0075 C.ar      1 <0>        -0.1158
      3 C3          1.8714    4.5165    0.0081 C.ar      1 <0>        -0.1034
      4 C4          2.5277    3.2837   -0.0048 C.ar      1 <0>        -0.0090
      5 C5          3.9238    3.2431   -0.0130 C.ar      1 <0>        -0.0936
      6 C6          4.6446    4.4191   -0.0193 C.ar      1 <0>        -0.1165
      7 C7          1.7493    2.0291   -0.0037 C.2       1 <0>        -0.1429
      8 C8          2.1892    0.7118   -0.0150 C.2       1 <0>         0.2488
      9 N1          1.3053   -0.2543   -0.0118 N.2       1 <0>        -0.4957
     10 C9          0.0021   -0.0041    0.0020 C.2       1 <0>         0.1458
     11 S1         -0.0222    1.7834    0.0118 S.3       1 <0>         0.0818
     12 C10        -1.1304   -0.9528    0.0081 C.ar      1 <0>         0.0303
     13 C11        -2.4535   -0.4943    0.0296 C.ar      1 <0>        -0.1490
     14 C12        -3.4800   -1.4153    0.0293 C.ar      1 <0>         0.1079
     15 N2         -3.2285   -2.7106    0.0199 N.ar      1 <0>        -0.4734
     16 C13        -1.9974   -3.1852    0.0047 C.ar      1 <0>         0.1059
     17 C14        -0.9108   -2.3359   -0.0014 C.ar      1 <0>        -0.1260
     18 O1          3.5190    0.4293   -0.0297 O.3       1 <0>        -0.4583
     19 H1          4.5572    6.5547   -0.0076 H         1 <0>         0.1279
     20 H2          2.0988    6.6386    0.0174 H         1 <0>         0.1298
     21 H3          0.7922    4.5551    0.0182 H         1 <0>         0.1236
     22 H4          4.4376    2.2932   -0.0189 H         1 <0>         0.1405
     23 H5          5.7241    4.3892   -0.0297 H         1 <0>         0.1306
     24 H6         -2.6667    0.5644    0.0424 H         1 <0>         0.1404
     25 H7         -4.5038   -1.0716    0.0413 H         1 <0>         0.1665
     26 H8         -1.8385   -4.2534   -0.0026 H         1 <0>         0.1665
     27 H9          0.0941   -2.7314   -0.0138 H         1 <0>         0.1487
     28 H10         3.8950    0.3521   -0.9173 H         1 <0>         0.3955
@<TRIPOS>BOND
     1    1    6 ar
     2    1    2 ar
     3    1   19 1
     4    2    3 ar
     5    2   20 1
     6    3    4 ar
     7    3   21 1
     8    4    5 ar
     9    4    7 1
    10    5    6 ar
    11    5   22 1
    12    6   23 1
    13    7   11 1
    14    7    8 2
    15    8    9 1
    16    8   18 1
    17    9   10 2
    18   10   11 1
    19   10   12 1
    20   12   17 ar
    21   12   13 ar
    22   13   14 ar
    23   13   24 1
    24   14   15 ar
    25   14   25 1
    26   15   16 ar
    27   16   17 ar
    28   16   26 1
    29   17   27 1
    30   18   28 1
@<TRIPOS>MOLECULE
ZINC01672534
   25    27     0     0     0
SMALL
USER_CHARGES
9,10-dihydroacridine
@<TRIPOS>ATOM
      1 C1         -2.4157    1.3367    0.0229 C.ar      1 <0>        -0.1543
      2 C2         -2.3970   -0.0463    0.0118 C.ar      1 <0>        -0.0841
      3 C3         -1.1909   -0.7178    0.0017 C.ar      1 <0>        -0.1701
      4 C4          0.0021   -0.0041    0.0020 C.ar      1 <0>         0.1862
      5 C5         -0.0167    1.3825    0.0096 C.ar      1 <0>        -0.1336
      6 C6         -1.2315    2.0477    0.0190 C.ar      1 <0>        -0.0818
      7 C7          1.2559    2.1806    0.0018 C.3       1 <0>        -0.0262
      8 C8          2.4410    1.3486    0.4013 C.ar      1 <0>        -0.1336
      9 C9          3.6094    1.9810    0.7928 C.ar      1 <0>        -0.0817
     10 C10         4.7153    1.2384    1.1583 C.ar      1 <0>        -0.1543
     11 C11         4.6640   -0.1436    1.1353 C.ar      1 <0>        -0.0841
     12 C12         3.5030   -0.7825    0.7487 C.ar      1 <0>        -0.1701
     13 C13         2.3882   -0.0370    0.3823 C.ar      1 <0>         0.1863
     14 N1          1.2171   -0.6921   -0.0038 N.pl3     1 <0>        -0.6751
     15 H1         -3.3592    1.8622    0.0324 H         1 <0>         0.1237
     16 H2         -3.3243   -0.5998    0.0113 H         1 <0>         0.1261
     17 H3         -1.1741   -1.7977   -0.0067 H         1 <0>         0.1242
     18 H4         -1.2529    3.1275    0.0284 H         1 <0>         0.1257
     19 H5          1.4210    2.5753   -1.0008 H         1 <0>         0.0827
     20 H6          1.1565    3.0137    0.6976 H         1 <0>         0.0828
     21 H7          3.6559    3.0598    0.8127 H         1 <0>         0.1257
     22 H8          5.6229    1.7385    1.4625 H         1 <0>         0.1237
     23 H9          5.5305   -0.7218    1.4200 H         1 <0>         0.1261
     24 H10         3.4604   -1.8615    0.7316 H         1 <0>         0.1242
     25 H11         1.2476   -1.6227   -0.2757 H         1 <0>         0.4115
@<TRIPOS>BOND
     1    1    6 ar
     2    1    2 ar
     3    1   15 1
     4    2    3 ar
     5    2   16 1
     6    3    4 ar
     7    3   17 1
     8    4   14 1
     9    4    5 ar
    10    5    6 ar
    11    5    7 1
    12    6   18 1
    13    7    8 1
    14    7   19 1
    15    7   20 1
    16    8   13 ar
    17    8    9 ar
    18    9   10 ar
    19    9   21 1
    20   10   11 ar
    21   10   22 1
    22   11   12 ar
    23   11   23 1
    24   12   13 ar
    25   12   24 1
    26   13   14 1
    27   14   25 1
