@<TRIPOS>MOLECULE
ZINC00005569
   38    40     0     0     0
SMALL
USER_CHARGES
5,7-dimethyl-2-methylamino-4-(3-pyridylmethyl)benzothiazol-6-ol
@<TRIPOS>ATOM
      1 C1         -4.2897    2.0226   -1.0300 C.3       1 <0>        -0.1215
      2 C2         -3.8476    3.1827   -1.8843 C.ar      1 <0>        -0.0773
      3 C3         -3.1533    4.2141   -1.3071 C.ar      1 <0>        -0.0414
      4 C4         -2.7275    5.3202   -2.0769 C.ar      1 <0>         0.1370
      5 C5         -3.0491    5.2864   -3.4526 C.ar      1 <0>        -0.1569
      6 C6         -3.7442    4.2521   -4.0266 C.ar      1 <0>        -0.0419
      7 C7         -4.1525    3.1833   -3.2415 C.ar      1 <0>         0.1039
      8 O1         -4.8428    2.1491   -3.7921 O.3       1 <0>        -0.4830
      9 C8         -4.0617    4.2763   -5.4995 C.3       1 <0>        -0.1143
     10 S1         -2.3484    6.8086   -4.0432 S.3       1 <0>        -0.0075
     11 C9         -1.6878    7.3735   -2.4816 C.2       1 <0>         0.4124
     12 N1         -2.0339    6.4059   -1.6644 N.2       1 <0>        -0.5810
     13 N2         -0.9911    8.5330   -2.2048 N.pl3     1 <0>        -0.6757
     14 C10        -0.7076    9.4907   -3.2765 C.3       1 <0>         0.0868
     15 C11        -2.8458    4.1710    0.1676 C.3       1 <0>        -0.0339
     16 C12        -3.9638    4.8305    0.9333 C.ar      1 <0>        -0.1224
     17 C13        -3.9873    6.2076    1.0948 C.ar      1 <0>        -0.0622
     18 C14        -5.0328    6.7701    1.8106 C.ar      1 <0>        -0.1737
     19 C15        -6.0157    5.9466    2.3267 C.ar      1 <0>         0.0922
     20 N3         -5.9633    4.6411    2.1495 N.ar      1 <0>        -0.4839
     21 C16        -4.9812    4.0711    1.4789 C.ar      1 <0>         0.0980
     22 H1         -5.2350    2.2675   -0.5458 H         1 <0>         0.0746
     23 H2         -4.4198    1.1396   -1.6556 H         1 <0>         0.0790
     24 H3         -3.5339    1.8218   -0.2707 H         1 <0>         0.0750
     25 H4         -5.8026    2.2663   -3.7804 H         1 <0>         0.3893
     26 H5         -5.0228    4.7660   -5.6561 H         1 <0>         0.0745
     27 H6         -3.2836    4.8253   -6.0299 H         1 <0>         0.0667
     28 H7         -4.1082    3.2552   -5.8781 H         1 <0>         0.0815
     29 H8         -0.6893    8.7134   -1.3008 H         1 <0>         0.4199
     30 H9         -0.1533   10.3369   -2.8704 H         1 <0>         0.0951
     31 H10        -0.1133    9.0047   -4.0503 H         1 <0>         0.0661
     32 H11        -1.6452    9.8432   -3.7063 H         1 <0>         0.0658
     33 H12        -1.9124    4.7001    0.3597 H         1 <0>         0.0920
     34 H13        -2.7482    3.1339    0.4882 H         1 <0>         0.0889
     35 H14        -3.2077    6.8267    0.6762 H         1 <0>         0.1379
     36 H15        -5.0810    7.8388    1.9594 H         1 <0>         0.1323
     37 H16        -6.8359    6.3775    2.8817 H         1 <0>         0.1542
     38 H17        -4.9721    2.9983    1.3543 H         1 <0>         0.1537
@<TRIPOS>BOND
     1    1    2 1
     2    1   22 1
     3    1   23 1
     4    1   24 1
     5    2    7 ar
     6    2    3 ar
     7    3    4 ar
     8    3   15 1
     9    4   12 1
    10    4    5 ar
    11    5    6 ar
    12    5   10 1
    13    6    7 ar
    14    6    9 1
    15    7    8 1
    16    8   25 1
    17    9   26 1
    18    9   27 1
    19    9   28 1
    20   10   11 1
    21   11   12 2
    22   11   13 1
    23   13   14 1
    24   13   29 1
    25   14   30 1
    26   14   31 1
    27   14   32 1
    28   15   16 1
    29   15   33 1
    30   15   34 1
    31   16   21 ar
    32   16   17 ar
    33   17   18 ar
    34   17   35 1
    35   18   19 ar
    36   18   36 1
    37   19   20 ar
    38   19   37 1
    39   20   21 ar
    40   21   38 1
@<TRIPOS>MOLECULE
ZINC00899824
   47    48     0     0     0
SMALL
USER_CHARGES

@<TRIPOS>ATOM
      1 C1         -0.0173    1.4248    0.0099 C.3       1 <0>         0.0223
      2 O1          0.0021   -0.0041    0.0020 O.3       1 <0>        -0.3062
      3 C2          0.6062   -0.6075   -1.0564 C.ar      1 <0>         0.1006
      4 C3          1.1701    0.1578   -2.0573 C.ar      1 <0>        -0.1693
      5 C4          1.7915   -0.4674   -3.1460 C.ar      1 <0>        -0.0548
      6 C5          1.8369   -1.8658   -3.2124 C.ar      1 <0>        -0.1153
      7 C6          1.2717   -2.6208   -2.2092 C.ar      1 <0>        -0.1104
      8 C7          0.6608   -1.9995   -1.1274 C.ar      1 <0>         0.0921
      9 O2          0.1105   -2.7497   -0.1383 O.3       1 <0>        -0.4848
     10 C8          2.3926    0.3403   -4.2140 C.2       1 <0>        -0.0031
     11 C9          2.9934   -0.2669   -5.2666 C.2       1 <0>        -0.2426
     12 C10         3.5700    0.5078   -6.2910 C.2       1 <0>         0.3746
     13 C11         4.2380   -0.1673   -7.4611 C.3       1 <0>        -0.2163
     14 C12         4.7690    0.8780   -8.4080 C.2       1 <0>         0.3746
     15 O3          4.6195    2.0570   -8.1569 O.2       1 <0>        -0.4254
     16 C13         5.4382    0.4879   -9.5835 C.2       1 <0>        -0.2426
     17 C14         5.9159    1.4282  -10.4353 C.2       1 <0>        -0.0031
     18 C15         6.6137    1.0215  -11.6609 C.ar      1 <0>        -0.0549
     19 C16         6.7822   -0.3375  -11.9554 C.ar      1 <0>        -0.1153
     20 C17         7.4373   -0.7158  -13.1059 C.ar      1 <0>        -0.1104
     21 C18         7.9326    0.2469  -13.9763 C.ar      1 <0>         0.0920
     22 C19         7.7694    1.6023  -13.6901 C.ar      1 <0>         0.1006
     23 C20         7.1082    1.9913  -12.5425 C.ar      1 <0>        -0.1693
     24 O4          8.2569    2.5409  -14.5450 O.3       1 <0>        -0.3062
     25 C21         8.0541    3.9101  -14.1894 C.3       1 <0>         0.0223
     26 O5          8.5781   -0.1327  -15.1090 O.3       1 <0>        -0.4848
     27 O6          3.5292    1.7203   -6.2316 O.2       1 <0>        -0.4254
     28 H1          1.0053    1.8021    0.0021 H         1 <0>         0.0579
     29 H2         -0.5445    1.7859   -0.8732 H         1 <0>         0.0575
     30 H3         -0.5275    1.7763    0.9067 H         1 <0>         0.1046
     31 H4          1.1319    1.2357   -2.0014 H         1 <0>         0.1391
     32 H5          2.3148   -2.3516   -4.0503 H         1 <0>         0.1371
     33 H6          1.3073   -3.6990   -2.2614 H         1 <0>         0.1423
     34 H7         -0.8182   -2.9751   -0.2859 H         1 <0>         0.3908
     35 H8          2.3563    1.4184   -4.1613 H         1 <0>         0.1367
     36 H9          3.0298   -1.3450   -5.3193 H         1 <0>         0.1356
     37 H10         5.0615   -0.7848   -7.1027 H         1 <0>         0.1288
     38 H11         5.5711   -0.5604   -9.8068 H         1 <0>         0.1356
     39 H12         5.7830    2.4765  -10.2120 H         1 <0>         0.1368
     40 H13         6.3989   -1.0882  -11.2802 H         1 <0>         0.1371
     41 H14         7.5667   -1.7639  -13.3320 H         1 <0>         0.1423
     42 H15         6.9767    3.0405  -12.3226 H         1 <0>         0.1391
     43 H16         6.9855    4.1110  -14.1123 H         1 <0>         0.0575
     44 H17         8.5317    4.1110  -13.2305 H         1 <0>         0.0580
     45 H18         8.4902    4.5526  -14.9543 H         1 <0>         0.1045
     46 H19         7.9975   -0.2431  -15.8744 H         1 <0>         0.3910
     47 H20         3.5134   -0.7940   -7.9810 H         1 <0>         0.1286
@<TRIPOS>BOND
     1    1    2 1
     2    1   28 1
     3    1   29 1
     4    1   30 1
     5    2    3 1
     6    3    8 ar
     7    3    4 ar
     8    4    5 ar
     9    4   31 1
    10    5    6 ar
    11    5   10 1
    12    6    7 ar
    13    6   32 1
    14    7    8 ar
    15    7   33 1
    16    8    9 1
    17    9   34 1
    18   10   11 2
    19   10   35 1
    20   11   12 1
    21   11   36 1
    22   12   13 1
    23   12   27 2
    24   13   14 1
    25   13   37 1
    26   13   47 1
    27   14   15 2
    28   14   16 1
    29   16   17 2
    30   16   38 1
    31   17   18 1
    32   17   39 1
    33   18   23 ar
    34   18   19 ar
    35   19   20 ar
    36   19   40 1
    37   20   21 ar
    38   20   41 1
    39   21   22 ar
    40   21   26 1
    41   22   23 ar
    42   22   24 1
    43   23   42 1
    44   24   25 1
    45   25   43 1
    46   25   44 1
    47   25   45 1
    48   26   46 1
@<TRIPOS>MOLECULE
ZINC00000850
   28    29     0     0     0
SMALL
USER_CHARGES

@<TRIPOS>ATOM
      1 C1          0.0000    1.4808   -0.0563 C.3       1 <0>        -0.1695
      2 C2          0.0160   -0.0482   -0.0032 C.3       1 <0>         0.2729
      3 H1         -1.0078   -0.4216    0.0218 H         1 <0>         0.1203
      4 C3          0.7171   -0.5859   -1.2240 C.2       1 <0>        -0.1616
      5 C4          0.1711   -1.0748   -2.3467 C.2       1 <0>        -0.1278
      6 C5          1.0398   -1.5461   -3.4153 C.ar      1 <0>        -0.0971
      7 C6          0.6830   -2.0941   -4.6702 C.ar      1 <0>        -0.0766
      8 C7          1.6385   -2.4860   -5.5542 C.ar      1 <0>        -0.1290
      9 C8          2.9908   -2.3649   -5.2627 C.ar      1 <0>        -0.0984
     10 C9          3.3800   -1.8346   -4.0489 C.ar      1 <0>        -0.0799
     11 C10         2.4205   -1.4334   -3.1440 C.ar      1 <0>        -0.1643
     12 S1          2.4698   -0.7160   -1.5221 S.3       1 <0>         0.1509
     13 N1          0.7256   -0.4876    1.2008 N.am      1 <0>        -0.4849
     14 C11         2.0149   -0.1419    1.3870 C.2       1 <0>         0.6945
     15 O1          2.6042    0.4908    0.5322 O.2       1 <0>        -0.5396
     16 N2          2.6509   -0.4975    2.5208 N.am      1 <0>        -0.8612
     17 O2          0.0570   -1.2757    2.1687 O.3       1 <0>        -0.3232
     18 H2          1.0237    1.8542   -0.0813 H         1 <0>         0.0856
     19 H3         -0.5280    1.8078   -0.9520 H         1 <0>         0.0811
     20 H4         -0.5071    1.8697    0.8267 H         1 <0>         0.0695
     21 H5         -0.9024   -1.1187   -2.4569 H         1 <0>         0.1335
     22 H6         -0.3600   -2.2026   -4.9285 H         1 <0>         0.1215
     23 H7          1.3390   -2.9015   -6.5050 H         1 <0>         0.1244
     24 H8          3.7326   -2.6836   -5.9800 H         1 <0>         0.1307
     25 H9          4.4285   -1.7353   -3.8098 H         1 <0>         0.1271
     26 H10         2.2051   -1.0642    3.1697 H         1 <0>         0.3945
     27 H11         3.5545   -0.1868    2.6879 H         1 <0>         0.4243
     28 H12         0.5803   -1.4510    2.9628 H         1 <0>         0.3824
@<TRIPOS>BOND
     1    1    2 1
     2    1   18 1
     3    1   19 1
     4    1   20 1
     5    2    3 1
     6    2    4 1
     7    2   13 1
     8    4   12 1
     9    4    5 2
    10    5    6 1
    11    5   21 1
    12    6   11 ar
    13    6    7 ar
    14    7    8 ar
    15    7   22 1
    16    8    9 ar
    17    8   23 1
    18    9   10 ar
    19    9   24 1
    20   10   11 ar
    21   10   25 1
    22   11   12 1
    23   13   14 am
    24   13   17 1
    25   14   15 2
    26   14   16 am
    27   16   26 1
    28   16   27 1
    29   17   28 1
@<TRIPOS>MOLECULE
ZINC00001131
   18    19     0     0     0
SMALL
USER_CHARGES

@<TRIPOS>ATOM
      1 C1         -0.0168    1.3885    0.0097 C.ar      1 <0>        -0.1593
      2 C2          1.1577    2.0864    0.0022 C.ar      1 <0>        -0.0549
      3 C3          2.3623    1.3593   -0.0132 C.ar      1 <0>        -0.0857
      4 C4          3.6079    2.0102   -0.0210 C.ar      1 <0>        -0.0139
      5 C5          4.7560    1.2770   -0.0355 C.ar      1 <0>        -0.0845
      6 C6          4.7161   -0.1159   -0.0432 C.ar      1 <0>        -0.0482
      7 C7          3.5148   -0.7876   -0.0359 C.ar      1 <0>         0.1564
      8 C8          2.3091   -0.0565   -0.0203 C.ar      1 <0>         0.1205
      9 N1          1.1266   -0.6782   -0.0118 N.ar      1 <0>        -0.4548
     10 C9          0.0021   -0.0041    0.0020 C.ar      1 <0>         0.1401
     11 O1          3.4907   -2.1465   -0.0440 O.3       1 <0>        -0.4646
     12 Cl1         6.2006   -1.0155   -0.0629 Cl        1 <0>        -0.0310
     13 Cl2         3.6833    3.7445   -0.0128 Cl        1 <0>        -0.0401
     14 H1         -0.9590    1.9162    0.0260 H         1 <0>         0.1478
     15 H2          1.1614    3.1664    0.0076 H         1 <0>         0.1491
     16 H3          5.7105    1.7824   -0.0415 H         1 <0>         0.1547
     17 H4         -0.9340   -0.5427    0.0081 H         1 <0>         0.1694
     18 H5          3.4922   -2.5452    0.8370 H         1 <0>         0.3990
@<TRIPOS>BOND
     1    1   10 ar
     2    1    2 ar
     3    1   14 1
     4    2    3 ar
     5    2   15 1
     6    3    8 ar
     7    3    4 ar
     8    4    5 ar
     9    4   13 1
    10    5    6 ar
    11    5   16 1
    12    6    7 ar
    13    6   12 1
    14    7    8 ar
    15    7   11 1
    16    8    9 ar
    17    9   10 ar
    18   10   17 1
    19   11   18 1
@<TRIPOS>MOLECULE
ZINC00001131
   17    18     0     0     0
SMALL
USER_CHARGES

@<TRIPOS>ATOM
      1 C1         -0.0168    1.3885    0.0097 C.ar      1 <0>        -0.1554
      2 C2          1.1577    2.0864    0.0022 C.ar      1 <0>        -0.1059
      3 C3          2.3623    1.3593   -0.0132 C.ar      1 <0>        -0.0242
      4 C4          3.6079    2.0102   -0.0210 C.ar      1 <0>        -0.1776
      5 C5          4.7560    1.2770   -0.0355 C.ar      1 <0>         0.0001
      6 C6          4.7161   -0.1159   -0.0432 C.ar      1 <0>        -0.2231
      7 C7          3.5148   -0.7876   -0.0359 C.ar      1 <0>         0.3209
      8 C8          2.3091   -0.0565   -0.0203 C.ar      1 <0>         0.0496
      9 N1          1.1266   -0.6782   -0.0118 N.ar      1 <0>        -0.4127
     10 C9          0.0021   -0.0041    0.0020 C.ar      1 <0>         0.0501
     11 O1          3.4907   -2.1465   -0.0440 O.3       1 <0>        -0.6317
     12 Cl1         6.2006   -1.0155   -0.0629 Cl        1 <0>        -0.0973
     13 Cl2         3.6833    3.7445   -0.0128 Cl        1 <0>        -0.1069
     14 H1         -0.9590    1.9162    0.0260 H         1 <0>         0.1230
     15 H2          1.1614    3.1664    0.0076 H         1 <0>         0.1290
     16 H3          5.7105    1.7824   -0.0415 H         1 <0>         0.1171
     17 H4         -0.9340   -0.5427    0.0081 H         1 <0>         0.1447
@<TRIPOS>BOND
     1    1   10 ar
     2    1    2 ar
     3    1   14 1
     4    2    3 ar
     5    2   15 1
     6    3    8 ar
     7    3    4 ar
     8    4    5 ar
     9    4   13 1
    10    5    6 ar
    11    5   16 1
    12    6    7 ar
    13    6   12 1
    14    7    8 ar
    15    7   11 1
    16    8    9 ar
    17    9   10 ar
    18   10   17 1
@<TRIPOS>MOLECULE
ZINC02753087
   51    53     0     0     0
SMALL
USER_CHARGES
N-(2-dimethylaminoethyl)-4-(2-naphthyloxymethyl)benzamide
@<TRIPOS>ATOM
      1 C1          5.0289    0.7425   -1.2954 C.3       1 <0>        -0.0501
      2 C2          5.9743    2.3992    0.1961 C.3       1 <0>        -0.0418
      3 C3          3.5713    2.1958   -0.0202 C.3       1 <0>        -0.0188
      4 C4          2.4220    1.1859   -0.0147 C.3       1 <0>         0.0943
      5 N1          1.1435    1.9010    0.0013 N.am      1 <0>        -0.7325
      6 C5         -0.0144    1.2113    0.0087 C.2       1 <0>         0.5710
      7 O1          0.0021   -0.0041    0.0020 O.2       1 <0>        -0.5187
      8 C6         -1.3047    1.9331    0.0187 C.ar      1 <0>        -0.1383
      9 C7         -1.3271    3.3286    0.0323 C.ar      1 <0>        -0.0877
     10 C8         -2.5345    3.9960    0.0363 C.ar      1 <0>        -0.1011
     11 C9         -3.7214    3.2849    0.0381 C.ar      1 <0>        -0.0569
     12 C10        -3.7062    1.9014    0.0304 C.ar      1 <0>        -0.0982
     13 C11        -2.5057    1.2219    0.0206 C.ar      1 <0>        -0.0549
     14 C12        -5.0366    4.0206    0.0478 C.3       1 <0>         0.0930
     15 O2         -5.4464    4.2458    1.3981 O.3       1 <0>        -0.3091
     16 C13        -6.6213    4.9025    1.5849 C.ar      1 <0>         0.1269
     17 C14        -7.3595    5.3254    0.4749 C.ar      1 <0>        -0.1937
     18 C15        -8.5416    5.9795    0.6297 C.ar      1 <0>        -0.0606
     19 C16        -9.0266    6.2469    1.9219 C.ar      1 <0>        -0.0829
     20 C17       -10.2408    6.9265    2.1181 C.ar      1 <0>        -0.0948
     21 C18       -10.6807    7.1688    3.3831 C.ar      1 <0>        -0.1251
     22 C19        -9.9439    6.7535    4.4909 C.ar      1 <0>        -0.1015
     23 C20        -8.7636    6.0932    4.3398 C.ar      1 <0>        -0.1169
     24 C21        -8.2773    5.8244    3.0485 C.ar      1 <0>        -0.0141
     25 C22        -7.0630    5.1457    2.8541 C.ar      1 <0>        -0.1496
     26 H1          5.0092    1.4420   -2.1311 H         1 <0>         0.1257
     27 H2          5.9858    0.2208   -1.2807 H         1 <0>         0.1271
     28 H3          4.2220    0.0185   -1.4085 H         1 <0>         0.1241
     29 H4          5.8547    2.8795    1.1672 H         1 <0>         0.1232
     30 H5          6.9111    1.8423    0.1791 H         1 <0>         0.1265
     31 H6          5.9888    3.1587   -0.5856 H         1 <0>         0.1247
     32 H7          3.4965    2.8264   -0.9062 H         1 <0>         0.1390
     33 H8          3.5135    2.8169    0.8737 H         1 <0>         0.1374
     34 H9          2.4967    0.5553    0.8712 H         1 <0>         0.0908
     35 H10         2.4797    0.5649   -0.9086 H         1 <0>         0.0912
     36 H11         1.1303    2.8709    0.0067 H         1 <0>         0.4079
     37 H12        -0.4013    3.8847    0.0355 H         1 <0>         0.1262
     38 H13        -2.5533    5.0758    0.0423 H         1 <0>         0.1358
     39 H14        -4.6362    1.3523    0.0319 H         1 <0>         0.1386
     40 H15        -2.4951    0.1419    0.0139 H         1 <0>         0.1425
     41 H16        -4.9215    4.9775   -0.4613 H         1 <0>         0.0771
     42 H17        -5.7904    3.4241   -0.4660 H         1 <0>         0.0780
     43 H18        -6.9877    5.1258   -0.5192 H         1 <0>         0.1297
     44 H19        -9.1034    6.2964   -0.2366 H         1 <0>         0.1335
     45 H20       -10.8222    7.2549    1.2692 H         1 <0>         0.1283
     46 H21       -11.6144    7.6910    3.5306 H         1 <0>         0.1255
     47 H22       -10.3151    6.9591    5.4841 H         1 <0>         0.1259
     48 H23        -8.2032    5.7777    5.2075 H         1 <0>         0.1287
     49 H24        -6.4818    4.8184    3.7035 H         1 <0>         0.1343
     50 N2          4.8529    1.4596   -0.0149 N.4       1 <0>        -0.3941
     51 H25         4.8418    0.7762    0.7513 H         1 <0>         0.4348
@<TRIPOS>BOND
     1    1   26 1
     2    1   27 1
     3    1   28 1
     4    1   50 1
     5    2   29 1
     6    2   30 1
     7    2   31 1
     8    2   50 1
     9    3    4 1
    10    3   32 1
    11    3   33 1
    12    3   50 1
    13    4    5 1
    14    4   34 1
    15    4   35 1
    16    5    6 am
    17    5   36 1
    18    6    7 2
    19    6    8 1
    20    8   13 ar
    21    8    9 ar
    22    9   10 ar
    23    9   37 1
    24   10   11 ar
    25   10   38 1
    26   11   12 ar
    27   11   14 1
    28   12   13 ar
    29   12   39 1
    30   13   40 1
    31   14   15 1
    32   14   41 1
    33   14   42 1
    34   15   16 1
    35   16   25 ar
    36   16   17 ar
    37   17   18 ar
    38   17   43 1
    39   18   19 ar
    40   18   44 1
    41   19   24 ar
    42   19   20 ar
    43   20   21 ar
    44   20   45 1
    45   21   22 ar
    46   21   46 1
    47   22   23 ar
    48   22   47 1
    49   23   24 ar
    50   23   48 1
    51   24   25 ar
    52   25   49 1
    53   50   51 1
@<TRIPOS>MOLECULE
ZINC36222762
   29    31     0     0     0
SMALL
USER_CHARGES

@<TRIPOS>ATOM
      1 C1         -0.0173    1.4248    0.0099 C.3       1 <0>         0.0342
      2 O1          0.0021   -0.0041    0.0020 O.3       1 <0>        -0.3481
      3 C2          0.6206   -0.6132    1.0327 C.2       1 <0>         0.5119
      4 O2          1.1295    0.0507    1.9140 O.2       1 <0>        -0.5028
      5 C3          0.6797   -2.0854    1.0911 C.ar      1 <0>        -0.1171
      6 C4          0.1005   -2.8516    0.0764 C.ar      1 <0>        -0.0560
      7 C5          0.1537   -4.2277    0.1311 C.ar      1 <0>        -0.1196
      8 C6          0.7845   -4.8618    1.1938 C.ar      1 <0>         0.1123
      9 C7          1.3671   -4.0992    2.2082 C.ar      1 <0>         0.1134
     10 C8          1.3213   -2.7211    2.1602 C.ar      1 <0>        -0.0775
     11 N1          2.0098   -4.7524    3.2737 N.pl3     1 <0>        -0.6812
     12 C9          2.2935   -6.1200    3.1261 C.ar      1 <0>         0.1286
     13 C10         3.1638   -6.7547    3.9954 C.ar      1 <0>        -0.1417
     14 C11         3.4358   -8.1021    3.8353 C.ar      1 <0>        -0.0988
     15 C12         2.8393   -8.8112    2.8098 C.ar      1 <0>        -0.1224
     16 C13         1.9685   -8.1810    1.9390 C.ar      1 <0>        -0.0977
     17 C14         1.6891   -6.8325    2.0924 C.ar      1 <0>         0.0595
     18 O3          0.8290   -6.2165    1.2415 O.3       1 <0>        -0.2412
     19 H1          1.0053    1.8021    0.0021 H         1 <0>         0.0625
     20 H2         -0.5445    1.7859   -0.8732 H         1 <0>         0.1057
     21 H3         -0.5275    1.7763    0.9067 H         1 <0>         0.0626
     22 H4         -0.3905   -2.3642   -0.7529 H         1 <0>         0.1519
     23 H5         -0.2965   -4.8152   -0.6554 H         1 <0>         0.1501
     24 H6          1.7752   -2.1356    2.9460 H         1 <0>         0.1470
     25 H7          2.2495   -4.2750    4.0833 H         1 <0>         0.4218
     26 H8          3.6297   -6.1998    4.7963 H         1 <0>         0.1332
     27 H9          4.1143   -8.5999    4.5122 H         1 <0>         0.1336
     28 H10         3.0543   -9.8625    2.6875 H         1 <0>         0.1361
     29 H11         1.5059   -8.7405    1.1394 H         1 <0>         0.1399
@<TRIPOS>BOND
     1    1    2 1
     2    1   19 1
     3    1   20 1
     4    1   21 1
     5    2    3 1
     6    3    4 2
     7    3    5 1
     8    5   10 ar
     9    5    6 ar
    10    6    7 ar
    11    6   22 1
    12    7    8 ar
    13    7   23 1
    14    8   18 1
    15    8    9 ar
    16    9   10 ar
    17    9   11 1
    18   10   24 1
    19   11   12 1
    20   11   25 1
    21   12   17 ar
    22   12   13 ar
    23   13   14 ar
    24   13   26 1
    25   14   15 ar
    26   14   27 1
    27   15   16 ar
    28   15   28 1
    29   16   17 ar
    30   16   29 1
    31   17   18 1
@<TRIPOS>MOLECULE
ZINC26460911
   25    27     0     0     0
SMALL
USER_CHARGES
10H-phenoxazine-2-carboxylic acid
@<TRIPOS>ATOM
      1 C1         -2.3925   -0.0449    0.0293 C.ar      1 <0>        -0.1064
      2 C2         -2.4146    1.3370    0.0349 C.ar      1 <0>        -0.1363
      3 C3         -1.2320    2.0547    0.0307 C.ar      1 <0>        -0.1081
      4 C4         -0.0168    1.3892    0.0097 C.ar      1 <0>         0.0653
      5 C5          0.0021   -0.0041    0.0020 C.ar      1 <0>         0.1426
      6 C6         -1.1835   -0.7183    0.0131 C.ar      1 <0>        -0.1559
      7 N1          1.2370   -0.6728   -0.0198 N.pl3     1 <0>        -0.6940
      8 C7          2.3817    0.0794   -0.3342 C.ar      1 <0>         0.1065
      9 C8          3.5656   -0.5522   -0.6550 C.ar      1 <0>        -0.1020
     10 C9          4.6959    0.2112   -0.9689 C.ar      1 <0>        -0.0978
     11 C10         4.6155    1.6059   -0.9550 C.ar      1 <0>        -0.0781
     12 C11         3.4289    2.2283   -0.6320 C.ar      1 <0>        -0.1189
     13 C12         2.3056    1.4736   -0.3193 C.ar      1 <0>         0.0567
     14 O1          1.1434    2.0943    0.0024 O.3       1 <0>        -0.2503
     15 C13         5.9664   -0.4538   -1.3125 C.2       1 <0>         0.4917
     16 O2          6.0336   -1.6670   -1.3235 O.co2     1 <0>        -0.6305
     17 O3          7.0529    0.2840   -1.6144 O.co2     1 <0>        -0.7500
     18 H1         -3.3191   -0.5995    0.0380 H         1 <0>         0.1255
     19 H2         -3.3599    1.8592    0.0467 H         1 <0>         0.1277
     20 H3         -1.2560    3.1345    0.0354 H         1 <0>         0.1329
     21 H4         -1.1652   -1.7981    0.0094 H         1 <0>         0.1279
     22 H5          1.2839   -1.7486    0.2046 H         1 <0>         0.4395
     23 H6          3.6201   -1.6308   -0.6634 H         1 <0>         0.1361
     24 H7          5.4855    2.1980   -1.1976 H         1 <0>         0.1432
     25 H8          3.3723    3.3068   -0.6224 H         1 <0>         0.1327
@<TRIPOS>BOND
     1    1    6 ar
     2    1    2 ar
     3    1   18 1
     4    2    3 ar
     5    2   19 1
     6    3    4 ar
     7    3   20 1
     8    4   14 1
     9    4    5 ar
    10    5    6 ar
    11    5    7 1
    12    6   21 1
    13    7    8 1
    14    7   22 1
    15    8   13 ar
    16    8    9 ar
    17    9   10 ar
    18    9   23 1
    19   10   11 ar
    20   10   15 1
    21   11   12 ar
    22   11   24 1
    23   12   13 ar
    24   12   25 1
    25   13   14 1
    26   15   16 2
    27   15   17 1
@<TRIPOS>MOLECULE
ZINC03099994
   66    71     0     0     0
SMALL
USER_CHARGES
4-[bis(3,4-dimethylphenyl)-tetraoxo-BLAHyl]carbonylbenzoic acid
@<TRIPOS>ATOM
      1 C1          6.4121    0.1130    0.0366 C.3       1 <0>        -0.1176
      2 C2          4.9899    0.6116    0.0369 C.ar      1 <0>        -0.0907
      3 C3          3.9422   -0.2909    0.0140 C.ar      1 <0>        -0.0940
      4 C4          2.6380    0.1630    0.0142 C.ar      1 <0>        -0.1349
      5 C5          2.3790    1.5271    0.0369 C.ar      1 <0>         0.1207
      6 C6          3.4328    2.4306    0.0540 C.ar      1 <0>        -0.1326
      7 C7          4.7353    1.9703    0.0595 C.ar      1 <0>        -0.0688
      8 C8          5.8798    2.9504    0.0843 C.3       1 <0>        -0.1165
      9 N1          1.0566    1.9908    0.0366 N.am      1 <0>        -0.5114
     10 C9          0.7049    3.2888    0.0583 C.2       1 <0>         0.5821
     11 O1          1.4714    4.2303    0.0796 O.2       1 <0>        -0.4319
     12 C10        -0.7730    3.3779    0.0510 C.ar      1 <0>        -0.1072
     13 C11        -1.6737    4.4368    0.0650 C.ar      1 <0>         0.0376
     14 C12        -3.0403    4.1824    0.0382 C.ar      1 <0>        -0.1068
     15 C13        -3.5151    2.8592    0.0088 C.ar      1 <0>        -0.0839
     16 C14        -2.6130    1.7887   -0.0013 C.ar      1 <0>         0.0080
     17 C15        -1.2380    2.0513    0.0182 C.ar      1 <0>        -0.0847
     18 C16        -0.0288    1.1965    0.0155 C.2       1 <0>         0.5715
     19 O2         -0.0187   -0.0174   -0.0074 O.2       1 <0>        -0.4108
     20 C17        -3.1076    0.3942   -0.0327 C.2       1 <0>         0.4450
     21 O3         -3.2366   -0.2280    1.0026 O.2       1 <0>        -0.4184
     22 C18        -3.4447   -0.2418   -1.3245 C.ar      1 <0>        -0.1715
     23 C19        -3.2022    0.4364   -2.5216 C.ar      1 <0>        -0.0913
     24 C20        -3.5106   -0.1590   -3.7250 C.ar      1 <0>        -0.0887
     25 C21        -4.0766   -1.4352   -3.7480 C.ar      1 <0>        -0.0690
     26 C22        -4.3249   -2.1109   -2.5515 C.ar      1 <0>        -0.0984
     27 C23        -4.0110   -1.5187   -1.3479 C.ar      1 <0>        -0.0611
     28 C24        -4.4129   -2.0719   -5.0402 C.2       1 <0>         0.4853
     29 O4         -4.9048   -3.1820   -5.0604 O.co2     1 <0>        -0.6220
     30 C25        -4.9926    2.9576   -0.0044 C.2       1 <0>         0.5708
     31 O5         -5.7653    2.0214   -0.0293 O.2       1 <0>        -0.4094
     32 N2         -5.3349    4.2583    0.0163 N.am      1 <0>        -0.5114
     33 C26        -4.2439    5.0445    0.0420 C.2       1 <0>         0.5819
     34 O6         -4.2459    6.2585    0.0652 O.2       1 <0>        -0.4321
     35 C27        -6.6539    4.7316    0.0110 C.ar      1 <0>         0.1207
     36 C28        -7.7136    3.8396    0.1092 C.ar      1 <0>        -0.1333
     37 C29        -9.0123    4.3091    0.1042 C.ar      1 <0>        -0.0940
     38 C30        -9.2580    5.6662    0.0010 C.ar      1 <0>        -0.0903
     39 C31        -8.2050    6.5568   -0.0969 C.ar      1 <0>        -0.0689
     40 C32        -6.9036    6.0937   -0.0867 C.ar      1 <0>        -0.1312
     41 C33        -8.4772    8.0348   -0.2092 C.3       1 <0>        -0.1163
     42 C34       -10.6764    6.1753   -0.0042 C.3       1 <0>        -0.1176
     43 H1          6.7613    0.0114   -0.9909 H         1 <0>         0.0729
     44 H2          7.0462    0.8231    0.5673 H         1 <0>         0.0713
     45 H3          6.4573   -0.8563    0.5332 H         1 <0>         0.0673
     46 H4          4.1442   -1.3517   -0.0036 H         1 <0>         0.1333
     47 H5          1.8202   -0.5422   -0.0036 H         1 <0>         0.1562
     48 H6          3.2345    3.4921    0.0675 H         1 <0>         0.1558
     49 H7          6.1624    3.2050   -0.9372 H         1 <0>         0.0739
     50 H8          5.5736    3.8534    0.6124 H         1 <0>         0.0683
     51 H9          6.7314    2.5016    0.5957 H         1 <0>         0.0729
     52 H10        -1.3128    5.4545    0.0858 H         1 <0>         0.1733
     53 H11        -2.7689    1.4255   -2.5037 H         1 <0>         0.1145
     54 H12        -3.3185    0.3632   -4.6507 H         1 <0>         0.1394
     55 H13        -4.7626   -3.0980   -2.5697 H         1 <0>         0.1382
     56 H14        -4.2024   -2.0416   -0.4225 H         1 <0>         0.1319
     57 H15        -7.5223    2.7797    0.1898 H         1 <0>         0.1550
     58 H16        -9.8369    3.6159    0.1805 H         1 <0>         0.1334
     59 H17        -6.0814    6.7902   -0.1590 H         1 <0>         0.1547
     60 H18        -8.5173    8.4736    0.7878 H         1 <0>         0.0730
     61 H19        -7.6804    8.5084   -0.7828 H         1 <0>         0.0685
     62 H20        -9.4306    8.1914   -0.7137 H         1 <0>         0.0734
     63 H21       -10.9925    6.3806    1.0186 H         1 <0>         0.0718
     64 H22       -10.7315    7.0914   -0.5923 H         1 <0>         0.0717
     65 H23       -11.3311    5.4222   -0.4426 H         1 <0>         0.0680
     66 O7         -4.1735   -1.4203   -6.1945 O.co2     1 <0>        -0.7459
@<TRIPOS>BOND
     1    1    2 1
     2    1   43 1
     3    1   44 1
     4    1   45 1
     5    2    7 ar
     6    2    3 ar
     7    3    4 ar
     8    3   46 1
     9    4    5 ar
    10    4   47 1
    11    5    6 ar
    12    5    9 1
    13    6    7 ar
    14    6   48 1
    15    7    8 1
    16    8   49 1
    17    8   50 1
    18    8   51 1
    19    9   18 am
    20    9   10 am
    21   10   11 2
    22   10   12 1
    23   12   17 ar
    24   12   13 ar
    25   13   14 ar
    26   13   52 1
    27   14   33 1
    28   14   15 ar
    29   15   16 ar
    30   15   30 1
    31   16   17 ar
    32   16   20 1
    33   17   18 1
    34   18   19 2
    35   20   21 2
    36   20   22 1
    37   22   27 ar
    38   22   23 ar
    39   23   24 ar
    40   23   53 1
    41   24   25 ar
    42   24   54 1
    43   25   26 ar
    44   25   28 1
    45   26   27 ar
    46   26   55 1
    47   27   56 1
    48   28   29 2
    49   28   66 1
    50   30   31 2
    51   30   32 am
    52   32   33 am
    53   32   35 1
    54   33   34 2
    55   35   40 ar
    56   35   36 ar
    57   36   37 ar
    58   36   57 1
    59   37   38 ar
    60   37   58 1
    61   38   39 ar
    62   38   42 1
    63   39   40 ar
    64   39   41 1
    65   40   59 1
    66   41   60 1
    67   41   61 1
    68   41   62 1
    69   42   63 1
    70   42   64 1
    71   42   65 1
@<TRIPOS>MOLECULE
ZINC12418339
   35    37     0     0     0
SMALL
USER_CHARGES

@<TRIPOS>ATOM
      1 C1          0.0081    1.3177    0.0785 C.3       1 <0>         0.0202
      2 O1         -0.0175   -0.0651    0.4383 O.3       1 <0>        -0.2988
      3 C2         -1.2377   -0.6607    0.5147 C.ar      1 <0>         0.1170
      4 C3         -2.3790    0.0677    0.2443 C.ar      1 <0>        -0.1564
      5 C4         -3.6346   -0.5489    0.3239 C.ar      1 <0>        -0.0500
      6 C5         -3.7246   -1.9017    0.6777 C.ar      1 <0>        -0.1073
      7 C6         -2.5799   -2.6203    0.9458 C.ar      1 <0>        -0.0267
      8 C7         -1.3348   -2.0080    0.8606 C.ar      1 <0>         0.1104
      9 O2         -0.2096   -2.7231    1.1206 O.3       1 <0>        -0.4698
     10 Cl1        -2.6925   -4.2963    1.3840 Cl        1 <0>        -0.0322
     11 C8         -4.8510    0.2195    0.0383 C.2       1 <0>         0.0656
     12 C9         -6.0500   -0.4156   -0.0563 C.2       1 <0>        -0.2394
     13 C10        -7.4145    0.1469   -0.1722 C.2       1 <0>         0.5315
     14 O3         -7.6146    1.3510   -0.1962 O.2       1 <0>        -0.4286
     15 N1         -8.3992   -0.7214   -0.2484 N.2       1 <0>        -0.5969
     16 C11        -8.1961   -2.0290   -0.2240 C.2       1 <0>         0.3191
     17 S1         -6.4208   -2.1649   -0.0836 S.3       1 <0>        -0.0344
     18 C12        -9.1953   -3.1133   -0.3002 C.ar      1 <0>        -0.0690
     19 C13        -8.7870   -4.4483   -0.2523 C.ar      1 <0>        -0.0630
     20 C14        -9.7259   -5.4561   -0.3234 C.ar      1 <0>        -0.1260
     21 C15       -11.0696   -5.1474   -0.4420 C.ar      1 <0>        -0.0730
     22 C16       -11.4812   -3.8270   -0.4901 C.ar      1 <0>        -0.1288
     23 C17       -10.5537   -2.8090   -0.4146 C.ar      1 <0>        -0.0430
     24 H1          1.0400    1.6677    0.0541 H         1 <0>         0.1084
     25 H2         -0.4423    1.4454   -0.9058 H         1 <0>         0.0609
     26 H3         -0.5540    1.8946    0.8129 H         1 <0>         0.0607
     27 H4         -2.3041    1.1102   -0.0276 H         1 <0>         0.1506
     28 H5         -4.6906   -2.3807    0.7406 H         1 <0>         0.1495
     29 H6          0.0608   -2.7071    2.0489 H         1 <0>         0.3955
     30 H7         -4.7946    1.2895   -0.0968 H         1 <0>         0.1669
     31 H8         -7.7386   -4.6907   -0.1601 H         1 <0>         0.1345
     32 H9         -9.4116   -6.4888   -0.2869 H         1 <0>         0.1380
     33 H10       -11.8004   -5.9405   -0.4977 H         1 <0>         0.1346
     34 H11       -12.5315   -3.5932   -0.5827 H         1 <0>         0.1374
     35 H12       -10.8767   -1.7789   -0.4477 H         1 <0>         0.1424
@<TRIPOS>BOND
     1    1    2 1
     2    1   24 1
     3    1   25 1
     4    1   26 1
     5    2    3 1
     6    3    8 ar
     7    3    4 ar
     8    4    5 ar
     9    4   27 1
    10    5    6 ar
    11    5   11 1
    12    6    7 ar
    13    6   28 1
    14    7    8 ar
    15    7   10 1
    16    8    9 1
    17    9   29 1
    18   11   12 2
    19   11   30 1
    20   12   17 1
    21   12   13 1
    22   13   14 2
    23   13   15 1
    24   15   16 2
    25   16   17 1
    26   16   18 1
    27   18   23 ar
    28   18   19 ar
    29   19   20 ar
    30   19   31 1
    31   20   21 ar
    32   20   32 1
    33   21   22 ar
    34   21   33 1
    35   22   23 ar
    36   22   34 1
    37   23   35 1
@<TRIPOS>MOLECULE
ZINC01548581
   50    50     0     0     0
SMALL
USER_CHARGES
1-(4-hydroxy-3,5-ditert-butyl-phenyl)hex-5-yn-1-one
@<TRIPOS>ATOM
      1 C1         -0.0127    1.0858    0.0080 C.3       1 <0>        -0.1489
      2 C2         -0.7288    1.5792    1.2668 C.3       1 <0>        -0.0213
      3 C3         -0.7496    3.1091    1.2752 C.3       1 <0>        -0.1425
      4 C4         -2.1642    1.0497    1.2777 C.3       1 <0>        -0.1423
      5 C5          0.0000    1.0800    2.4877 C.ar      1 <0>        -0.1053
      6 C6          1.1241    0.3077    2.3456 C.ar      1 <0>        -0.0529
      7 C7          1.8007   -0.1551    3.4810 C.ar      1 <0>        -0.1773
      8 C8          1.3249    0.1738    4.7563 C.ar      1 <0>        -0.0657
      9 C9          0.1999    0.9467    4.8874 C.ar      1 <0>        -0.1060
     10 C10        -0.4653    1.4082    3.7566 C.ar      1 <0>         0.1518
     11 O1         -1.5750    2.1769    3.8917 O.3       1 <0>        -0.4837
     12 C11        -0.3130    1.3019    6.2592 C.3       1 <0>        -0.0207
     13 C12         0.5963    0.6796    7.3206 C.3       1 <0>        -0.1489
     14 C13        -0.3209    2.8231    6.4227 C.3       1 <0>        -0.1432
     15 C14        -1.7354    0.7636    6.4270 C.3       1 <0>        -0.1430
     16 C15         3.0048   -0.9830    3.3347 C.2       1 <0>         0.3964
     17 O2          3.4149   -1.2670    2.2291 O.2       1 <0>        -0.4491
     18 C16         3.7309   -1.4797    4.5583 C.3       1 <0>        -0.1584
     19 C17         4.9411   -2.3123    4.1302 C.3       1 <0>        -0.1084
     20 C18         5.6783   -2.8166    5.3725 C.3       1 <0>        -0.0125
     21 C19         6.8426   -3.6176    4.9607 C.1       1 <0>        -0.1922
     22 C20         7.7712   -4.2565    4.6323 C.1       1 <0>        -0.2047
     23 H1          0.0021   -0.0041    0.0020 H         1 <0>         0.0589
     24 H2          1.0099    1.4631    0.0003 H         1 <0>         0.0596
     25 H3         -0.5399    1.4469   -0.8751 H         1 <0>         0.0617
     26 H4         -1.2768    3.4701    0.3922 H         1 <0>         0.0561
     27 H5         -1.2598    3.4606    2.1720 H         1 <0>         0.0751
     28 H6          0.2730    3.4864    1.2675 H         1 <0>         0.0516
     29 H7         -2.1494   -0.0402    1.2717 H         1 <0>         0.0549
     30 H8         -2.6744    1.4012    2.1745 H         1 <0>         0.0575
     31 H9         -2.6914    1.4107    0.3946 H         1 <0>         0.0627
     32 H10         1.4872    0.0571    1.3599 H         1 <0>         0.1413
     33 H11         1.8433   -0.1804    5.6351 H         1 <0>         0.1391
     34 H12        -2.3994    1.6734    3.9344 H         1 <0>         0.3870
     35 H13         1.6096    1.0631    7.2011 H         1 <0>         0.0596
     36 H14         0.2253    0.9365    8.3128 H         1 <0>         0.0621
     37 H15         0.6019   -0.4042    7.2042 H         1 <0>         0.0589
     38 H16        -0.9687    3.2665    5.6665 H         1 <0>         0.0751
     39 H17        -0.6919    3.0800    7.4149 H         1 <0>         0.0559
     40 H18         0.6924    3.2066    6.3031 H         1 <0>         0.0518
     41 H19        -1.7298   -0.3202    6.3106 H         1 <0>         0.0552
     42 H20        -2.1064    1.0205    7.4192 H         1 <0>         0.0625
     43 H21        -2.3832    1.2069    5.6708 H         1 <0>         0.0575
     44 H22         4.0388   -0.6995    5.1028 H         1 <0>         0.0924
     45 H23         3.0584   -2.0962    5.1546 H         1 <0>         0.1021
     46 H24         4.6055   -3.1627    3.5367 H         1 <0>         0.0742
     47 H25         5.6137   -1.6958    3.5339 H         1 <0>         0.0739
     48 H26         6.0139   -1.9662    5.9660 H         1 <0>         0.0875
     49 H27         5.0057   -3.4331    5.9688 H         1 <0>         0.0878
     50 H28         8.6017   -4.8279    4.3385 H         1 <0>         0.2172
@<TRIPOS>BOND
     1    1    2 1
     2    1   23 1
     3    1   24 1
     4    1   25 1
     5    2    3 1
     6    2    4 1
     7    2    5 1
     8    3   26 1
     9    3   27 1
    10    3   28 1
    11    4   29 1
    12    4   30 1
    13    4   31 1
    14    5   10 ar
    15    5    6 ar
    16    6    7 ar
    17    6   32 1
    18    7    8 ar
    19    7   16 1
    20    8    9 ar
    21    8   33 1
    22    9   10 ar
    23    9   12 1
    24   10   11 1
    25   11   34 1
    26   12   13 1
    27   12   14 1
    28   12   15 1
    29   13   35 1
    30   13   36 1
    31   13   37 1
    32   14   38 1
    33   14   39 1
    34   14   40 1
    35   15   41 1
    36   15   42 1
    37   15   43 1
    38   16   17 2
    39   16   18 1
    40   18   19 1
    41   18   44 1
    42   18   45 1
    43   19   20 1
    44   19   46 1
    45   19   47 1
    46   20   21 1
    47   20   48 1
    48   20   49 1
    49   21   22 3
    50   22   50 1
@<TRIPOS>MOLECULE
ZINC00005986
   37    38     0     0     0
SMALL
USER_CHARGES
1-[3-[5-[(4-fluorophenyl)methyl]-2-thienyl]-1-methyl-prop-2-ynyl]-1-hydroxy-urea
@<TRIPOS>ATOM
      1 C1          5.3077    5.2800   -0.0747 C.3       1 <0>        -0.1690
      2 C2          3.8033    5.5558   -0.0370 C.3       1 <0>         0.3087
      3 H1          3.5562    6.0987    0.8752 H         1 <0>         0.1264
      4 C3          3.0697    4.2798   -0.0626 C.1       1 <0>        -0.1421
      5 C4          2.4847    3.2622   -0.0830 C.1       1 <0>        -0.0735
      6 C5          1.7710    2.0210   -0.1079 C.2       1 <0>        -0.0587
      7 C6          2.2635    0.7415   -0.1573 C.2       1 <0>        -0.1202
      8 C7          1.3736   -0.3089   -0.1728 C.2       1 <0>        -0.1562
      9 C8          0.0409   -0.0484   -0.1390 C.2       1 <0>        -0.1328
     10 S1          0.0088    1.7356   -0.0828 S.3       1 <0>         0.0906
     11 C9         -1.1139   -1.0167   -0.1473 C.3       1 <0>         0.0037
     12 C10        -1.4715   -1.3841    1.2698 C.ar      1 <0>        -0.0951
     13 C11        -0.8705   -2.4729    1.8737 C.ar      1 <0>        -0.0796
     14 C12        -1.1941   -2.8079    3.1748 C.ar      1 <0>        -0.1520
     15 C13        -2.1284   -2.0590    3.8700 C.ar      1 <0>         0.0989
     16 C14        -2.7336   -0.9720    3.2624 C.ar      1 <0>        -0.1507
     17 C15        -2.4045   -0.6357    1.9630 C.ar      1 <0>        -0.0812
     18 F1         -2.4490   -2.3884    5.1404 F         1 <0>        -0.1388
     19 N1          3.4250    6.3600   -1.2017 N.am      1 <0>        -0.4869
     20 C16         3.6382    5.8867   -2.4454 C.2       1 <0>         0.6994
     21 O1          4.2240    4.8330   -2.6028 O.2       1 <0>        -0.5571
     22 N2          3.2021    6.5815   -3.5148 N.am      1 <0>        -0.8654
     23 O2          2.8353    7.6346   -1.0205 O.3       1 <0>        -0.3253
     24 H2          5.8509    6.2248   -0.0558 H         1 <0>         0.0726
     25 H3          5.5892    4.6816    0.7918 H         1 <0>         0.0802
     26 H4          5.5549    4.7370   -0.9870 H         1 <0>         0.0898
     27 H5          3.3281    0.5617   -0.1838 H         1 <0>         0.1385
     28 H6          1.7307   -1.3274   -0.2111 H         1 <0>         0.1389
     29 H7         -1.9737   -0.5525   -0.6303 H         1 <0>         0.0942
     30 H8         -0.8306   -1.9153   -0.6952 H         1 <0>         0.1026
     31 H9         -0.1447   -3.0593    1.3298 H         1 <0>         0.1341
     32 H10        -0.7214   -3.6560    3.6478 H         1 <0>         0.1370
     33 H11        -3.4622   -0.3869    3.8038 H         1 <0>         0.1373
     34 H12        -2.8761    0.2124    1.4889 H         1 <0>         0.1333
     35 H13         2.8001    7.4560   -3.3940 H         1 <0>         0.3934
     36 H14         3.2902    6.2071   -4.4053 H         1 <0>         0.4228
     37 H15         2.5504    8.0565   -1.8427 H         1 <0>         0.3824
@<TRIPOS>BOND
     1    1    2 1
     2    1   24 1
     3    1   25 1
     4    1   26 1
     5    2    3 1
     6    2    4 1
     7    2   19 1
     8    4    5 3
     9    5    6 1
    10    6   10 1
    11    6    7 2
    12    7    8 1
    13    7   27 1
    14    8    9 2
    15    8   28 1
    16    9   10 1
    17    9   11 1
    18   11   12 1
    19   11   29 1
    20   11   30 1
    21   12   17 ar
    22   12   13 ar
    23   13   14 ar
    24   13   31 1
    25   14   15 ar
    26   14   32 1
    27   15   16 ar
    28   15   18 1
    29   16   17 ar
    30   16   33 1
    31   17   34 1
    32   19   20 am
    33   19   23 1
    34   20   21 2
    35   20   22 am
    36   22   35 1
    37   22   36 1
    38   23   37 1
@<TRIPOS>MOLECULE
ZINC00968696
   32    34     0     0     0
SMALL
USER_CHARGES
2-benzyloxynaphthalene
@<TRIPOS>ATOM
      1 C1          1.7012   12.1932    0.0532 C.ar      1 <0>        -0.1088
      2 C2          1.8123   11.5024    1.2454 C.ar      1 <0>        -0.1229
      3 C3          2.0105   10.1343    1.2355 C.ar      1 <0>        -0.0954
      4 C4          2.0981    9.4573    0.0335 C.ar      1 <0>        -0.0989
      5 C5          1.9927   10.1490   -1.1587 C.ar      1 <0>        -0.0954
      6 C6          1.7887   11.5161   -1.1488 C.ar      1 <0>        -0.1229
      7 C7          2.3147    7.9659    0.0228 C.3       1 <0>         0.1014
      8 O1          1.0499    7.3009    0.0314 O.3       1 <0>        -0.3085
      9 C8          1.0673    5.9421    0.0234 C.ar      1 <0>         0.1323
     10 C9          2.2924    5.2677    0.0075 C.ar      1 <0>        -0.1916
     11 C10         2.3422    3.9089    0.0001 C.ar      1 <0>        -0.0636
     12 C11         1.1478    3.1673    0.0081 C.ar      1 <0>        -0.0850
     13 C12         1.1627    1.7621    0.0004 C.ar      1 <0>        -0.0942
     14 C13        -0.0126    1.0758    0.0080 C.ar      1 <0>        -0.1288
     15 C14        -1.2348    1.7456    0.0175 C.ar      1 <0>        -0.1045
     16 C15        -1.2883    3.1054    0.0311 C.ar      1 <0>        -0.1159
     17 C16        -0.0950    3.8486    0.0237 C.ar      1 <0>        -0.0129
     18 C17        -0.1117    5.2530    0.0315 C.ar      1 <0>        -0.1545
     19 H1          1.5456   13.2619    0.0609 H         1 <0>         0.1251
     20 H2          1.7439   12.0314    2.1844 H         1 <0>         0.1261
     21 H3          2.0974    9.5946    2.1669 H         1 <0>         0.1243
     22 H4          2.0655    9.6206   -2.0978 H         1 <0>         0.1243
     23 H5          1.7015   12.0559   -2.0802 H         1 <0>         0.1261
     24 H6          2.8841    7.6751    0.9056 H         1 <0>         0.0720
     25 H7          2.8666    7.6854   -0.8743 H         1 <0>         0.0720
     26 H8          3.2119    5.8342    0.0013 H         1 <0>         0.1305
     27 H9          3.2955    3.4013   -0.0122 H         1 <0>         0.1323
     28 H10         2.1022    1.2294   -0.0118 H         1 <0>         0.1268
     29 H11         0.0021   -0.0041    0.0020 H         1 <0>         0.1234
     30 H12        -2.1530    1.1771    0.0187 H         1 <0>         0.1242
     31 H13        -2.2425    3.6110    0.0429 H         1 <0>         0.1282
     32 H14        -1.0516    5.7849    0.0434 H         1 <0>         0.1346
@<TRIPOS>BOND
     1    1    6 ar
     2    1    2 ar
     3    1   19 1
     4    2    3 ar
     5    2   20 1
     6    3    4 ar
     7    3   21 1
     8    4    5 ar
     9    4    7 1
    10    5    6 ar
    11    5   22 1
    12    6   23 1
    13    7    8 1
    14    7   24 1
    15    7   25 1
    16    8    9 1
    17    9   18 ar
    18    9   10 ar
    19   10   11 ar
    20   10   26 1
    21   11   12 ar
    22   11   27 1
    23   12   17 ar
    24   12   13 ar
    25   13   14 ar
    26   13   28 1
    27   14   15 ar
    28   14   29 1
    29   15   16 ar
    30   15   30 1
    31   16   17 ar
    32   16   31 1
    33   17   18 ar
    34   18   32 1
@<TRIPOS>MOLECULE
ZINC03869768
   31    33     0     0     0
SMALL
USER_CHARGES

@<TRIPOS>ATOM
      1 C1          0.9745   -0.2752   -0.9649 C.ar      1 <0>        -0.0474
      2 C2          2.1550    0.4346   -0.9693 C.ar      1 <0>        -0.1488
      3 C3          2.3800    1.4188   -0.0145 C.ar      1 <0>         0.1280
      4 C4          1.4162    1.6917    0.9485 C.ar      1 <0>        -0.1504
      5 C5          0.2327    0.9869    0.9606 C.ar      1 <0>        -0.0665
      6 C6          0.0021   -0.0041    0.0020 C.ar      1 <0>        -0.0625
      7 C7         -1.2634   -0.7608    0.0105 C.2       1 <0>         0.1356
      8 C8         -1.2167   -2.1184   -0.0957 C.2       1 <0>        -0.0454
      9 C9         -2.4259   -2.8610   -0.0886 C.2       1 <0>         0.4007
     10 O1         -2.4232   -4.0781   -0.1814 O.2       1 <0>        -0.4492
     11 C10        -3.6832   -2.1065    0.0355 C.ar      1 <0>        -0.2689
     12 C11        -4.9234   -2.7585    0.0517 C.ar      1 <0>         0.2243
     13 C12        -6.0821   -2.0144    0.1703 C.ar      1 <0>        -0.2086
     14 C13        -6.0155   -0.6287    0.2722 C.ar      1 <0>         0.1994
     15 C14        -4.7926    0.0230    0.2564 C.ar      1 <0>        -0.1859
     16 C15        -3.6188   -0.7060    0.1392 C.ar      1 <0>         0.1873
     17 O2         -2.4200   -0.0864    0.1283 O.3       1 <0>        -0.1981
     18 O3         -7.1599    0.0925    0.3877 O.3       1 <0>        -0.4869
     19 O4         -4.9864   -4.1104   -0.0487 O.3       1 <0>        -0.4727
     20 O5         -0.0202   -2.7570   -0.2082 O.3       1 <0>        -0.4492
     21 O6          3.5454    2.1157   -0.0224 O.3       1 <0>        -0.4978
     22 H1          0.7987   -1.0369   -1.7101 H         1 <0>         0.1366
     23 H2          2.9071    0.2256   -1.7157 H         1 <0>         0.1375
     24 H3          1.5954    2.4572    1.6889 H         1 <0>         0.1366
     25 H4         -0.5157    1.1995    1.7097 H         1 <0>         0.1340
     26 H5         -7.0416   -2.5100    0.1835 H         1 <0>         0.1512
     27 H6         -4.7536    1.0994    0.3359 H         1 <0>         0.1553
     28 H7         -7.4448    0.2345    1.3008 H         1 <0>         0.4049
     29 H8         -4.9577   -4.5698    0.8018 H         1 <0>         0.4037
     30 H9         -0.0926   -3.7187   -0.2778 H         1 <0>         0.4073
     31 H10         3.5195    2.9194   -0.5594 H         1 <0>         0.3958
@<TRIPOS>BOND
     1    1    6 ar
     2    1    2 ar
     3    1   22 1
     4    2    3 ar
     5    2   23 1
     6    3    4 ar
     7    3   21 1
     8    4    5 ar
     9    4   24 1
    10    5    6 ar
    11    5   25 1
    12    6    7 1
    13    7   17 1
    14    7    8 2
    15    8    9 1
    16    8   20 1
    17    9   10 2
    18    9   11 1
    19   11   16 ar
    20   11   12 ar
    21   12   13 ar
    22   12   19 1
    23   13   14 ar
    24   13   26 1
    25   14   15 ar
    26   14   18 1
    27   15   16 ar
    28   15   27 1
    29   16   17 1
    30   18   28 1
    31   19   29 1
    32   20   30 1
    33   21   31 1
@<TRIPOS>MOLECULE
ZINC03869768
   30    32     0     0     0
SMALL
USER_CHARGES

@<TRIPOS>ATOM
      1 C1          0.1387    1.1253   -0.8121 C.ar      1 <0>        -0.0723
      2 C2          1.3222    1.8291   -0.8163 C.ar      1 <0>        -0.1492
      3 C3          2.3802    1.4188   -0.0136 C.ar      1 <0>         0.1107
      4 C4          2.2493    0.2973    0.7970 C.ar      1 <0>        -0.1487
      5 C5          1.0698   -0.4131    0.8081 C.ar      1 <0>        -0.0549
      6 C6          0.0021   -0.0041    0.0020 C.ar      1 <0>        -0.0373
      7 C7         -1.2618   -0.7600    0.0105 C.2       1 <0>         0.1024
      8 C8         -1.2272   -2.1382   -0.0967 C.2       1 <0>        -0.0073
      9 C9         -2.4246   -2.8649   -0.0894 C.2       1 <0>         0.3353
     10 C10        -3.6396   -2.1555    0.0286 C.2       1 <0>        -0.3335
     11 C11        -4.8747   -2.8371    0.0419 C.2       1 <0>         0.2665
     12 C12        -6.0380   -2.1324    0.1573 C.2       1 <0>        -0.3754
     13 C13        -6.0102   -0.7324    0.2627 C.2       1 <0>         0.3645
     14 O1         -7.1532   -0.0530    0.3751 O.2       1 <0>        -0.6613
     15 C14        -4.7917   -0.0455    0.2513 C.2       1 <0>        -0.3154
     16 C15        -3.6071   -0.7470    0.1346 C.2       1 <0>         0.2120
     17 O2         -2.4247   -0.0966    0.1278 O.3       1 <0>        -0.2026
     18 O3         -4.9062   -4.1898   -0.0602 O.3       1 <0>        -0.4482
     19 O4         -2.4171   -4.2129   -0.1933 O.3       1 <0>        -0.5752
     20 O5         -0.0356   -2.7853   -0.2091 O.3       1 <0>        -0.4646
     21 O6          3.5454    2.1154   -0.0218 O.3       1 <0>        -0.5000
     22 H1         -0.6842    1.4472   -1.4330 H         1 <0>         0.1347
     23 H2          1.4286    2.7011   -1.4445 H         1 <0>         0.1321
     24 H3          3.0741   -0.0177    1.4190 H         1 <0>         0.1323
     25 H4          0.9692   -1.2847    1.4377 H         1 <0>         0.1358
     26 H5         -6.9838   -2.6538    0.1671 H         1 <0>         0.1177
     27 H6         -4.7769    1.0313    0.3327 H         1 <0>         0.1225
     28 H7         -5.7973   -4.5650   -0.0417 H         1 <0>         0.3845
     29 H8         -0.1151   -3.7466   -0.2784 H         1 <0>         0.4051
     30 H9          3.5829    2.8269    0.6320 H         1 <0>         0.3897
@<TRIPOS>BOND
     1    1    6 ar
     2    1    2 ar
     3    1   22 1
     4    2    3 ar
     5    2   23 1
     6    3    4 ar
     7    3   21 1
     8    4    5 ar
     9    4   24 1
    10    5    6 ar
    11    5   25 1
    12    6    7 1
    13    7   17 1
    14    7    8 2
    15    8    9 1
    16    8   20 1
    17    9   10 2
    18    9   19 1
    19   10   16 1
    20   10   11 1
    21   11   12 2
    22   11   18 1
    23   12   13 1
    24   12   26 1
    25   13   14 2
    26   13   15 1
    27   15   16 2
    28   15   27 1
    29   16   17 1
    30   18   28 1
    31   20   29 1
    32   21   30 1
@<TRIPOS>MOLECULE
ZINC22463332
   72    75     0     0     0
SMALL
USER_CHARGES
(E)-N-[4-(4-benzhydrylpiperazin-1-yl)butyl]-3-(6-methyl-3-pyridyl)prop-2-enamide
@<TRIPOS>ATOM
      1 C1         -1.0753    4.6234    2.3507 C.3       1 <0>        -0.1127
      2 C2          0.1968    3.8292    2.2023 C.ar      1 <0>         0.1444
      3 C3          1.4166    4.4790    2.2748 C.ar      1 <0>        -0.1725
      4 C4          2.5827    3.7483    2.1383 C.ar      1 <0>        -0.0446
      5 C5          2.4792    2.3650    1.9299 C.ar      1 <0>        -0.1455
      6 C6          1.2084    1.7856    1.8692 C.ar      1 <0>         0.1277
      7 N1          0.1284    2.5272    1.9999 N.ar      1 <0>        -0.4868
      8 C7          3.6875    1.5380    1.7783 C.2       1 <0>        -0.0012
      9 C8          3.5744    0.2095    1.5789 C.2       1 <0>        -0.2271
     10 C9          4.7763   -0.6131    1.4281 C.2       1 <0>         0.5536
     11 O1          5.8773   -0.0976    1.4828 O.2       1 <0>        -0.5448
     12 N2          4.6632   -1.9413    1.2288 N.am      1 <0>        -0.7433
     13 C10         5.8657   -2.7644    1.0779 C.3       1 <0>         0.1215
     14 C11         5.4609   -4.2244    0.8648 C.3       1 <0>        -0.1291
     15 C12         6.7168   -5.0840    0.7072 C.3       1 <0>        -0.1464
     16 C13         6.3120   -6.5440    0.4941 C.3       1 <0>        -0.0049
     17 N3          7.5178   -7.3693    0.3428 N.4       1 <0>        -0.4013
     18 C14         8.2394   -7.0263   -0.8905 C.3       1 <0>        -0.0015
     19 C15         9.5271   -7.8497   -0.9708 C.3       1 <0>         0.0241
     20 N4          9.1932   -9.2805   -0.9400 N.3       1 <0>        -0.5318
     21 C16         8.4715   -9.6236    0.2933 C.3       1 <0>         0.0228
     22 C17         7.1839   -8.8001    0.3736 C.3       1 <0>         0.0031
     23 C18        10.3989  -10.1059   -1.0913 C.3       1 <0>         0.1797
     24 C19        10.0148  -11.5631   -1.0815 C.ar      1 <0>        -0.0929
     25 C20         8.9179  -11.9935   -1.8044 C.ar      1 <0>        -0.0953
     26 C21         8.5684  -13.3310   -1.7993 C.ar      1 <0>        -0.1214
     27 C22         9.3097  -14.2363   -1.0633 C.ar      1 <0>        -0.1093
     28 C23        10.4032  -13.8049   -0.3358 C.ar      1 <0>        -0.1154
     29 C24        10.7558  -12.4683   -0.3451 C.ar      1 <0>        -0.1100
     30 C25        11.0748   -9.7733   -2.3965 C.ar      1 <0>        -0.0930
     31 C26        10.3234   -9.6358   -3.5486 C.ar      1 <0>        -0.0940
     32 C27        10.9428   -9.3260   -4.7450 C.ar      1 <0>        -0.1218
     33 C28        12.3148   -9.1636   -4.7912 C.ar      1 <0>        -0.1091
     34 C29        13.0669   -9.3067   -3.6402 C.ar      1 <0>        -0.1157
     35 C30        12.4469   -9.6114   -2.4428 C.ar      1 <0>        -0.1099
     36 H1         -0.8291    5.6833    2.5119 H         1 <0>         0.0786
     37 H2         -1.6458    4.2445    3.2115 H         1 <0>         0.0836
     38 H3         -1.6795    4.5221    1.4371 H         1 <0>         0.0836
     39 H4          1.4573    5.5461    2.4361 H         1 <0>         0.1424
     40 H5          3.5478    4.2300    2.1912 H         1 <0>         0.1422
     41 H6          1.1117    0.7219    1.7093 H         1 <0>         0.1588
     42 H7          4.6827    2.0040    1.8277 H         1 <0>         0.1418
     43 H8          2.5792   -0.2565    1.5295 H         1 <0>         0.1334
     44 H9          3.6680   -2.4073    1.1794 H         1 <0>         0.4245
     45 H10         6.4435   -2.4137    0.2101 H         1 <0>         0.0685
     46 H11         6.4818   -2.6834    1.9856 H         1 <0>         0.0687
     47 H12         4.8830   -4.5751    1.7326 H         1 <0>         0.0827
     48 H13         4.8448   -4.3054   -0.0429 H         1 <0>         0.0824
     49 H14         7.2946   -4.7333   -0.1606 H         1 <0>         0.0904
     50 H15         7.3329   -5.0030    1.6149 H         1 <0>         0.0911
     51 H16         5.7341   -6.8947    1.3619 H         1 <0>         0.1322
     52 H17         5.6959   -6.6250   -0.4136 H         1 <0>         0.1291
     53 H18         7.6050   -7.2502   -1.7608 H         1 <0>         0.1354
     54 H19         8.4880   -5.9548   -0.8839 H         1 <0>         0.1364
     55 H20        10.0544   -7.6153   -1.9073 H         1 <0>         0.1267
     56 H21        10.1732   -7.6044   -0.1150 H         1 <0>         0.0615
     57 H22         8.2228  -10.6951    0.2866 H         1 <0>         0.1274
     58 H23         9.1059   -9.3999    1.1637 H         1 <0>         0.0614
     59 H24         6.6561   -9.0334    1.3101 H         1 <0>         0.1358
     60 H25         6.5374   -9.0443   -0.4822 H         1 <0>         0.1351
     61 H26        11.0715   -9.8857   -0.2492 H         1 <0>         0.0661
     62 H27         8.3363  -11.2856   -2.3761 H         1 <0>         0.1264
     63 H28         7.7139  -13.6679   -2.3673 H         1 <0>         0.1246
     64 H29         9.0344  -15.2806   -1.0563 H         1 <0>         0.1256
     65 H30        10.9821  -14.5121    0.2395 H         1 <0>         0.1264
     66 H31        11.6101  -12.1313    0.2232 H         1 <0>         0.1206
     67 H32         9.2519   -9.7667   -3.5133 H         1 <0>         0.1262
     68 H33        10.3552   -9.2145   -5.6443 H         1 <0>         0.1245
     69 H34        12.7991   -8.9252   -5.7266 H         1 <0>         0.1255
     70 H35        14.1388   -9.1802   -3.6763 H         1 <0>         0.1263
     71 H36        13.0345   -9.7232   -1.5436 H         1 <0>         0.1205
     72 H37         8.1806   -7.1566    1.1945 H         1 <0>         0.4379
@<TRIPOS>BOND
     1    1    2 1
     2    1   36 1
     3    1   37 1
     4    1   38 1
     5    2    7 ar
     6    2    3 ar
     7    3    4 ar
     8    3   39 1
     9    4    5 ar
    10    4   40 1
    11    5    6 ar
    12    5    8 1
    13    6    7 ar
    14    6   41 1
    15    8    9 2
    16    8   42 1
    17    9   10 1
    18    9   43 1
    19   10   11 2
    20   10   12 am
    21   12   13 1
    22   12   44 1
    23   13   14 1
    24   13   45 1
    25   13   46 1
    26   14   15 1
    27   14   47 1
    28   14   48 1
    29   15   16 1
    30   15   49 1
    31   15   50 1
    32   16   17 1
    33   16   51 1
    34   16   52 1
    35   17   22 1
    36   17   18 1
    37   17   72 1
    38   18   19 1
    39   18   53 1
    40   18   54 1
    41   19   20 1
    42   19   55 1
    43   19   56 1
    44   20   21 1
    45   20   23 1
    46   21   22 1
    47   21   57 1
    48   21   58 1
    49   22   59 1
    50   22   60 1
    51   23   24 1
    52   23   30 1
    53   23   61 1
    54   24   29 ar
    55   24   25 ar
    56   25   26 ar
    57   25   62 1
    58   26   27 ar
    59   26   63 1
    60   27   28 ar
    61   27   64 1
    62   28   29 ar
    63   28   65 1
    64   29   66 1
    65   30   35 ar
    66   30   31 ar
    67   31   32 ar
    68   31   67 1
    69   32   33 ar
    70   32   68 1
    71   33   34 ar
    72   33   69 1
    73   34   35 ar
    74   34   70 1
    75   35   71 1
@<TRIPOS>MOLECULE
ZINC22463332
   72    75     0     0     0
SMALL
USER_CHARGES
(E)-N-[4-(4-benzhydrylpiperazin-1-yl)butyl]-3-(6-methyl-3-pyridyl)prop-2-enamide
@<TRIPOS>ATOM
      1 C1         -1.0753    4.6234    2.3507 C.3       1 <0>        -0.1118
      2 C2          0.1968    3.8292    2.2023 C.ar      1 <0>         0.1419
      3 C3          1.4166    4.4790    2.2748 C.ar      1 <0>        -0.1725
      4 C4          2.5827    3.7483    2.1383 C.ar      1 <0>        -0.0461
      5 C5          2.4792    2.3650    1.9299 C.ar      1 <0>        -0.1419
      6 C6          1.2084    1.7856    1.8692 C.ar      1 <0>         0.1263
      7 N1          0.1284    2.5272    1.9999 N.ar      1 <0>        -0.4866
      8 C7          3.6875    1.5380    1.7783 C.2       1 <0>        -0.0075
      9 C8          3.5744    0.2095    1.5789 C.2       1 <0>        -0.2213
     10 C9          4.7763   -0.6131    1.4281 C.2       1 <0>         0.5509
     11 O1          5.8773   -0.0976    1.4828 O.2       1 <0>        -0.5471
     12 N2          4.6632   -1.9413    1.2288 N.am      1 <0>        -0.7408
     13 C10         5.8657   -2.7644    1.0779 C.3       1 <0>         0.1223
     14 C11         5.4609   -4.2244    0.8648 C.3       1 <0>        -0.1312
     15 C12         6.7168   -5.0840    0.7072 C.3       1 <0>        -0.1162
     16 C13         6.3120   -6.5440    0.4941 C.3       1 <0>         0.0544
     17 N3          7.5178   -7.3693    0.3428 N.3       1 <0>        -0.5380
     18 C14         8.2394   -7.0263   -0.8905 C.3       1 <0>         0.0230
     19 C15         9.5271   -7.8497   -0.9708 C.3       1 <0>        -0.0010
     20 N4          9.1932   -9.2805   -0.9400 N.4       1 <0>        -0.3986
     21 C16         8.4715   -9.6236    0.2933 C.3       1 <0>        -0.0012
     22 C17         7.1839   -8.8001    0.3736 C.3       1 <0>         0.0280
     23 C18        10.3989  -10.1059   -1.0913 C.3       1 <0>         0.1384
     24 C19        10.0148  -11.5631   -1.0815 C.ar      1 <0>        -0.1297
     25 C20         8.9179  -11.9935   -1.8044 C.ar      1 <0>        -0.1204
     26 C21         8.5684  -13.3310   -1.7993 C.ar      1 <0>        -0.1032
     27 C22         9.3097  -14.2363   -1.0633 C.ar      1 <0>        -0.0924
     28 C23        10.4032  -13.8049   -0.3358 C.ar      1 <0>        -0.1037
     29 C24        10.7558  -12.4683   -0.3451 C.ar      1 <0>        -0.0871
     30 C25        11.0748   -9.7733   -2.3965 C.ar      1 <0>        -0.1306
     31 C26        10.3234   -9.6358   -3.5486 C.ar      1 <0>        -0.1196
     32 C27        10.9428   -9.3260   -4.7450 C.ar      1 <0>        -0.1035
     33 C28        12.3148   -9.1636   -4.7912 C.ar      1 <0>        -0.0919
     34 C29        13.0669   -9.3067   -3.6402 C.ar      1 <0>        -0.1040
     35 C30        12.4469   -9.6114   -2.4428 C.ar      1 <0>        -0.0867
     36 H1         -0.8291    5.6833    2.5119 H         1 <0>         0.0780
     37 H2         -1.6458    4.2445    3.2115 H         1 <0>         0.0830
     38 H3         -1.6795    4.5221    1.4371 H         1 <0>         0.0829
     39 H4          1.4573    5.5461    2.4361 H         1 <0>         0.1417
     40 H5          3.5478    4.2300    2.1912 H         1 <0>         0.1419
     41 H6          1.1117    0.7219    1.7093 H         1 <0>         0.1591
     42 H7          4.6827    2.0040    1.8277 H         1 <0>         0.1416
     43 H8          2.5792   -0.2565    1.5295 H         1 <0>         0.1328
     44 H9          3.6680   -2.4073    1.1794 H         1 <0>         0.4230
     45 H10         6.4435   -2.4137    0.2101 H         1 <0>         0.0651
     46 H11         6.4818   -2.6834    1.9856 H         1 <0>         0.0674
     47 H12         4.8830   -4.5751    1.7326 H         1 <0>         0.0750
     48 H13         4.8448   -4.3054   -0.0429 H         1 <0>         0.0713
     49 H14         7.2946   -4.7333   -0.1606 H         1 <0>         0.0670
     50 H15         7.3329   -5.0030    1.6149 H         1 <0>         0.0809
     51 H16         5.7341   -6.8947    1.3619 H         1 <0>         0.0903
     52 H17         5.6959   -6.6250   -0.4136 H         1 <0>         0.0473
     53 H18         7.6050   -7.2502   -1.7608 H         1 <0>         0.0592
     54 H19         8.4880   -5.9548   -0.8839 H         1 <0>         0.1273
     55 H20        10.0544   -7.6153   -1.9073 H         1 <0>         0.1365
     56 H21        10.1732   -7.6044   -0.1150 H         1 <0>         0.1374
     57 H22         8.2228  -10.6951    0.2866 H         1 <0>         0.1368
     58 H23         9.1059   -9.3999    1.1637 H         1 <0>         0.1373
     59 H24         6.6561   -9.0334    1.3101 H         1 <0>         0.1249
     60 H25         6.5374   -9.0443   -0.4822 H         1 <0>         0.0590
     61 H26        11.0715   -9.8857   -0.2492 H         1 <0>         0.1450
     62 H27         8.3363  -11.2856   -2.3761 H         1 <0>         0.1146
     63 H28         7.7139  -13.6679   -2.3673 H         1 <0>         0.1350
     64 H29         9.0344  -15.2806   -1.0563 H         1 <0>         0.1359
     65 H30        10.9821  -14.5121    0.2395 H         1 <0>         0.1372
     66 H31        11.6101  -12.1313    0.2232 H         1 <0>         0.1328
     67 H32         9.2519   -9.7667   -3.5133 H         1 <0>         0.1147
     68 H33        10.3552   -9.2145   -5.6443 H         1 <0>         0.1350
     69 H34        12.7991   -8.9252   -5.7266 H         1 <0>         0.1359
     70 H35        14.1388   -9.1802   -3.6763 H         1 <0>         0.1372
     71 H36        13.0345   -9.7232   -1.5436 H         1 <0>         0.1329
     72 H37         8.5304   -9.4930   -1.7918 H         1 <0>         0.4269
@<TRIPOS>BOND
     1    1    2 1
     2    1   36 1
     3    1   37 1
     4    1   38 1
     5    2    7 ar
     6    2    3 ar
     7    3    4 ar
     8    3   39 1
     9    4    5 ar
    10    4   40 1
    11    5    6 ar
    12    5    8 1
    13    6    7 ar
    14    6   41 1
    15    8    9 2
    16    8   42 1
    17    9   10 1
    18    9   43 1
    19   10   11 2
    20   10   12 am
    21   12   13 1
    22   12   44 1
    23   13   14 1
    24   13   45 1
    25   13   46 1
    26   14   15 1
    27   14   47 1
    28   14   48 1
    29   15   16 1
    30   15   49 1
    31   15   50 1
    32   16   17 1
    33   16   51 1
    34   16   52 1
    35   17   22 1
    36   17   18 1
    37   18   19 1
    38   18   53 1
    39   18   54 1
    40   19   20 1
    41   19   55 1
    42   19   56 1
    43   20   21 1
    44   20   23 1
    45   20   72 1
    46   21   22 1
    47   21   57 1
    48   21   58 1
    49   22   59 1
    50   22   60 1
    51   23   24 1
    52   23   30 1
    53   23   61 1
    54   24   29 ar
    55   24   25 ar
    56   25   26 ar
    57   25   62 1
    58   26   27 ar
    59   26   63 1
    60   27   28 ar
    61   27   64 1
    62   28   29 ar
    63   28   65 1
    64   29   66 1
    65   30   35 ar
    66   30   31 ar
    67   31   32 ar
    68   31   67 1
    69   32   33 ar
    70   32   68 1
    71   33   34 ar
    72   33   69 1
    73   34   35 ar
    74   34   70 1
    75   35   71 1
@<TRIPOS>MOLECULE
ZINC22463332
   71    74     0     0     0
SMALL
USER_CHARGES
(E)-N-[4-(4-benzhydrylpiperazin-1-yl)butyl]-3-(6-methyl-3-pyridyl)prop-2-enamide
@<TRIPOS>ATOM
      1 C1         -1.0753    4.6234    2.3507 C.3       1 <0>        -0.1101
      2 C2          0.1968    3.8292    2.2023 C.ar      1 <0>         0.1374
      3 C3          1.4166    4.4790    2.2748 C.ar      1 <0>        -0.1727
      4 C4          2.5827    3.7483    2.1383 C.ar      1 <0>        -0.0484
      5 C5          2.4792    2.3650    1.9299 C.ar      1 <0>        -0.1357
      6 C6          1.2084    1.7856    1.8692 C.ar      1 <0>         0.1246
      7 N1          0.1284    2.5272    1.9999 N.ar      1 <0>        -0.4861
      8 C7          3.6875    1.5380    1.7783 C.2       1 <0>        -0.0172
      9 C8          3.5744    0.2095    1.5789 C.2       1 <0>        -0.2118
     10 C9          4.7763   -0.6131    1.4281 C.2       1 <0>         0.5474
     11 O1          5.8773   -0.0976    1.4828 O.2       1 <0>        -0.5482
     12 N2          4.6632   -1.9413    1.2288 N.am      1 <0>        -0.7371
     13 C10         5.8657   -2.7644    1.0779 C.3       1 <0>         0.1215
     14 C11         5.4609   -4.2244    0.8648 C.3       1 <0>        -0.1291
     15 C12         6.7168   -5.0840    0.7072 C.3       1 <0>        -0.1143
     16 C13         6.3120   -6.5440    0.4941 C.3       1 <0>         0.0567
     17 N3          7.5178   -7.3693    0.3428 N.3       1 <0>        -0.5396
     18 C14         8.2394   -7.0263   -0.8905 C.3       1 <0>         0.0559
     19 C15         9.5271   -7.8497   -0.9708 C.3       1 <0>         0.0565
     20 N4          9.1932   -9.2805   -0.9400 N.3       1 <0>        -0.5291
     21 C16         8.4715   -9.6236    0.2933 C.3       1 <0>         0.0562
     22 C17         7.1839   -8.8001    0.3736 C.3       1 <0>         0.0591
     23 C18        10.3989  -10.1059   -1.0913 C.3       1 <0>         0.1675
     24 C19        10.0148  -11.5631   -1.0815 C.ar      1 <0>        -0.0754
     25 C20         8.9179  -11.9935   -1.8044 C.ar      1 <0>        -0.0901
     26 C21         8.5684  -13.3310   -1.7993 C.ar      1 <0>        -0.1239
     27 C22         9.3097  -14.2363   -1.0633 C.ar      1 <0>        -0.1185
     28 C23        10.4032  -13.8049   -0.3358 C.ar      1 <0>        -0.1203
     29 C24        10.7558  -12.4683   -0.3451 C.ar      1 <0>        -0.1131
     30 C25        11.0748   -9.7733   -2.3965 C.ar      1 <0>        -0.0752
     31 C26        10.3234   -9.6358   -3.5486 C.ar      1 <0>        -0.0894
     32 C27        10.9428   -9.3260   -4.7450 C.ar      1 <0>        -0.1240
     33 C28        12.3148   -9.1636   -4.7912 C.ar      1 <0>        -0.1184
     34 C29        13.0669   -9.3067   -3.6402 C.ar      1 <0>        -0.1205
     35 C30        12.4469   -9.6114   -2.4428 C.ar      1 <0>        -0.1132
     36 H1         -0.8291    5.6833    2.5119 H         1 <0>         0.0766
     37 H2         -1.6458    4.2445    3.2115 H         1 <0>         0.0817
     38 H3         -1.6795    4.5221    1.4371 H         1 <0>         0.0817
     39 H4          1.4573    5.5461    2.4361 H         1 <0>         0.1402
     40 H5          3.5478    4.2300    2.1912 H         1 <0>         0.1414
     41 H6          1.1117    0.7219    1.7093 H         1 <0>         0.1600
     42 H7          4.6827    2.0040    1.8277 H         1 <0>         0.1417
     43 H8          2.5792   -0.2565    1.5295 H         1 <0>         0.1324
     44 H9          3.6680   -2.4073    1.1794 H         1 <0>         0.4223
     45 H10         6.4435   -2.4137    0.2101 H         1 <0>         0.0662
     46 H11         6.4818   -2.6834    1.9856 H         1 <0>         0.0674
     47 H12         4.8830   -4.5751    1.7326 H         1 <0>         0.0714
     48 H13         4.8448   -4.3054   -0.0429 H         1 <0>         0.0693
     49 H14         7.2946   -4.7333   -0.1606 H         1 <0>         0.0663
     50 H15         7.3329   -5.0030    1.6149 H         1 <0>         0.0752
     51 H16         5.7341   -6.8947    1.3619 H         1 <0>         0.0754
     52 H17         5.6959   -6.6250   -0.4136 H         1 <0>         0.0349
     53 H18         7.6050   -7.2502   -1.7608 H         1 <0>         0.0422
     54 H19         8.4880   -5.9548   -0.8839 H         1 <0>         0.0826
     55 H20        10.0544   -7.6153   -1.9073 H         1 <0>         0.0837
     56 H21        10.1732   -7.6044   -0.1150 H         1 <0>         0.0428
     57 H22         8.2228  -10.6951    0.2866 H         1 <0>         0.0845
     58 H23         9.1059   -9.3999    1.1637 H         1 <0>         0.0427
     59 H24         6.6561   -9.0334    1.3101 H         1 <0>         0.0796
     60 H25         6.5374   -9.0443   -0.4822 H         1 <0>         0.0425
     61 H26        11.0715   -9.8857   -0.2492 H         1 <0>         0.0569
     62 H27         8.3363  -11.2856   -2.3761 H         1 <0>         0.1274
     63 H28         7.7139  -13.6679   -2.3673 H         1 <0>         0.1210
     64 H29         9.0344  -15.2806   -1.0563 H         1 <0>         0.1204
     65 H30        10.9821  -14.5121    0.2395 H         1 <0>         0.1215
     66 H31        11.6101  -12.1313    0.2232 H         1 <0>         0.1185
     67 H32         9.2519   -9.7667   -3.5133 H         1 <0>         0.1271
     68 H33        10.3552   -9.2145   -5.6443 H         1 <0>         0.1209
     69 H34        12.7991   -8.9252   -5.7266 H         1 <0>         0.1203
     70 H35        14.1388   -9.1802   -3.6763 H         1 <0>         0.1214
     71 H36        13.0345   -9.7232   -1.5436 H         1 <0>         0.1184
@<TRIPOS>BOND
     1    1    2 1
     2    1   36 1
     3    1   37 1
     4    1   38 1
     5    2    7 ar
     6    2    3 ar
     7    3    4 ar
     8    3   39 1
     9    4    5 ar
    10    4   40 1
    11    5    6 ar
    12    5    8 1
    13    6    7 ar
    14    6   41 1
    15    8    9 2
    16    8   42 1
    17    9   10 1
    18    9   43 1
    19   10   11 2
    20   10   12 am
    21   12   13 1
    22   12   44 1
    23   13   14 1
    24   13   45 1
    25   13   46 1
    26   14   15 1
    27   14   47 1
    28   14   48 1
    29   15   16 1
    30   15   49 1
    31   15   50 1
    32   16   17 1
    33   16   51 1
    34   16   52 1
    35   17   22 1
    36   17   18 1
    37   18   19 1
    38   18   53 1
    39   18   54 1
    40   19   20 1
    41   19   55 1
    42   19   56 1
    43   20   21 1
    44   20   23 1
    45   21   22 1
    46   21   57 1
    47   21   58 1
    48   22   59 1
    49   22   60 1
    50   23   24 1
    51   23   30 1
    52   23   61 1
    53   24   29 ar
    54   24   25 ar
    55   25   26 ar
    56   25   62 1
    57   26   27 ar
    58   26   63 1
    59   27   28 ar
    60   27   64 1
    61   28   29 ar
    62   28   65 1
    63   29   66 1
    64   30   35 ar
    65   30   31 ar
    66   31   32 ar
    67   31   67 1
    68   32   33 ar
    69   32   68 1
    70   33   34 ar
    71   33   69 1
    72   34   35 ar
    73   34   70 1
    74   35   71 1
@<TRIPOS>MOLECULE
ZINC04546338
   54    53     0     0     0
SMALL
USER_CHARGES

@<TRIPOS>ATOM
      1 C1          0.9159    1.9482   -0.5638 C.3       1 <0>        -0.1538
      2 C2          1.0462    0.4289   -0.4392 C.3       1 <0>        -0.1261
      3 C3          1.3856   -0.1677   -1.8066 C.3       1 <0>        -0.1212
      4 C4          1.5158   -1.6870   -1.6820 C.3       1 <0>        -0.1147
      5 C5          1.8552   -2.2836   -3.0494 C.3       1 <0>        -0.1015
      6 C6          1.9835   -3.7801   -2.9267 C.2       1 <0>        -0.1631
      7 C7          1.3050   -4.5636   -3.7280 C.2       1 <0>        -0.1486
      8 C8          0.5228   -3.9746   -4.8735 C.3       1 <0>        -0.0837
      9 C9          0.9256   -4.6522   -6.1578 C.2       1 <0>        -0.1567
     10 C10         0.0106   -5.1651   -6.9427 C.2       1 <0>        -0.1453
     11 C11        -1.4495   -4.9392   -6.6459 C.3       1 <0>        -0.0837
     12 C12        -2.1280   -4.3710   -7.8656 C.2       1 <0>        -0.1445
     13 C13        -3.1969   -4.9752   -8.3733 C.2       1 <0>        -0.1263
     14 C14        -3.8089   -6.1081   -7.6616 C.2       1 <0>        -0.1422
     15 C15        -4.8117   -6.7788   -8.2183 C.2       1 <0>        -0.1688
     16 C16        -5.4385   -7.9393   -7.4893 C.3       1 <0>         0.1322
     17 H1         -5.2543   -8.8592   -8.0443 H         1 <0>         0.1095
     18 C17        -6.9464   -7.7106   -7.3674 C.3       1 <0>        -0.1454
     19 C18        -7.6001   -8.9432   -6.7395 C.3       1 <0>        -0.0895
     20 C19        -9.1080   -8.7144   -6.6176 C.3       1 <0>        -0.1839
     21 C20        -9.7518   -9.9285   -5.9991 C.2       1 <0>         0.4873
     22 O1         -9.0681  -10.8878   -5.6849 O.co2     1 <0>        -0.6979
     23 O2        -10.9565   -9.9514   -5.8129 O.co2     1 <0>        -0.7101
     24 O3         -4.8661   -8.0474   -6.1845 O.3       1 <0>        -0.5544
     25 H2          1.8582    2.3658   -0.9186 H         1 <0>         0.0525
     26 H3          0.1227    2.1881   -1.2718 H         1 <0>         0.0537
     27 H4          0.6741    2.3733    0.4104 H         1 <0>         0.0528
     28 H5          1.8394    0.1891    0.2689 H         1 <0>         0.0600
     29 H6          0.1039    0.0113   -0.0844 H         1 <0>         0.0614
     30 H7          0.5923    0.0721   -2.5147 H         1 <0>         0.0615
     31 H8          2.3278    0.2499   -2.1615 H         1 <0>         0.0603
     32 H9          2.3091   -1.9269   -0.9740 H         1 <0>         0.0608
     33 H10         0.5736   -2.1046   -1.3272 H         1 <0>         0.0629
     34 H11         1.0620   -2.0438   -3.7575 H         1 <0>         0.0761
     35 H12         2.7975   -1.8661   -3.4043 H         1 <0>         0.0671
     36 H13         2.6348   -4.2067   -2.1783 H         1 <0>         0.1078
     37 H14         1.3063   -5.6316   -3.5676 H         1 <0>         0.1095
     38 H15        -0.5429   -4.1259   -4.7015 H         1 <0>         0.0848
     39 H16         0.7313   -2.9071   -4.9450 H         1 <0>         0.0826
     40 H17         1.9685   -4.7151   -6.4312 H         1 <0>         0.1083
     41 H18         0.3028   -5.7497   -7.8025 H         1 <0>         0.1098
     42 H19        -1.9167   -5.8870   -6.3786 H         1 <0>         0.0859
     43 H20        -1.5475   -4.2391   -5.8163 H         1 <0>         0.0835
     44 H21        -1.7454   -3.4726   -8.3271 H         1 <0>         0.1106
     45 H22        -3.6166   -4.6346   -9.3083 H         1 <0>         0.1116
     46 H23        -3.4429   -6.3946   -6.6867 H         1 <0>         0.1257
     47 H24        -5.1776   -6.4923   -9.1932 H         1 <0>         0.1155
     48 H25        -7.1321   -6.8404   -6.7379 H         1 <0>         0.0601
     49 H26        -7.3692   -7.5397   -8.3575 H         1 <0>         0.0661
     50 H27        -7.4143   -9.8134   -7.3690 H         1 <0>         0.0581
     51 H28        -7.1773   -9.1141   -5.7495 H         1 <0>         0.0658
     52 H29        -9.2937   -7.8442   -5.9880 H         1 <0>         0.0536
     53 H30        -9.5308   -8.5436   -7.6076 H         1 <0>         0.0534
     54 H31        -4.9920   -7.2628   -5.6335 H         1 <0>         0.3707
@<TRIPOS>BOND
     1    1    2 1
     2    1   25 1
     3    1   26 1
     4    1   27 1
     5    2    3 1
     6    2   28 1
     7    2   29 1
     8    3    4 1
     9    3   30 1
    10    3   31 1
    11    4    5 1
    12    4   32 1
    13    4   33 1
    14    5    6 1
    15    5   34 1
    16    5   35 1
    17    6    7 2
    18    6   36 1
    19    7    8 1
    20    7   37 1
    21    8    9 1
    22    8   38 1
    23    8   39 1
    24    9   10 2
    25    9   40 1
    26   10   11 1
    27   10   41 1
    28   11   12 1
    29   11   42 1
    30   11   43 1
    31   12   13 2
    32   12   44 1
    33   13   14 1
    34   13   45 1
    35   14   15 2
    36   14   46 1
    37   15   16 1
    38   15   47 1
    39   16   17 1
    40   16   18 1
    41   16   24 1
    42   18   19 1
    43   18   48 1
    44   18   49 1
    45   19   20 1
    46   19   50 1
    47   19   51 1
    48   20   21 1
    49   20   52 1
    50   20   53 1
    51   21   22 2
    52   21   23 1
    53   24   54 1
@<TRIPOS>MOLECULE
ZINC01914818
   75    79     0     0     0
SMALL
USER_CHARGES
3-[1-[(4-chlorophenyl)methyl]-5-(2-quinolylmethoxy)-3-tert-butylsulfanyl-indol-2-yl]-2,2-dimethyl-propanoic acid
@<TRIPOS>ATOM
      1 C1         -2.2994    0.4408   -2.1641 C.3       1 <0>        -0.1409
      2 C2         -2.0091    1.7106   -1.3616 C.3       1 <0>        -0.0688
      3 C3         -3.2601    2.5909   -1.3297 C.3       1 <0>        -0.1250
      4 C4         -0.8615    2.4789   -2.0200 C.3       1 <0>        -0.1348
      5 S1         -1.5425    1.2615    0.3329 S.3       1 <0>        -0.0761
      6 C5         -0.1057    0.2623    0.1287 C.2       1 <0>        -0.2121
      7 C6          1.2854    0.7294    0.0961 C.ar      1 <0>        -0.0290
      8 C7          1.8862    1.9855    0.2023 C.ar      1 <0>        -0.1025
      9 C8          3.2604    2.0929    0.1292 C.ar      1 <0>         0.1012
     10 C9          4.0448    0.9561   -0.0500 C.ar      1 <0>        -0.1851
     11 C10         3.4633   -0.2873   -0.1554 C.ar      1 <0>        -0.0910
     12 C11         2.0798   -0.4166   -0.0842 C.ar      1 <0>         0.0715
     13 N1          1.2276   -1.4983   -0.1553 N.pl3     1 <0>        -0.4732
     14 C12        -0.0753   -1.0750   -0.0262 C.2       1 <0>         0.1911
     15 C13        -1.2855   -1.9725   -0.0541 C.3       1 <0>        -0.0466
     16 C14        -1.7321   -2.2711    1.3785 C.3       1 <0>        -0.0935
     17 C15        -0.5931   -2.9574    2.1352 C.3       1 <0>        -0.1329
     18 C16        -2.0963   -0.9624    2.0825 C.3       1 <0>        -0.1199
     19 C17        -2.9352   -3.1783    1.3509 C.2       1 <0>         0.4768
     20 O1         -3.3888   -3.5480    0.2939 O.co2     1 <0>        -0.6432
     21 C18         1.6465   -2.8898   -0.3409 C.3       1 <0>         0.1481
     22 C19         2.0210   -3.4838    0.9925 C.ar      1 <0>        -0.1137
     23 C20         3.0466   -2.9267    1.7335 C.ar      1 <0>        -0.0905
     24 C21         3.3867   -3.4677    2.9591 C.ar      1 <0>        -0.1188
     25 C22         2.7082   -4.5737    3.4391 C.ar      1 <0>        -0.0211
     26 C23         1.6857   -5.1341    2.6944 C.ar      1 <0>        -0.1147
     27 C24         1.3426   -4.5889    1.4716 C.ar      1 <0>        -0.0644
     28 Cl1         3.1392   -5.2576    4.9753 Cl        1 <0>        -0.0743
     29 O2          3.8508    3.3138    0.2320 O.3       1 <0>        -0.3139
     30 C25         5.2767    3.3540    0.1479 C.3       1 <0>         0.1126
     31 C26         5.7478    4.7792    0.2815 C.ar      1 <0>         0.1647
     32 C27         4.8061    5.7912    0.4557 C.ar      1 <0>        -0.1502
     33 C28         5.2147    7.0886    0.5791 C.ar      1 <0>        -0.0578
     34 C29         6.5953    7.3581    0.5246 C.ar      1 <0>        -0.1044
     35 C30         7.0900    8.6668    0.6444 C.ar      1 <0>        -0.0947
     36 C31         8.4323    8.8865    0.5870 C.ar      1 <0>        -0.1187
     37 C32         9.3230    7.8293    0.4106 C.ar      1 <0>        -0.1019
     38 C33         8.8781    6.5489    0.2905 C.ar      1 <0>        -0.0928
     39 C34         7.4988    6.2816    0.3453 C.ar      1 <0>         0.1320
     40 N2          7.0330    5.0333    0.2362 N.ar      1 <0>        -0.4729
     41 H1         -3.1170   -0.1066   -1.6951 H         1 <0>         0.0711
     42 H2         -2.5798    0.7106   -3.1823 H         1 <0>         0.0545
     43 H3         -1.4082   -0.1864   -2.1868 H         1 <0>         0.0555
     44 H4         -3.0533    3.4956   -0.7580 H         1 <0>         0.0601
     45 H5         -3.5405    2.8608   -2.3479 H         1 <0>         0.0637
     46 H6         -4.0777    2.0436   -0.8607 H         1 <0>         0.0650
     47 H7          0.0297    1.8517   -2.0427 H         1 <0>         0.0577
     48 H8         -1.1419    2.7487   -3.0382 H         1 <0>         0.0518
     49 H9         -0.6547    3.3836   -1.4482 H         1 <0>         0.0605
     50 H10         1.2789    2.8684    0.3364 H         1 <0>         0.1323
     51 H11         5.1192    1.0508   -0.1059 H         1 <0>         0.1287
     52 H12         4.0811   -1.1623   -0.2938 H         1 <0>         0.1219
     53 H13        -2.0940   -1.4758   -0.5906 H         1 <0>         0.1013
     54 H14        -1.0343   -2.9056   -0.5583 H         1 <0>         0.0691
     55 H15         0.3178   -2.3675    2.0337 H         1 <0>         0.0453
     56 H16        -0.8561   -3.0412    3.1897 H         1 <0>         0.0548
     57 H17        -0.4296   -3.9524    1.7213 H         1 <0>         0.0581
     58 H18        -2.9077   -0.4734    1.5434 H         1 <0>         0.0625
     59 H19        -2.4144   -1.1751    3.1031 H         1 <0>         0.0515
     60 H20        -1.2261   -0.3062    2.1024 H         1 <0>         0.0473
     61 H21         0.8265   -3.4612   -0.7758 H         1 <0>         0.1049
     62 H22         2.5074   -2.9240   -1.0086 H         1 <0>         0.0981
     63 H23         3.5791   -2.0660    1.3566 H         1 <0>         0.1316
     64 H24         4.1850   -3.0297    3.5399 H         1 <0>         0.1306
     65 H25         1.1554   -5.9973    3.0688 H         1 <0>         0.1364
     66 H26         0.5442   -5.0261    0.8904 H         1 <0>         0.1393
     67 H27         5.7051    2.7531    0.9501 H         1 <0>         0.0868
     68 H28         5.5954    2.9548   -0.8150 H         1 <0>         0.0863
     69 H29         3.7541    5.5499    0.4935 H         1 <0>         0.1507
     70 H30         4.4986    7.8855    0.7150 H         1 <0>         0.1420
     71 H31         6.4096    9.4943    0.7811 H         1 <0>         0.1306
     72 H32         8.8120    9.8933    0.6796 H         1 <0>         0.1274
     73 H33        10.3834    8.0294    0.3683 H         1 <0>         0.1299
     74 H34         9.5818    5.7412    0.1536 H         1 <0>         0.1355
     75 O3         -3.5027   -3.5755    2.5006 O.co2     1 <0>        -0.7613
@<TRIPOS>BOND
     1    1    2 1
     2    1   41 1
     3    1   42 1
     4    1   43 1
     5    2    3 1
     6    2    4 1
     7    2    5 1
     8    3   44 1
     9    3   45 1
    10    3   46 1
    11    4   47 1
    12    4   48 1
    13    4   49 1
    14    5    6 1
    15    6   14 2
    16    6    7 1
    17    7   12 ar
    18    7    8 ar
    19    8    9 ar
    20    8   50 1
    21    9   10 ar
    22    9   29 1
    23   10   11 ar
    24   10   51 1
    25   11   12 ar
    26   11   52 1
    27   12   13 1
    28   13   14 1
    29   13   21 1
    30   14   15 1
    31   15   16 1
    32   15   53 1
    33   15   54 1
    34   16   17 1
    35   16   18 1
    36   16   19 1
    37   17   55 1
    38   17   56 1
    39   17   57 1
    40   18   58 1
    41   18   59 1
    42   18   60 1
    43   19   20 2
    44   19   75 1
    45   21   22 1
    46   21   61 1
    47   21   62 1
    48   22   27 ar
    49   22   23 ar
    50   23   24 ar
    51   23   63 1
    52   24   25 ar
    53   24   64 1
    54   25   26 ar
    55   25   28 1
    56   26   27 ar
    57   26   65 1
    58   27   66 1
    59   29   30 1
    60   30   31 1
    61   30   67 1
    62   30   68 1
    63   31   40 ar
    64   31   32 ar
    65   32   33 ar
    66   32   69 1
    67   33   34 ar
    68   33   70 1
    69   34   39 ar
    70   34   35 ar
    71   35   36 ar
    72   35   71 1
    73   36   37 ar
    74   36   72 1
    75   37   38 ar
    76   37   73 1
    77   38   39 ar
    78   38   74 1
    79   39   40 ar
@<TRIPOS>MOLECULE
ZINC05676683
   25    26     0     0     0
SMALL
USER_CHARGES
1-(3,4-dichlorophenyl)-3-(2-furyl)prop-2-en-1-one
@<TRIPOS>ATOM
      1 C1          9.4728    0.6429   -0.0884 C.2       1 <0>        -0.2215
      2 C2          8.5803   -0.4385   -0.0802 C.2       1 <0>        -0.1454
      3 C3          7.3089    0.1016   -0.0698 C.2       1 <0>        -0.0301
      4 O1          7.4325    1.4456   -0.0625 O.3       1 <0>        -0.1636
      5 C4          8.7316    1.7739   -0.0736 C.2       1 <0>        -0.0054
      6 C5          6.0954   -0.6237   -0.0621 C.2       1 <0>         0.0364
      7 C6          4.9081    0.0381   -0.0462 C.2       1 <0>        -0.2456
      8 C7          3.6956   -0.6865   -0.0385 C.2       1 <0>         0.4296
      9 O2          3.7140   -1.9048   -0.0460 O.2       1 <0>        -0.4542
     10 C8          2.4038    0.0336   -0.0213 C.ar      1 <0>        -0.1440
     11 C9          1.2036   -0.6802   -0.0136 C.ar      1 <0>        -0.0464
     12 C10         0.0021   -0.0041    0.0020 C.ar      1 <0>        -0.1088
     13 C11        -0.0167    1.3809    0.0096 C.ar      1 <0>        -0.0060
     14 C12         1.1710    2.0955    0.0021 C.ar      1 <0>        -0.0449
     15 C13         2.3797    1.4292   -0.0131 C.ar      1 <0>        -0.0553
     16 Cl1         1.1382    3.8311    0.0112 Cl        1 <0>        -0.0388
     17 Cl2        -1.5336    2.2251    0.0214 Cl        1 <0>        -0.0371
     18 H1         10.5511    0.5836   -0.1001 H         1 <0>         0.1572
     19 H2          8.8364   -1.4877   -0.0835 H         1 <0>         0.1598
     20 H3          9.1237    2.7802   -0.0706 H         1 <0>         0.2104
     21 H4          6.1117   -1.7035   -0.0687 H         1 <0>         0.1615
     22 H5          4.8918    1.1180   -0.0396 H         1 <0>         0.1369
     23 H6          1.2165   -1.7601   -0.0195 H         1 <0>         0.1518
     24 H7         -0.9265   -0.5556    0.0080 H         1 <0>         0.1514
     25 H8          3.3048    1.9865   -0.0189 H         1 <0>         0.1521
@<TRIPOS>BOND
     1    1    5 2
     2    1    2 1
     3    1   18 1
     4    2    3 2
     5    2   19 1
     6    3    4 1
     7    3    6 1
     8    4    5 1
     9    5   20 1
    10    6    7 2
    11    6   21 1
    12    7    8 1
    13    7   22 1
    14    8    9 2
    15    8   10 1
    16   10   15 ar
    17   10   11 ar
    18   11   12 ar
    19   11   23 1
    20   12   13 ar
    21   12   24 1
    22   13   14 ar
    23   13   17 1
    24   14   15 ar
    25   14   16 1
    26   15   25 1
@<TRIPOS>MOLECULE
ZINC00001536
   38    39     0     0     0
SMALL
USER_CHARGES

@<TRIPOS>ATOM
      1 C1         -0.0157    1.3058    0.0092 C.2       1 <0>        -0.1898
      2 C2          0.0021   -0.0041    0.0020 C.2       1 <0>        -0.1505
      3 C3         -1.2926   -0.7753    0.0102 C.3       1 <0>        -0.0556
      4 C4         -1.3183   -1.7262   -1.1586 C.ar      1 <0>        -0.0841
      5 C5         -1.8344   -1.3114   -2.3737 C.ar      1 <0>        -0.0961
      6 C6         -1.8626   -2.1763   -3.4511 C.ar      1 <0>        -0.1399
      7 C7         -1.3727   -3.4657   -3.3192 C.ar      1 <0>         0.1141
      8 C8         -0.8503   -3.8876   -2.0930 C.ar      1 <0>        -0.0690
      9 C9         -0.8219   -3.0060   -1.0148 C.ar      1 <0>        -0.0887
     10 C10        -0.3237   -5.2659   -1.9423 C.ar      1 <0>        -0.0550
     11 C11         0.9356   -5.4751   -1.3818 C.ar      1 <0>        -0.0938
     12 C12         1.4225   -6.7577   -1.2430 C.ar      1 <0>        -0.1452
     13 C13         0.6602   -7.8402   -1.6612 C.ar      1 <0>         0.1148
     14 C14        -0.5937   -7.6352   -2.2200 C.ar      1 <0>        -0.1056
     15 C15        -1.0890   -6.3550   -2.3554 C.ar      1 <0>        -0.0690
     16 C16        -1.4176   -8.8129   -2.6731 C.3       1 <0>        -0.0468
     17 C17        -0.9328   -9.2756   -4.0229 C.2       1 <0>        -0.1469
     18 C18        -0.5744  -10.5234   -4.1978 C.2       1 <0>        -0.1832
     19 O1          1.1430   -9.1030   -1.5236 O.3       1 <0>        -0.4926
     20 O2         -1.4004   -4.3171   -4.3776 O.3       1 <0>        -0.4925
     21 H1          0.9122    1.8585    0.0033 H         1 <0>         0.0989
     22 H2         -0.9582    1.8330    0.0166 H         1 <0>         0.0972
     23 H3          0.9446   -0.5313   -0.0098 H         1 <0>         0.1092
     24 H4         -1.3737   -1.3393    0.9394 H         1 <0>         0.0838
     25 H5         -2.1295   -0.0812   -0.0676 H         1 <0>         0.0788
     26 H6         -2.2171   -0.3071   -2.4804 H         1 <0>         0.1269
     27 H7         -2.2673   -1.8471   -4.3968 H         1 <0>         0.1312
     28 H8         -0.4159   -3.3249   -0.0662 H         1 <0>         0.1280
     29 H9          1.5293   -4.6334   -1.0570 H         1 <0>         0.1265
     30 H10         2.3980   -6.9204   -0.8089 H         1 <0>         0.1303
     31 H11        -2.0669   -6.1964   -2.7855 H         1 <0>         0.1308
     32 H12        -1.3172   -9.6251   -1.9531 H         1 <0>         0.0759
     33 H13        -2.4645   -8.5180   -2.7445 H         1 <0>         0.0805
     34 H14        -0.8808   -8.5784   -4.8461 H         1 <0>         0.1071
     35 H15        -0.6264  -11.2206   -3.3746 H         1 <0>         0.0957
     36 H16        -0.2270  -10.8550   -5.1652 H         1 <0>         0.0964
     37 H17         0.9169   -9.5209   -0.6813 H         1 <0>         0.3880
     38 H18        -0.6071   -4.2843   -4.9296 H         1 <0>         0.3900
@<TRIPOS>BOND
     1    1    2 2
     2    1   21 1
     3    1   22 1
     4    2    3 1
     5    2   23 1
     6    3    4 1
     7    3   24 1
     8    3   25 1
     9    4    9 ar
    10    4    5 ar
    11    5    6 ar
    12    5   26 1
    13    6    7 ar
    14    6   27 1
    15    7    8 ar
    16    7   20 1
    17    8    9 ar
    18    8   10 1
    19    9   28 1
    20   10   15 ar
    21   10   11 ar
    22   11   12 ar
    23   11   29 1
    24   12   13 ar
    25   12   30 1
    26   13   14 ar
    27   13   19 1
    28   14   15 ar
    29   14   16 1
    30   15   31 1
    31   16   17 1
    32   16   32 1
    33   16   33 1
    34   17   18 2
    35   17   34 1
    36   18   35 1
    37   18   36 1
    38   19   37 1
    39   20   38 1
@<TRIPOS>MOLECULE
ZINC05352535
   36    37     0     0     0
SMALL
USER_CHARGES
1-(4-bromophenyl)-3-(2,3-dimethoxyphenyl)-prop-2-en-1-one
@<TRIPOS>ATOM
      1 C1          2.2067    5.7084    0.0111 C.3       1 <0>         0.0233
      2 O1          2.3146    4.2835    0.0029 O.3       1 <0>        -0.3052
      3 C2          1.1529    3.5763    0.0098 C.ar      1 <0>         0.1085
      4 C3         -0.0625    4.2412    0.0245 C.ar      1 <0>        -0.1817
      5 C4         -1.2510    3.5291    0.0315 C.ar      1 <0>        -0.0861
      6 C5         -1.2378    2.1520    0.0196 C.ar      1 <0>        -0.1196
      7 C6         -0.0178    1.4641    0.0101 C.ar      1 <0>        -0.0689
      8 C7          1.1854    2.1864    0.0025 C.ar      1 <0>         0.0925
      9 O2          2.3746    1.5315   -0.0124 O.3       1 <0>        -0.3222
     10 C8          2.9307    1.2254   -1.2926 C.3       1 <0>         0.0339
     11 C9          0.0021   -0.0041    0.0020 C.2       1 <0>         0.0106
     12 C10        -1.1601   -0.6963    0.0094 C.2       1 <0>        -0.2432
     13 C11        -1.1409   -2.1137    0.0016 C.2       1 <0>         0.4249
     14 O3         -0.0783   -2.7081   -0.0117 O.2       1 <0>        -0.4541
     15 C12        -2.4114   -2.8705    0.0097 C.ar      1 <0>        -0.1452
     16 C13        -3.6315   -2.1918    0.0308 C.ar      1 <0>        -0.0696
     17 C14        -4.8129   -2.9030    0.0325 C.ar      1 <0>        -0.1031
     18 C15        -4.7908   -4.2878    0.0253 C.ar      1 <0>        -0.0652
     19 C16        -3.5838   -4.9667    0.0101 C.ar      1 <0>        -0.1017
     20 C17        -2.3958   -4.2667    0.0020 C.ar      1 <0>        -0.0571
     21 Br1        -6.4154   -5.2555    0.0356 Br        1 <0>        -0.0401
     22 H1          1.6589    6.0364   -0.8724 H         1 <0>         0.0571
     23 H2          1.6749    6.0274    0.9075 H         1 <0>         0.0583
     24 H3          3.2040    6.1483    0.0043 H         1 <0>         0.1043
     25 H4         -0.0836    5.3209    0.0301 H         1 <0>         0.1374
     26 H5         -2.1931    4.0570    0.0423 H         1 <0>         0.1354
     27 H6         -2.1677    1.6027    0.0213 H         1 <0>         0.1363
     28 H7          3.0982    2.1492   -1.8463 H         1 <0>         0.0496
     29 H8          3.8786    0.7034   -1.1616 H         1 <0>         0.0988
     30 H9          2.2395    0.5901   -1.8465 H         1 <0>         0.0471
     31 H10         0.9446   -0.5313   -0.0098 H         1 <0>         0.1421
     32 H11        -2.1026   -0.1691    0.0212 H         1 <0>         0.1365
     33 H12        -3.6499   -1.1120    0.0409 H         1 <0>         0.1411
     34 H13        -5.7573   -2.3792    0.0436 H         1 <0>         0.1405
     35 H14        -3.5730   -6.0466    0.0042 H         1 <0>         0.1406
     36 H15        -1.4551   -4.7972   -0.0105 H         1 <0>         0.1442
@<TRIPOS>BOND
     1    1    2 1
     2    1   22 1
     3    1   23 1
     4    1   24 1
     5    2    3 1
     6    3    8 ar
     7    3    4 ar
     8    4    5 ar
     9    4   25 1
    10    5    6 ar
    11    5   26 1
    12    6    7 ar
    13    6   27 1
    14    7    8 ar
    15    7   11 1
    16    8    9 1
    17    9   10 1
    18   10   28 1
    19   10   29 1
    20   10   30 1
    21   11   12 2
    22   11   31 1
    23   12   13 1
    24   12   32 1
    25   13   14 2
    26   13   15 1
    27   15   20 ar
    28   15   16 ar
    29   16   17 ar
    30   16   33 1
    31   17   18 ar
    32   17   34 1
    33   18   19 ar
    34   18   21 1
    35   19   20 ar
    36   19   35 1
    37   20   36 1
@<TRIPOS>MOLECULE
ZINC13477545
   37    39     0     0     0
SMALL
USER_CHARGES
(5Z)-5-[(4-ethoxyphenyl)methylene]-2-phenyl-thiazol-4-one
@<TRIPOS>ATOM
      1 C1         -0.7658   10.0706    1.2168 C.3       1 <0>        -0.1542
      2 C2         -1.1689    8.5948    1.2050 C.3       1 <0>         0.0511
      3 O1         -0.2041    7.8433    0.4657 O.3       1 <0>        -0.3094
      4 C3         -0.4147    6.5068    0.3582 C.ar      1 <0>         0.1619
      5 C4          0.4869    5.7181   -0.3481 C.ar      1 <0>        -0.1525
      6 C5          0.2781    4.3627   -0.4611 C.ar      1 <0>        -0.0459
      7 C6         -0.8456    3.7774    0.1375 C.ar      1 <0>        -0.1418
      8 C7         -1.7533    4.5779    0.8439 C.ar      1 <0>        -0.0327
      9 C8         -1.5316    5.9315    0.9544 C.ar      1 <0>        -0.2154
     10 C9         -1.0741    2.3331    0.0201 C.2       1 <0>         0.0852
     11 C10        -0.1129    1.5340   -0.5158 C.2       1 <0>        -0.2626
     12 C11        -0.1695    0.1026   -0.8895 C.2       1 <0>         0.5316
     13 O2         -1.1803   -0.5640   -0.7335 O.2       1 <0>        -0.4369
     14 N1          0.9286   -0.4117   -1.3984 N.2       1 <0>        -0.5978
     15 C12         2.0311    0.2996   -1.5724 C.2       1 <0>         0.3132
     16 S1          1.5723    1.9189   -0.9746 S.3       1 <0>        -0.0393
     17 C13         3.3270   -0.1392   -2.1276 C.ar      1 <0>        -0.0661
     18 C14         4.3847    0.7660   -2.2402 C.ar      1 <0>        -0.0646
     19 C15         5.5942    0.3478   -2.7548 C.ar      1 <0>        -0.1262
     20 C16         5.7577   -0.9624   -3.1688 C.ar      1 <0>        -0.0755
     21 C17         4.7123   -1.8632   -3.0654 C.ar      1 <0>        -0.1286
     22 C18         3.4990   -1.4601   -2.5478 C.ar      1 <0>        -0.0448
     23 H1          0.2130   10.1762    1.6847 H         1 <0>         0.0681
     24 H2         -0.7214   10.4434    0.1935 H         1 <0>         0.0681
     25 H3         -1.5018   10.6438    1.7807 H         1 <0>         0.0815
     26 H4         -2.1477    8.4892    0.7371 H         1 <0>         0.0662
     27 H5         -1.2133    8.2220    2.2283 H         1 <0>         0.0663
     28 H6          1.3526    6.1703   -0.8090 H         1 <0>         0.1407
     29 H7          0.9790    3.7511   -1.0099 H         1 <0>         0.1401
     30 H8         -2.6234    4.1328    1.3036 H         1 <0>         0.1380
     31 H9         -2.2287    6.5489    1.5015 H         1 <0>         0.1375
     32 H10        -2.0055    1.9044    0.3593 H         1 <0>         0.1608
     33 H11         4.2572    1.7900   -1.9213 H         1 <0>         0.1341
     34 H12         6.4142    1.0456   -2.8386 H         1 <0>         0.1372
     35 H13         6.7056   -1.2835   -3.5748 H         1 <0>         0.1339
     36 H14         4.8469   -2.8843   -3.3904 H         1 <0>         0.1367
     37 H15         2.6839   -2.1641   -2.4681 H         1 <0>         0.1419
@<TRIPOS>BOND
     1    1    2 1
     2    1   23 1
     3    1   24 1
     4    1   25 1
     5    2    3 1
     6    2   26 1
     7    2   27 1
     8    3    4 1
     9    4    9 ar
    10    4    5 ar
    11    5    6 ar
    12    5   28 1
    13    6    7 ar
    14    6   29 1
    15    7    8 ar
    16    7   10 1
    17    8    9 ar
    18    8   30 1
    19    9   31 1
    20   10   11 2
    21   10   32 1
    22   11   16 1
    23   11   12 1
    24   12   13 2
    25   12   14 1
    26   14   15 2
    27   15   16 1
    28   15   17 1
    29   17   22 ar
    30   17   18 ar
    31   18   19 ar
    32   18   33 1
    33   19   20 ar
    34   19   34 1
    35   20   21 ar
    36   20   35 1
    37   21   22 ar
    38   21   36 1
    39   22   37 1
@<TRIPOS>MOLECULE
ZINC15018459
   33    35     0     0     0
SMALL
USER_CHARGES
(5Z)-5-[(3-chlorophenyl)methylene]-2-(p-tolyl)thiazol-4-one
@<TRIPOS>ATOM
      1 C1          9.3456    7.9352   -0.6549 C.3       1 <0>        -0.1255
      2 C2          8.3878    6.7751   -0.5662 C.ar      1 <0>        -0.0376
      3 C3          8.8695    5.4788   -0.6180 C.ar      1 <0>        -0.1315
      4 C4          7.9987    4.4123   -0.5378 C.ar      1 <0>        -0.0372
      5 C5          6.6275    4.6430   -0.4036 C.ar      1 <0>        -0.0758
      6 C6          6.1478    5.9542   -0.3569 C.ar      1 <0>        -0.0574
      7 C7          7.0307    7.0111   -0.4329 C.ar      1 <0>        -0.1286
      8 C8          5.6891    3.5065   -0.3177 C.2       1 <0>         0.3195
      9 N1          5.9619    2.2119   -0.3501 N.2       1 <0>        -0.5987
     10 C9          5.0275    1.2914   -0.2575 C.2       1 <0>         0.5320
     11 O1          5.2922    0.1002   -0.2821 O.2       1 <0>        -0.4307
     12 C10         3.6344    1.7805   -0.1261 C.2       1 <0>        -0.2444
     13 C11         2.4741    1.0831   -0.0163 C.2       1 <0>         0.0672
     14 C12         1.1862    1.7890   -0.0565 C.ar      1 <0>        -0.0826
     15 C13        -0.0010    1.1039    0.2287 C.ar      1 <0>        -0.0755
     16 C14        -1.2054    1.7731    0.1894 C.ar      1 <0>        -0.1079
     17 C15        -1.2438    3.1193   -0.1307 C.ar      1 <0>        -0.0865
     18 C16        -0.0737    3.8065   -0.4092 C.ar      1 <0>        -0.0344
     19 C17         1.1396    3.1498   -0.3797 C.ar      1 <0>        -0.0858
     20 Cl1        -0.1344    5.4963   -0.8021 Cl        1 <0>        -0.0562
     21 S1          3.9120    3.5472   -0.1450 S.3       1 <0>        -0.0391
     22 H1          9.4770    8.2188   -1.6991 H         1 <0>         0.0804
     23 H2          8.9445    8.7810   -0.0964 H         1 <0>         0.0737
     24 H3         10.3079    7.6449   -0.2333 H         1 <0>         0.0738
     25 H4          9.9299    5.3019   -0.7217 H         1 <0>         0.1370
     26 H5          8.3759    3.4012   -0.5790 H         1 <0>         0.1428
     27 H6          5.0885    6.1398   -0.2578 H         1 <0>         0.1345
     28 H7          6.6617    8.0253   -0.3928 H         1 <0>         0.1374
     29 H8          2.4982    0.0098    0.1007 H         1 <0>         0.1665
     30 H9          0.0267    0.0536    0.4786 H         1 <0>         0.1420
     31 H10        -2.1218    1.2456    0.4092 H         1 <0>         0.1432
     32 H11        -2.1908    3.6377   -0.1594 H         1 <0>         0.1418
     33 H12         2.0509    3.6855   -0.6011 H         1 <0>         0.1439
@<TRIPOS>BOND
     1    1    2 1
     2    1   22 1
     3    1   23 1
     4    1   24 1
     5    2    7 ar
     6    2    3 ar
     7    3    4 ar
     8    3   25 1
     9    4    5 ar
    10    4   26 1
    11    5    6 ar
    12    5    8 1
    13    6    7 ar
    14    6   27 1
    15    7   28 1
    16    8   21 1
    17    8    9 2
    18    9   10 1
    19   10   11 2
    20   10   12 1
    21   12   13 2
    22   12   21 1
    23   13   14 1
    24   13   29 1
    25   14   19 ar
    26   14   15 ar
    27   15   16 ar
    28   15   30 1
    29   16   17 ar
    30   16   31 1
    31   17   18 ar
    32   17   32 1
    33   18   19 ar
    34   18   20 1
    35   19   33 1
@<TRIPOS>MOLECULE
ZINC12418314
   35    37     0     0     0
SMALL
USER_CHARGES
(5Z)-5-[(5-chloro-2-hydroxy-3-methoxy-phenyl)methylene]-2-phenyl-thiazol-4-one
@<TRIPOS>ATOM
      1 C1          5.1488   12.6648   -1.6437 C.3       1 <0>         0.0198
      2 O1          5.7145   11.3534   -1.5959 O.3       1 <0>        -0.2979
      3 C2          5.0205   10.4063   -0.9097 C.ar      1 <0>         0.1177
      4 C3          3.8221   10.7345   -0.2965 C.ar      1 <0>        -0.1683
      5 C4          3.1076    9.7758    0.4058 C.ar      1 <0>        -0.0018
      6 C5          3.5791    8.4841    0.4971 C.ar      1 <0>        -0.1103
      7 C6          4.7921    8.1374   -0.1129 C.ar      1 <0>        -0.0700
      8 C7          5.5140    9.1097   -0.8236 C.ar      1 <0>         0.1199
      9 O2          6.6884    8.7852   -1.4232 O.3       1 <0>        -0.4748
     10 C8          5.3015    6.7657   -0.0149 C.2       1 <0>         0.0734
     11 C9          4.4634    5.7522    0.3322 C.2       1 <0>        -0.2395
     12 C10         4.7640    4.3346    0.6347 C.2       1 <0>         0.5307
     13 O3          5.9027    3.8960    0.5981 O.2       1 <0>        -0.4264
     14 N1          3.7373    3.5735    0.9447 N.2       1 <0>        -0.5958
     15 C11         2.4981    4.0361    0.9876 C.2       1 <0>         0.3242
     16 S1          2.6875    5.7558    0.5443 S.3       1 <0>        -0.0399
     17 C12         1.2578    3.3055    1.3163 C.ar      1 <0>        -0.0684
     18 C13         1.3076    1.9467    1.6359 C.ar      1 <0>        -0.0429
     19 C14         0.1450    1.2704    1.9415 C.ar      1 <0>        -0.1285
     20 C15        -1.0694    1.9336    1.9263 C.ar      1 <0>        -0.0733
     21 C16        -1.1255    3.2810    1.6162 C.ar      1 <0>        -0.1260
     22 C17         0.0292    3.9699    1.3086 C.ar      1 <0>        -0.0633
     23 Cl1         1.6079   10.2035    1.1683 Cl        1 <0>        -0.0474
     24 H1          4.1678   12.6203   -2.1168 H         1 <0>         0.0605
     25 H2          5.0463   13.0534   -0.6305 H         1 <0>         0.0610
     26 H3          5.8008   13.3210   -2.2203 H         1 <0>         0.1086
     27 H4          3.4421   11.7430   -0.3662 H         1 <0>         0.1509
     28 H5          3.0161    7.7405    1.0417 H         1 <0>         0.1522
     29 H6          6.5925    8.4759   -2.3344 H         1 <0>         0.3974
     30 H7          6.3421    6.5602   -0.2182 H         1 <0>         0.1713
     31 H8          2.2543    1.4269    1.6441 H         1 <0>         0.1427
     32 H9          0.1821    0.2197    2.1888 H         1 <0>         0.1375
     33 H10        -1.9772    1.3981    2.1621 H         1 <0>         0.1346
     34 H11        -2.0762    3.7935    1.6107 H         1 <0>         0.1378
     35 H12        -0.0166    5.0204    1.0620 H         1 <0>         0.1345
@<TRIPOS>BOND
     1    1    2 1
     2    1   24 1
     3    1   25 1
     4    1   26 1
     5    2    3 1
     6    3    8 ar
     7    3    4 ar
     8    4    5 ar
     9    4   27 1
    10    5    6 ar
    11    5   23 1
    12    6    7 ar
    13    6   28 1
    14    7    8 ar
    15    7   10 1
    16    8    9 1
    17    9   29 1
    18   10   11 2
    19   10   30 1
    20   11   16 1
    21   11   12 1
    22   12   13 2
    23   12   14 1
    24   14   15 2
    25   15   16 1
    26   15   17 1
    27   17   22 ar
    28   17   18 ar
    29   18   19 ar
    30   18   31 1
    31   19   20 ar
    32   19   32 1
    33   20   21 ar
    34   20   33 1
    35   21   22 ar
    36   21   34 1
    37   22   35 1
@<TRIPOS>MOLECULE
ZINC12371624
   35    37     0     0     0
SMALL
USER_CHARGES
(5Z)-5-[(2-hydroxy-3-methoxy-phenyl)methylene]-2-phenyl-thiazol-4-one
@<TRIPOS>ATOM
      1 C1          3.5126    2.3747   -0.3211 C.3       1 <0>         0.0231
      2 O1          2.3570    1.5895   -0.0210 O.3       1 <0>        -0.3048
      3 C2          1.1450    2.1568   -0.2636 C.ar      1 <0>         0.1017
      4 C3          1.0722    3.4411   -0.7787 C.ar      1 <0>        -0.1721
      5 C4         -0.1579    4.0276   -1.0293 C.ar      1 <0>        -0.0842
      6 C5         -1.3228    3.3409   -0.7692 C.ar      1 <0>        -0.1148
      7 C6         -1.2675    2.0393   -0.2527 C.ar      1 <0>        -0.0853
      8 C7         -0.0202    1.4483    0.0057 C.ar      1 <0>         0.1142
      9 O2          0.0474    0.1897    0.5104 O.3       1 <0>        -0.4788
     10 C8         -2.5046    1.3012    0.0215 C.2       1 <0>         0.0783
     11 C9         -3.6843    1.9689    0.1333 C.2       1 <0>        -0.2466
     12 C10        -5.0634    1.4440    0.2523 C.2       1 <0>         0.5302
     13 O3         -5.2975    0.2459    0.2625 O.2       1 <0>        -0.4298
     14 N1         -6.0220    2.3388    0.3512 N.2       1 <0>        -0.5967
     15 C11        -5.7826    3.6404    0.3342 C.2       1 <0>         0.3195
     16 S1         -4.0063    3.7277    0.1700 S.3       1 <0>        -0.0383
     17 C12        -6.7501    4.7517    0.4285 C.ar      1 <0>        -0.0671
     18 C13        -6.3039    6.0749    0.3987 C.ar      1 <0>        -0.0641
     19 C14        -7.2138    7.1081    0.4825 C.ar      1 <0>        -0.1262
     20 C15        -8.5650    6.8362    0.6059 C.ar      1 <0>        -0.0744
     21 C16        -9.0136    5.5276    0.6414 C.ar      1 <0>        -0.1284
     22 C17        -8.1154    4.4846    0.5538 C.ar      1 <0>        -0.0438
     23 H1          3.5147    2.6277   -1.3813 H         1 <0>         0.0586
     24 H2          3.4938    3.2898    0.2708 H         1 <0>         0.0580
     25 H3          4.4108    1.8055   -0.0817 H         1 <0>         0.1052
     26 H4          1.9799    3.9884   -0.9859 H         1 <0>         0.1400
     27 H5         -0.2033    5.0293   -1.4305 H         1 <0>         0.1383
     28 H6         -2.2784    3.8036   -0.9667 H         1 <0>         0.1414
     29 H7          0.0569    0.1534    1.4767 H         1 <0>         0.3943
     30 H8         -2.4790    0.2274    0.1346 H         1 <0>         0.1669
     31 H9         -5.2492    6.2885    0.3069 H         1 <0>         0.1343
     32 H10        -6.8705    8.1318    0.4561 H         1 <0>         0.1374
     33 H11        -9.2727    7.6490    0.6753 H         1 <0>         0.1343
     34 H12       -10.0695    5.3225    0.7383 H         1 <0>         0.1371
     35 H13        -8.4668    3.4637    0.5824 H         1 <0>         0.1424
@<TRIPOS>BOND
     1    1    2 1
     2    1   23 1
     3    1   24 1
     4    1   25 1
     5    2    3 1
     6    3    8 ar
     7    3    4 ar
     8    4    5 ar
     9    4   26 1
    10    5    6 ar
    11    5   27 1
    12    6    7 ar
    13    6   28 1
    14    7    8 ar
    15    7   10 1
    16    8    9 1
    17    9   29 1
    18   10   11 2
    19   10   30 1
    20   11   16 1
    21   11   12 1
    22   12   13 2
    23   12   14 1
    24   14   15 2
    25   15   16 1
    26   15   17 1
    27   17   22 ar
    28   17   18 ar
    29   18   19 ar
    30   18   31 1
    31   19   20 ar
    32   19   32 1
    33   20   21 ar
    34   20   33 1
    35   21   22 ar
    36   21   34 1
    37   22   35 1
@<TRIPOS>MOLECULE
ZINC35305169
   37    39     0     0     0
SMALL
USER_CHARGES

@<TRIPOS>ATOM
      1 C1          0.0081    1.3174    0.0788 C.3       1 <0>         0.0176
      2 O1         -0.0176   -0.0653    0.4386 O.3       1 <0>        -0.2924
      3 C2         -1.2378   -0.6608    0.5148 C.ar      1 <0>         0.1078
      4 C3         -2.3789    0.0673    0.2443 C.ar      1 <0>        -0.1178
      5 C4         -3.6343   -0.5499    0.3234 C.ar      1 <0>        -0.0533
      6 C5         -3.7236   -1.9028    0.6769 C.ar      1 <0>        -0.0632
      7 C6         -2.5795   -2.6205    0.9449 C.ar      1 <0>        -0.0404
      8 C7         -1.3353   -2.0086    0.8608 C.ar      1 <0>         0.1689
      9 O2         -0.2104   -2.7235    1.1213 O.3       1 <0>        -0.4558
     10 N1         -2.6753   -4.0497    1.3181 N.pl3     1 <0>         0.0344
     11 O3         -3.7570   -4.5852    1.3873 O.2       1 <0>        -0.1525
     12 O4         -1.6718   -4.6815    1.5538 O.3       1 <0>        -0.1245
     13 C8         -4.8511    0.2179    0.0377 C.2       1 <0>         0.0547
     14 C9         -6.0497   -0.4178   -0.0574 C.2       1 <0>        -0.2317
     15 C10        -7.4145    0.1439   -0.1734 C.2       1 <0>         0.5321
     16 O5         -7.6152    1.3480   -0.1971 O.2       1 <0>        -0.4242
     17 N2         -8.3987   -0.7248   -0.2501 N.2       1 <0>        -0.5963
     18 C11        -8.1948   -2.0323   -0.2260 C.2       1 <0>         0.3284
     19 S1         -6.4195   -2.1674   -0.0852 S.3       1 <0>        -0.0338
     20 C12        -9.1935   -3.1172   -0.3023 C.ar      1 <0>        -0.0726
     21 C13        -8.7844   -4.4519   -0.2548 C.ar      1 <0>        -0.0604
     22 C14        -9.7227   -5.4603   -0.3267 C.ar      1 <0>        -0.1253
     23 C15       -11.0665   -5.1523   -0.4460 C.ar      1 <0>        -0.0706
     24 C16       -11.4789   -3.8322   -0.4937 C.ar      1 <0>        -0.1298
     25 C17       -10.5520   -2.8136   -0.4166 C.ar      1 <0>        -0.0416
     26 H1          1.0401    1.6674    0.0545 H         1 <0>         0.1137
     27 H2         -0.4421    1.4452   -0.9056 H         1 <0>         0.0640
     28 H3         -0.5540    1.8944    0.8131 H         1 <0>         0.0638
     29 H4         -2.3042    1.1100   -0.0274 H         1 <0>         0.1625
     30 H5         -4.6893   -2.3823    0.7394 H         1 <0>         0.1661
     31 H6          0.0595   -2.7076    2.0498 H         1 <0>         0.4077
     32 H7         -4.7952    1.2880   -0.0972 H         1 <0>         0.1724
     33 H8         -7.7359   -4.6938   -0.1625 H         1 <0>         0.1371
     34 H9         -9.4079   -6.4928   -0.2901 H         1 <0>         0.1396
     35 H10       -11.7969   -5.9458   -0.5026 H         1 <0>         0.1353
     36 H11       -12.5292   -3.5989   -0.5868 H         1 <0>         0.1377
     37 H12       -10.8756   -1.7837   -0.4494 H         1 <0>         0.1424
@<TRIPOS>BOND
     1    1    2 1
     2    1   26 1
     3    1   27 1
     4    1   28 1
     5    2    3 1
     6    3    8 ar
     7    3    4 ar
     8    4    5 ar
     9    4   29 1
    10    5    6 ar
    11    5   13 1
    12    6    7 ar
    13    6   30 1
    14    7    8 ar
    15    7   10 1
    16    8    9 1
    17    9   31 1
    18   10   11 2
    19   10   12 1
    20   13   14 2
    21   13   32 1
    22   14   19 1
    23   14   15 1
    24   15   16 2
    25   15   17 1
    26   17   18 2
    27   18   19 1
    28   18   20 1
    29   20   25 ar
    30   20   21 ar
    31   21   22 ar
    32   21   33 1
    33   22   23 ar
    34   22   34 1
    35   23   24 ar
    36   23   35 1
    37   24   25 ar
    38   24   36 1
    39   25   37 1
@<TRIPOS>MOLECULE
ZINC00359408
   37    39     0     0     0
SMALL
USER_CHARGES
5-[(4-methoxyphenyl)methylene]-2-(p-tolyl)thiazol-4-one
@<TRIPOS>ATOM
      1 C1          7.0809   -1.4107   -3.7339 C.3       1 <0>        -0.1251
      2 C2          5.7580   -0.9626   -3.1679 C.ar      1 <0>        -0.0396
      3 C3          4.7125   -1.8633   -3.0649 C.ar      1 <0>        -0.1313
      4 C4          3.4992   -1.4602   -2.5474 C.ar      1 <0>        -0.0388
      5 C5          3.3272   -0.1394   -2.1269 C.ar      1 <0>        -0.0734
      6 C6          4.3852    0.7657   -2.2388 C.ar      1 <0>        -0.0586
      7 C7          5.5947    0.3474   -2.7533 C.ar      1 <0>        -0.1287
      8 C8          2.0311    0.2996   -1.5724 C.2       1 <0>         0.3152
      9 N1          0.9287   -0.4117   -1.3984 N.2       1 <0>        -0.5991
     10 C9         -0.1695    0.1026   -0.8895 C.2       1 <0>         0.5316
     11 O1         -1.1803   -0.5640   -0.7334 O.2       1 <0>        -0.4375
     12 C10        -0.1129    1.5340   -0.5158 C.2       1 <0>        -0.2613
     13 C11        -1.0741    2.3331    0.0201 C.2       1 <0>         0.0837
     14 C12        -0.8456    3.7774    0.1375 C.ar      1 <0>        -0.1404
     15 C13        -1.7533    4.5778    0.8439 C.ar      1 <0>        -0.0335
     16 C14        -1.5306    5.9312    0.9561 C.ar      1 <0>        -0.2145
     17 C15        -0.4137    6.5065    0.3599 C.ar      1 <0>         0.1578
     18 C16         0.4872    5.7180   -0.3476 C.ar      1 <0>        -0.1517
     19 C17         0.2781    4.3627   -0.4611 C.ar      1 <0>        -0.0466
     20 O2         -0.2019    7.8427    0.4693 O.3       1 <0>        -0.3105
     21 C18        -1.1660    8.5939    1.2097 C.3       1 <0>         0.0230
     22 S1          1.5723    1.9189   -0.9746 S.3       1 <0>        -0.0412
     23 H1          7.0840   -1.2600   -4.8134 H         1 <0>         0.0799
     24 H2          7.8847   -0.8285   -3.2834 H         1 <0>         0.0734
     25 H3          7.2307   -2.4678   -3.5142 H         1 <0>         0.0734
     26 H4          4.8468   -2.8842   -3.3907 H         1 <0>         0.1363
     27 H5          2.6842   -2.1643   -2.4673 H         1 <0>         0.1423
     28 H6          4.2578    1.7895   -1.9194 H         1 <0>         0.1345
     29 H7          6.4149    1.0451   -2.8365 H         1 <0>         0.1369
     30 H8         -2.0055    1.9044    0.3592 H         1 <0>         0.1608
     31 H9         -2.6234    4.1328    1.3035 H         1 <0>         0.1381
     32 H10        -2.2271    6.5484    1.5040 H         1 <0>         0.1382
     33 H11         1.3529    6.1703   -0.8086 H         1 <0>         0.1409
     34 H12         0.9788    3.7512   -1.0102 H         1 <0>         0.1403
     35 H13        -2.1449    8.4899    0.7417 H         1 <0>         0.0600
     36 H14        -1.2107    8.2197    2.2325 H         1 <0>         0.0600
     37 H15        -0.8778    9.6451    1.2197 H         1 <0>         0.1053
@<TRIPOS>BOND
     1    1    2 1
     2    1   23 1
     3    1   24 1
     4    1   25 1
     5    2    7 ar
     6    2    3 ar
     7    3    4 ar
     8    3   26 1
     9    4    5 ar
    10    4   27 1
    11    5    6 ar
    12    5    8 1
    13    6    7 ar
    14    6   28 1
    15    7   29 1
    16    8   22 1
    17    8    9 2
    18    9   10 1
    19   10   11 2
    20   10   12 1
    21   12   13 2
    22   12   22 1
    23   13   14 1
    24   13   30 1
    25   14   19 ar
    26   14   15 ar
    27   15   16 ar
    28   15   31 1
    29   16   17 ar
    30   16   32 1
    31   17   18 ar
    32   17   20 1
    33   18   19 ar
    34   18   33 1
    35   19   34 1
    36   20   21 1
    37   21   35 1
    38   21   36 1
    39   21   37 1
@<TRIPOS>MOLECULE
ZINC04714474
   41    43     0     0     0
SMALL
USER_CHARGES
5-[(2,5-dimethoxyphenyl)methylene]-2-(p-tolyl)thiazol-4-one
@<TRIPOS>ATOM
      1 C1         10.7338   -4.5101    0.4820 C.3       1 <0>        -0.1249
      2 C2          9.7421   -3.3775    0.4132 C.ar      1 <0>        -0.0399
      3 C3         10.1880   -2.0682    0.4568 C.ar      1 <0>        -0.1315
      4 C4          9.2860   -1.0266    0.3938 C.ar      1 <0>        -0.0385
      5 C5          7.9197   -1.2959    0.2858 C.ar      1 <0>        -0.0729
      6 C6          7.4763   -2.6199    0.2477 C.ar      1 <0>        -0.0582
      7 C7          8.3899   -3.6516    0.3062 C.ar      1 <0>        -0.1286
      8 C8          6.9480   -0.1862    0.2185 C.2       1 <0>         0.3194
      9 N1          7.1846    1.1157    0.2455 N.2       1 <0>        -0.5988
     10 C9          6.2223    2.0090    0.1706 C.2       1 <0>         0.5315
     11 O1          6.4537    3.2076    0.1900 O.2       1 <0>        -0.4349
     12 C10         4.8431    1.4820    0.0661 C.2       1 <0>        -0.2560
     13 C11         3.6601    2.1478   -0.0217 C.2       1 <0>         0.0899
     14 C12         2.3959    1.4073    0.0370 C.ar      1 <0>        -0.0904
     15 C13         2.3654    0.1049    0.5516 C.ar      1 <0>        -0.0897
     16 C14         1.1698   -0.5852    0.6036 C.ar      1 <0>         0.0956
     17 C15        -0.0015    0.0085    0.1467 C.ar      1 <0>        -0.1406
     18 C16         0.0179    1.2923   -0.3626 C.ar      1 <0>        -0.1721
     19 C17         1.2075    2.0001   -0.4223 C.ar      1 <0>         0.1342
     20 O2          1.2251    3.2615   -0.9235 O.3       1 <0>        -0.3091
     21 C18        -0.0207    3.7987   -1.3724 C.3       1 <0>         0.0244
     22 O3          1.1384   -1.8496    1.1029 O.3       1 <0>        -0.3125
     23 C19        -0.1306   -2.5062    1.1272 C.3       1 <0>         0.0251
     24 S1          5.1697   -0.2764    0.0798 S.3       1 <0>        -0.0379
     25 H1         10.8936   -4.7903    1.5231 H         1 <0>         0.0798
     26 H2         10.3459   -5.3666   -0.0694 H         1 <0>         0.0732
     27 H3         11.6791   -4.1926    0.0419 H         1 <0>         0.0732
     28 H4         11.2447   -1.8614    0.5407 H         1 <0>         0.1363
     29 H5          9.6353   -0.0052    0.4283 H         1 <0>         0.1426
     30 H6          6.4210   -2.8353    0.1685 H         1 <0>         0.1350
     31 H7          8.0488   -4.6758    0.2727 H         1 <0>         0.1368
     32 H8          3.6521    3.2218   -0.1347 H         1 <0>         0.1663
     33 H9          3.2740   -0.3586    0.9065 H         1 <0>         0.1513
     34 H10        -0.9323   -0.5376    0.1899 H         1 <0>         0.1389
     35 H11        -0.8959    1.7440   -0.7194 H         1 <0>         0.1409
     36 H12         0.1340    4.8102   -1.7479 H         1 <0>         0.1063
     37 H13        -0.4203    3.1722   -2.1698 H         1 <0>         0.0592
     38 H14        -0.7261    3.8234   -0.5417 H         1 <0>         0.0595
     39 H15        -0.0149   -3.5051    1.5480 H         1 <0>         0.1040
     40 H16        -0.8252   -1.9319    1.7403 H         1 <0>         0.0564
     41 H17        -0.5197   -2.5825    0.1119 H         1 <0>         0.0566
@<TRIPOS>BOND
     1    1    2 1
     2    1   25 1
     3    1   26 1
     4    1   27 1
     5    2    7 ar
     6    2    3 ar
     7    3    4 ar
     8    3   28 1
     9    4    5 ar
    10    4   29 1
    11    5    6 ar
    12    5    8 1
    13    6    7 ar
    14    6   30 1
    15    7   31 1
    16    8   24 1
    17    8    9 2
    18    9   10 1
    19   10   11 2
    20   10   12 1
    21   12   13 2
    22   12   24 1
    23   13   14 1
    24   13   32 1
    25   14   19 ar
    26   14   15 ar
    27   15   16 ar
    28   15   33 1
    29   16   17 ar
    30   16   22 1
    31   17   18 ar
    32   17   34 1
    33   18   19 ar
    34   18   35 1
    35   19   20 1
    36   20   21 1
    37   21   36 1
    38   21   37 1
    39   21   38 1
    40   22   23 1
    41   23   39 1
    42   23   40 1
    43   23   41 1
@<TRIPOS>MOLECULE
ZINC00649799
   45    47     0     0     0
SMALL
USER_CHARGES
2-(p-tolyl)-5-[(2,3,4-trimethoxyphenyl)methylene]thiazol-4-one
@<TRIPOS>ATOM
      1 C1         -4.8697   12.9506    6.7234 C.3       1 <0>        -0.1253
      2 C2         -4.7214   11.8682    5.6854 C.ar      1 <0>        -0.0390
      3 C3         -5.6483   11.7624    4.6634 C.ar      1 <0>        -0.1309
      4 C4         -5.5189   10.7738    3.7103 C.ar      1 <0>        -0.0381
      5 C5         -4.4490    9.8787    3.7782 C.ar      1 <0>        -0.0736
      6 C6         -3.5201    9.9881    4.8154 C.ar      1 <0>        -0.0588
      7 C7         -3.6585   10.9850    5.7585 C.ar      1 <0>        -0.1286
      8 C8         -4.3038    8.8178    2.7613 C.2       1 <0>         0.3225
      9 N1         -5.0829    8.5632    1.7222 N.2       1 <0>        -0.5968
     10 C9         -4.8372    7.5832    0.8802 C.2       1 <0>         0.5308
     11 O1         -5.5599    7.3627   -0.0793 O.2       1 <0>        -0.4340
     12 C10        -3.6417    6.7597    1.1607 C.2       1 <0>        -0.2576
     13 C11        -3.1404    5.6902    0.4826 C.2       1 <0>         0.0899
     14 C12        -1.8395    5.1312    0.8556 C.ar      1 <0>        -0.1470
     15 C13        -0.9420    5.8869    1.6239 C.ar      1 <0>        -0.0391
     16 C14         0.2709    5.3650    1.9709 C.ar      1 <0>        -0.2018
     17 C15         0.6258    4.0802    1.5720 C.ar      1 <0>         0.1530
     18 C16        -0.2481    3.3168    0.8045 C.ar      1 <0>         0.0392
     19 C17        -1.4839    3.8341    0.4446 C.ar      1 <0>         0.1605
     20 O2         -2.3446    3.0928   -0.2992 O.3       1 <0>        -0.3266
     21 C18        -3.2656    2.2620    0.4104 C.3       1 <0>         0.0366
     22 O3          0.1066    2.0627    0.4123 O.3       1 <0>        -0.3162
     23 C19         0.7854    1.9421   -0.8393 C.3       1 <0>         0.0361
     24 O4          1.8331    3.5708    1.9291 O.3       1 <0>        -0.2970
     25 C20         2.6825    4.4070    2.7174 C.3       1 <0>         0.0198
     26 S1         -3.0345    7.5676    2.6362 S.3       1 <0>        -0.0484
     27 H1         -5.4716   12.5788    7.5526 H         1 <0>         0.0802
     28 H2         -3.8848   13.2397    7.0902 H         1 <0>         0.0734
     29 H3         -5.3600   13.8163    6.2781 H         1 <0>         0.0736
     30 H4         -6.4752   12.4553    4.6122 H         1 <0>         0.1368
     31 H5         -6.2435   10.6919    2.9136 H         1 <0>         0.1428
     32 H6         -2.6930    9.2962    4.8766 H         1 <0>         0.1343
     33 H7         -2.9387   11.0733    6.5588 H         1 <0>         0.1369
     34 H8         -3.7023    5.2545   -0.3303 H         1 <0>         0.1640
     35 H9         -1.2110    6.8833    1.9420 H         1 <0>         0.1464
     36 H10         0.9577    5.9517    2.5630 H         1 <0>         0.1461
     37 H11        -3.8935    1.7255   -0.3010 H         1 <0>         0.1032
     38 H12        -2.7140    1.5462    1.0200 H         1 <0>         0.0577
     39 H13        -3.8918    2.8804    1.0534 H         1 <0>         0.0499
     40 H14         1.0098    0.8928   -1.0313 H         1 <0>         0.0969
     41 H15         1.7140    2.5119   -0.8054 H         1 <0>         0.0469
     42 H16         0.1503    2.3295   -1.6360 H         1 <0>         0.0506
     43 H17         2.1811    4.6554    3.6528 H         1 <0>         0.0621
     44 H18         3.6125    3.8806    2.9323 H         1 <0>         0.1075
     45 H19         2.9018    5.3227    2.1684 H         1 <0>         0.0612
@<TRIPOS>BOND
     1    1    2 1
     2    1   27 1
     3    1   28 1
     4    1   29 1
     5    2    7 ar
     6    2    3 ar
     7    3    4 ar
     8    3   30 1
     9    4    5 ar
    10    4   31 1
    11    5    6 ar
    12    5    8 1
    13    6    7 ar
    14    6   32 1
    15    7   33 1
    16    8   26 1
    17    8    9 2
    18    9   10 1
    19   10   11 2
    20   10   12 1
    21   12   13 2
    22   12   26 1
    23   13   14 1
    24   13   34 1
    25   14   19 ar
    26   14   15 ar
    27   15   16 ar
    28   15   35 1
    29   16   17 ar
    30   16   36 1
    31   17   18 ar
    32   17   24 1
    33   18   19 ar
    34   18   22 1
    35   19   20 1
    36   20   21 1
    37   21   37 1
    38   21   38 1
    39   21   39 1
    40   22   23 1
    41   23   40 1
    42   23   41 1
    43   23   42 1
    44   24   25 1
    45   25   43 1
    46   25   44 1
    47   25   45 1
@<TRIPOS>MOLECULE
ZINC00342407
   41    43     0     0     0
SMALL
USER_CHARGES
5-[(2,4-dimethoxyphenyl)methylene]-2-(p-tolyl)thiazol-4-one
@<TRIPOS>ATOM
      1 C1          8.9919   -5.8399    3.9732 C.3       1 <0>        -0.1248
      2 C2          7.8618   -4.9598    4.4416 C.ar      1 <0>        -0.0408
      3 C3          7.6047   -4.8310    5.7952 C.ar      1 <0>        -0.1308
      4 C4          6.5726   -4.0264    6.2309 C.ar      1 <0>        -0.0392
      5 C5          5.7859   -3.3412    5.3023 C.ar      1 <0>        -0.0716
      6 C6          6.0474   -3.4804    3.9374 C.ar      1 <0>        -0.0596
      7 C7          7.0863   -4.2838    3.5160 C.ar      1 <0>        -0.1286
      8 C8          4.6788   -2.4784    5.7612 C.2       1 <0>         0.3193
      9 N1          4.2864   -2.2350    7.0015 N.2       1 <0>        -0.5973
     10 C9          3.2798   -1.4351    7.2783 C.2       1 <0>         0.5314
     11 O1          2.9313   -1.2132    8.4275 O.2       1 <0>        -0.4395
     12 C10         2.5901   -0.8224    6.1229 C.2       1 <0>        -0.2722
     13 C11         1.5294    0.0315    6.0925 C.2       1 <0>         0.1062
     14 C12         0.9155    0.3910    4.8129 C.ar      1 <0>        -0.1727
     15 C13         1.1407   -0.3989    3.6766 C.ar      1 <0>        -0.0102
     16 C14         0.5625   -0.0645    2.4863 C.ar      1 <0>        -0.2425
     17 C15        -0.2445    1.0659    2.3878 C.ar      1 <0>         0.1988
     18 C16        -0.4786    1.8596    3.5020 C.ar      1 <0>        -0.2524
     19 C17         0.0959    1.5310    4.7171 C.ar      1 <0>         0.2115
     20 O2         -0.1291    2.3035    5.8095 O.3       1 <0>        -0.3033
     21 C18        -0.9713    3.4446    5.6348 C.3       1 <0>         0.0217
     22 O3         -0.8096    1.3902    1.1973 O.3       1 <0>        -0.3088
     23 C19        -0.5282    0.5314    0.0903 C.3       1 <0>         0.0225
     24 S1          3.5450   -1.5113    4.7768 S.3       1 <0>        -0.0508
     25 H1          8.6217   -6.8528    3.8145 H         1 <0>         0.0797
     26 H2          9.3933   -5.4491    3.0383 H         1 <0>         0.0731
     27 H3          9.7779   -5.8545    4.7282 H         1 <0>         0.0733
     28 H4          8.2139   -5.3614    6.5121 H         1 <0>         0.1362
     29 H5          6.3735   -3.9262    7.2877 H         1 <0>         0.1425
     30 H6          5.4401   -2.9569    3.2138 H         1 <0>         0.1341
     31 H7          7.2925   -4.3889    2.4611 H         1 <0>         0.1364
     32 H8          1.1412    0.4433    7.0123 H         1 <0>         0.1621
     33 H9          1.7685   -1.2751    3.7443 H         1 <0>         0.1456
     34 H10         0.7354   -0.6781    1.6146 H         1 <0>         0.1398
     35 H11        -1.1090    2.7327    3.4208 H         1 <0>         0.1466
     36 H12        -1.0682    3.9733    6.5831 H         1 <0>         0.1084
     37 H13        -0.5324    4.1097    4.8912 H         1 <0>         0.0629
     38 H14        -1.9559    3.1212    5.2970 H         1 <0>         0.0631
     39 H15        -0.8764   -0.4768    0.3148 H         1 <0>         0.0619
     40 H16         0.5464    0.5128   -0.0911 H         1 <0>         0.0620
     41 H17        -1.0401    0.9033   -0.7973 H         1 <0>         0.1061
@<TRIPOS>BOND
     1    1    2 1
     2    1   25 1
     3    1   26 1
     4    1   27 1
     5    2    7 ar
     6    2    3 ar
     7    3    4 ar
     8    3   28 1
     9    4    5 ar
    10    4   29 1
    11    5    6 ar
    12    5    8 1
    13    6    7 ar
    14    6   30 1
    15    7   31 1
    16    8   24 1
    17    8    9 2
    18    9   10 1
    19   10   11 2
    20   10   12 1
    21   12   13 2
    22   12   24 1
    23   13   14 1
    24   13   32 1
    25   14   19 ar
    26   14   15 ar
    27   15   16 ar
    28   15   33 1
    29   16   17 ar
    30   16   34 1
    31   17   18 ar
    32   17   22 1
    33   18   19 ar
    34   18   35 1
    35   19   20 1
    36   20   21 1
    37   21   36 1
    38   21   37 1
    39   21   38 1
    40   22   23 1
    41   23   39 1
    42   23   40 1
    43   23   41 1
@<TRIPOS>MOLECULE
ZINC00031269
   38    40     0     0     0
SMALL
USER_CHARGES
5-[(2-hydroxy-3-methoxy-phenyl)methylene]-2-(p-tolyl)thiazol-4-one
@<TRIPOS>ATOM
      1 C1         -9.5525    7.9701    0.7010 C.3       1 <0>        -0.1254
      2 C2         -8.5648    6.8358    0.6055 C.ar      1 <0>        -0.0386
      3 C3         -9.0134    5.5272    0.6412 C.ar      1 <0>        -0.1312
      4 C4         -8.1152    4.4842    0.5534 C.ar      1 <0>        -0.0377
      5 C5         -6.7499    4.7514    0.4285 C.ar      1 <0>        -0.0743
      6 C6         -6.3036    6.0747    0.3993 C.ar      1 <0>        -0.0581
      7 C7         -7.2136    7.1078    0.4819 C.ar      1 <0>        -0.1287
      8 C8         -5.7823    3.6401    0.3339 C.2       1 <0>         0.3213
      9 N1         -6.0217    2.3386    0.3503 N.2       1 <0>        -0.5980
     10 C9         -5.0631    1.4438    0.2513 C.2       1 <0>         0.5303
     11 O1         -5.2973    0.2456    0.2606 O.2       1 <0>        -0.4308
     12 C10        -3.6841    1.9687    0.1328 C.2       1 <0>        -0.2459
     13 C11        -2.5043    1.3010    0.0209 C.2       1 <0>         0.0774
     14 C12        -1.2671    2.0393   -0.2527 C.ar      1 <0>        -0.0849
     15 C13        -1.3223    3.3414   -0.7688 C.ar      1 <0>        -0.1150
     16 C14        -0.1577    4.0276   -1.0292 C.ar      1 <0>        -0.0842
     17 C15         1.0727    3.4410   -0.7782 C.ar      1 <0>        -0.1725
     18 C16         1.1454    2.1574   -0.2624 C.ar      1 <0>         0.1017
     19 C17        -0.0202    1.4487    0.0070 C.ar      1 <0>         0.1142
     20 O2          0.0473    0.1906    0.5130 O.3       1 <0>        -0.4788
     21 O3          2.3573    1.5903   -0.0190 O.3       1 <0>        -0.3049
     22 C18         3.5130    2.3754   -0.3191 C.3       1 <0>         0.0231
     23 S1         -4.0060    3.7275    0.1702 S.3       1 <0>        -0.0401
     24 H1         -9.6965    8.2393    1.7474 H         1 <0>         0.0802
     25 H2         -9.1704    8.8317    0.1535 H         1 <0>         0.0735
     26 H3        -10.5049    7.6597    0.2713 H         1 <0>         0.0737
     27 H4        -10.0694    5.3222    0.7378 H         1 <0>         0.1368
     28 H5         -8.4667    3.4634    0.5807 H         1 <0>         0.1428
     29 H6         -5.2489    6.2883    0.3078 H         1 <0>         0.1346
     30 H7         -6.8705    8.1315    0.4543 H         1 <0>         0.1371
     31 H8         -2.4787    0.2272    0.1336 H         1 <0>         0.1668
     32 H9         -2.2779    3.8042   -0.9663 H         1 <0>         0.1415
     33 H10        -0.2030    5.0291   -1.4311 H         1 <0>         0.1382
     34 H11         1.9804    3.9881   -0.9857 H         1 <0>         0.1399
     35 H12         0.0561    0.1553    1.4793 H         1 <0>         0.3943
     36 H13         4.4112    1.8064   -0.0790 H         1 <0>         0.1052
     37 H14         3.5154    2.6277   -1.3795 H         1 <0>         0.0585
     38 H15         3.4940    3.2908    0.2722 H         1 <0>         0.0580
@<TRIPOS>BOND
     1    1    2 1
     2    1   24 1
     3    1   25 1
     4    1   26 1
     5    2    7 ar
     6    2    3 ar
     7    3    4 ar
     8    3   27 1
     9    4    5 ar
    10    4   28 1
    11    5    6 ar
    12    5    8 1
    13    6    7 ar
    14    6   29 1
    15    7   30 1
    16    8   23 1
    17    8    9 2
    18    9   10 1
    19   10   11 2
    20   10   12 1
    21   12   13 2
    22   12   23 1
    23   13   14 1
    24   13   31 1
    25   14   19 ar
    26   14   15 ar
    27   15   16 ar
    28   15   32 1
    29   16   17 ar
    30   16   33 1
    31   17   18 ar
    32   17   34 1
    33   18   19 ar
    34   18   21 1
    35   19   20 1
    36   20   35 1
    37   21   22 1
    38   22   36 1
    39   22   37 1
    40   22   38 1
@<TRIPOS>MOLECULE
ZINC00997458
   38    40     0     0     0
SMALL
USER_CHARGES
5-[(3-chloro-4-hydroxy-5-methoxy-phenyl)methylene]-2-(p-tolyl)thiazol-4-one
@<TRIPOS>ATOM
      1 C1          7.3479    4.9419    9.2910 C.3       1 <0>        -0.1257
      2 C2          7.1193    4.7576    7.8129 C.ar      1 <0>        -0.0371
      3 C3          8.0469    5.2412    6.9070 C.ar      1 <0>        -0.1317
      4 C4          7.8442    5.0760    5.5528 C.ar      1 <0>        -0.0369
      5 C5          6.6993    4.4188    5.0965 C.ar      1 <0>        -0.0762
      6 C6          5.7644    3.9383    6.0163 C.ar      1 <0>        -0.0571
      7 C7          5.9830    4.1051    7.3679 C.ar      1 <0>        -0.1285
      8 C8          6.4753    4.2381    3.6483 C.2       1 <0>         0.3207
      9 N1          7.2433    4.6277    2.6432 N.2       1 <0>        -0.5983
     10 C9          6.9313    4.3970    1.3867 C.2       1 <0>         0.5317
     11 O1          7.6516    4.7553    0.4683 O.2       1 <0>        -0.4296
     12 C10         5.6567    3.6835    1.1464 C.2       1 <0>        -0.2387
     13 C11         5.0735    3.3121   -0.0248 C.2       1 <0>         0.0646
     14 C12         3.8944    2.4396   -0.0128 C.ar      1 <0>        -0.0496
     15 C13         3.1842    2.2011   -1.1972 C.ar      1 <0>        -0.1569
     16 C14         2.0753    1.3795   -1.1794 C.ar      1 <0>         0.1170
     17 C15         1.6632    0.7883    0.0149 C.ar      1 <0>         0.1101
     18 C16         2.3628    1.0276    1.1915 C.ar      1 <0>        -0.0264
     19 C17         3.4745    1.8423    1.1828 C.ar      1 <0>        -0.1073
     20 Cl1         1.8389    0.2936    2.6749 Cl        1 <0>        -0.0323
     21 O2          0.5711   -0.0193    0.0289 O.3       1 <0>        -0.4699
     22 O3          1.3843    1.1458   -2.3271 O.3       1 <0>        -0.2988
     23 C18         1.8621    1.7835   -3.5133 C.3       1 <0>         0.0202
     24 S1          5.1032    3.4400    2.8296 S.3       1 <0>        -0.0362
     25 H1          6.9020    5.8830    9.6130 H         1 <0>         0.0806
     26 H2          6.8883    4.1170    9.8354 H         1 <0>         0.0738
     27 H3          8.4187    4.9591    9.4937 H         1 <0>         0.0738
     28 H4          8.9316    5.7495    7.2613 H         1 <0>         0.1370
     29 H5          8.5688    5.4543    4.8469 H         1 <0>         0.1428
     30 H6          4.8747    3.4331    5.6702 H         1 <0>         0.1349
     31 H7          5.2632    3.7301    8.0804 H         1 <0>         0.1377
     32 H8          5.4785    3.6597   -0.9637 H         1 <0>         0.1668
     33 H9          3.5036    2.6594   -2.1215 H         1 <0>         0.1505
     34 H10         4.0189    2.0235    2.0977 H         1 <0>         0.1496
     35 H11         0.7692   -0.9515   -0.1352 H         1 <0>         0.3956
     36 H12         1.2225    1.5138   -4.3537 H         1 <0>         0.1084
     37 H13         1.8456    2.8648   -3.3765 H         1 <0>         0.0609
     38 H14         2.8829    1.4584   -3.7146 H         1 <0>         0.0606
@<TRIPOS>BOND
     1    1    2 1
     2    1   25 1
     3    1   26 1
     4    1   27 1
     5    2    7 ar
     6    2    3 ar
     7    3    4 ar
     8    3   28 1
     9    4    5 ar
    10    4   29 1
    11    5    6 ar
    12    5    8 1
    13    6    7 ar
    14    6   30 1
    15    7   31 1
    16    8   24 1
    17    8    9 2
    18    9   10 1
    19   10   11 2
    20   10   12 1
    21   12   13 2
    22   12   24 1
    23   13   14 1
    24   13   32 1
    25   14   19 ar
    26   14   15 ar
    27   15   16 ar
    28   15   33 1
    29   16   17 ar
    30   16   22 1
    31   17   18 ar
    32   17   21 1
    33   18   19 ar
    34   18   20 1
    35   19   34 1
    36   21   35 1
    37   22   23 1
    38   23   36 1
    39   23   37 1
    40   23   38 1
@<TRIPOS>MOLECULE
ZINC12411350
   41    43     0     0     0
SMALL
USER_CHARGES
(5Z)-5-[(3-chloro-5-ethoxy-4-hydroxy-phenyl)methylene]-2-(p-tolyl)thiazol-4-one
@<TRIPOS>ATOM
      1 C1          0.6639    2.3979    4.6613 C.3       1 <0>        -0.1530
      2 C2          1.6227    2.5498    3.4787 C.3       1 <0>         0.0484
      3 O1          1.0573    1.9261    2.3240 O.3       1 <0>        -0.2979
      4 C3          1.7879    1.9713    1.1778 C.ar      1 <0>         0.1208
      5 C4          3.0193    2.5956    1.1689 C.ar      1 <0>        -0.1576
      6 C5          3.7671    2.6450   -0.0149 C.ar      1 <0>        -0.0492
      7 C6          3.2631    2.0555   -1.1819 C.ar      1 <0>        -0.1075
      8 C7          2.0355    1.4301   -1.1617 C.ar      1 <0>        -0.0261
      9 C8          1.2952    1.3823    0.0139 C.ar      1 <0>         0.1093
     10 O2          0.0855    0.7647    0.0275 O.3       1 <0>        -0.4696
     11 Cl1         1.4115    0.7005   -2.6081 Cl        1 <0>        -0.0326
     12 C9          5.0738    3.3113   -0.0324 C.2       1 <0>         0.0643
     13 C10         5.7211    3.5080   -1.2123 C.2       1 <0>        -0.2384
     14 C11         7.0878    4.0148   -1.4712 C.2       1 <0>         0.5318
     15 O3          7.8383    4.3353   -0.5632 O.2       1 <0>        -0.4296
     16 N1          7.4507    4.0969   -2.7325 N.2       1 <0>        -0.5984
     17 C12         6.6448    3.7586   -3.7264 C.2       1 <0>         0.3200
     18 S1          5.1577    3.2347   -2.8876 S.3       1 <0>        -0.0358
     19 C13         6.9108    3.8039   -5.1781 C.ar      1 <0>        -0.0761
     20 C14         5.9288    3.3974   -6.0844 C.ar      1 <0>        -0.0571
     21 C15         6.1824    3.4468   -7.4392 C.ar      1 <0>        -0.1285
     22 C16         7.4101    3.8879   -7.9009 C.ar      1 <0>        -0.0372
     23 C17         8.3895    4.2872   -7.0086 C.ar      1 <0>        -0.1317
     24 C18         8.1477    4.2480   -5.6512 C.ar      1 <0>        -0.0370
     25 C19         7.6816    3.9341   -9.3826 C.3       1 <0>        -0.1257
     26 H1          0.5010    1.3392    4.8633 H         1 <0>         0.0683
     27 H2          1.0951    2.8736    5.5421 H         1 <0>         0.0824
     28 H3         -0.2875    2.8726    4.4211 H         1 <0>         0.0691
     29 H4          2.5740    2.0751    3.7189 H         1 <0>         0.0667
     30 H5          1.7856    3.6085    3.2768 H         1 <0>         0.0670
     31 H6          3.4033    3.0484    2.0710 H         1 <0>         0.1497
     32 H7          3.8362    2.0917   -2.0966 H         1 <0>         0.1490
     33 H8          0.1266   -0.1762    0.2469 H         1 <0>         0.3952
     34 H9          5.5219    3.6456    0.8916 H         1 <0>         0.1667
     35 H10         4.9717    3.0490   -5.7252 H         1 <0>         0.1348
     36 H11         5.4226    3.1367   -8.1413 H         1 <0>         0.1376
     37 H12         9.3455    4.6301   -7.3758 H         1 <0>         0.1370
     38 H13         8.9131    4.5596   -4.9559 H         1 <0>         0.1428
     39 H14         8.1066    2.9832   -9.7039 H         1 <0>         0.0805
     40 H15         6.7491    4.1146   -9.9174 H         1 <0>         0.0738
     41 H16         8.3855    4.7380   -9.5981 H         1 <0>         0.0738
@<TRIPOS>BOND
     1    1    2 1
     2    1   26 1
     3    1   27 1
     4    1   28 1
     5    2    3 1
     6    2   29 1
     7    2   30 1
     8    3    4 1
     9    4    9 ar
    10    4    5 ar
    11    5    6 ar
    12    5   31 1
    13    6    7 ar
    14    6   12 1
    15    7    8 ar
    16    7   32 1
    17    8    9 ar
    18    8   11 1
    19    9   10 1
    20   10   33 1
    21   12   13 2
    22   12   34 1
    23   13   18 1
    24   13   14 1
    25   14   15 2
    26   14   16 1
    27   16   17 2
    28   17   18 1
    29   17   19 1
    30   19   24 ar
    31   19   20 ar
    32   20   21 ar
    33   20   35 1
    34   21   22 ar
    35   21   36 1
    36   22   23 ar
    37   22   25 1
    38   23   24 ar
    39   23   37 1
    40   24   38 1
    41   25   39 1
    42   25   40 1
    43   25   41 1
@<TRIPOS>MOLECULE
ZINC01415275
   37    39     0     0     0
SMALL
USER_CHARGES
5-cinnamylidene-2-(p-tolyl)thiazol-4-one
@<TRIPOS>ATOM
      1 C1         11.8816   -6.7344   -0.1422 C.3       1 <0>        -0.1252
      2 C2         10.3951   -6.4871   -0.1280 C.ar      1 <0>        -0.0392
      3 C3          9.5188   -7.5582   -0.1258 C.ar      1 <0>        -0.1309
      4 C4          8.1571   -7.3392   -0.1123 C.ar      1 <0>        -0.0379
      5 C5          7.6632   -6.0326   -0.1010 C.ar      1 <0>        -0.0733
      6 C6          8.5535   -4.9563   -0.1092 C.ar      1 <0>        -0.0585
      7 C7          9.9128   -5.1901   -0.1169 C.ar      1 <0>        -0.1284
      8 C8          6.2069   -5.7904   -0.0866 C.2       1 <0>         0.3345
      9 N1          5.2259   -6.6788   -0.0819 N.2       1 <0>        -0.5982
     10 C9          3.9581   -6.3290   -0.0622 C.2       1 <0>         0.5269
     11 O1          3.0618   -7.1585   -0.0514 O.2       1 <0>        -0.4393
     12 C10         3.6766   -4.8777   -0.0582 C.2       1 <0>        -0.2589
     13 C11         2.4708   -4.2134   -0.0432 C.2       1 <0>         0.0710
     14 C12         2.4426   -2.8067   -0.0358 C.2       1 <0>        -0.1735
     15 C13         1.2553   -2.1526   -0.0210 C.2       1 <0>        -0.0230
     16 C14         1.2259   -0.6834   -0.0133 C.ar      1 <0>        -0.0856
     17 C15         0.0021   -0.0041    0.0020 C.ar      1 <0>        -0.0923
     18 C16        -0.0166    1.3743    0.0096 C.ar      1 <0>        -0.1234
     19 C17         1.1704    2.0865    0.0021 C.ar      1 <0>        -0.1031
     20 C18         2.3850    1.4225   -0.0130 C.ar      1 <0>        -0.1223
     21 C19         2.4215    0.0445   -0.0208 C.ar      1 <0>        -0.0972
     22 S1          5.3426   -4.2275   -0.0705 S.3       1 <0>        -0.0550
     23 H1         12.2310   -6.7889   -1.1733 H         1 <0>         0.0801
     24 H2         12.3905   -5.9187    0.3713 H         1 <0>         0.0734
     25 H3         12.0984   -7.6745    0.3650 H         1 <0>         0.0736
     26 H4          9.9020   -8.5678   -0.1349 H         1 <0>         0.1369
     27 H5          7.4743   -8.1760   -0.1109 H         1 <0>         0.1429
     28 H6          8.1785   -3.9435   -0.1050 H         1 <0>         0.1348
     29 H7         10.6024   -4.3589   -0.1184 H         1 <0>         0.1371
     30 H8          1.5465   -4.7720   -0.0370 H         1 <0>         0.1530
     31 H9          3.3669   -2.2481   -0.0420 H         1 <0>         0.1281
     32 H10         0.3310   -2.7113   -0.0148 H         1 <0>         0.1344
     33 H11        -0.9249   -0.5583    0.0075 H         1 <0>         0.1291
     34 H12        -0.9600    1.9000    0.0169 H         1 <0>         0.1280
     35 H13         1.1488    3.1663    0.0081 H         1 <0>         0.1263
     36 H14         3.3066    1.9856   -0.0191 H         1 <0>         0.1277
     37 H15         3.3699   -0.4721   -0.0322 H         1 <0>         0.1274
@<TRIPOS>BOND
     1    1    2 1
     2    1   23 1
     3    1   24 1
     4    1   25 1
     5    2    7 ar
     6    2    3 ar
     7    3    4 ar
     8    3   26 1
     9    4    5 ar
    10    4   27 1
    11    5    6 ar
    12    5    8 1
    13    6    7 ar
    14    6   28 1
    15    7   29 1
    16    8   22 1
    17    8    9 2
    18    9   10 1
    19   10   11 2
    20   10   12 1
    21   12   13 2
    22   12   22 1
    23   13   14 1
    24   13   30 1
    25   14   15 2
    26   14   31 1
    27   15   16 1
    28   15   32 1
    29   16   21 ar
    30   16   17 ar
    31   17   18 ar
    32   17   33 1
    33   18   19 ar
    34   18   34 1
    35   19   20 ar
    36   19   35 1
    37   20   21 ar
    38   20   36 1
    39   21   37 1
@<TRIPOS>MOLECULE
ZINC02981476
   42    46     0     0     0
SMALL
USER_CHARGES
5-(9-anthrylmethylene)-2-phenyl-thiazol-4-one
@<TRIPOS>ATOM
      1 C1         -8.2553    6.2897    6.1510 C.ar      1 <0>        -0.0748
      2 C2         -8.8906    5.2698    5.4644 C.ar      1 <0>        -0.1285
      3 C3         -8.2549    4.6403    4.4147 C.ar      1 <0>        -0.0440
      4 C4         -6.9666    5.0342    4.0455 C.ar      1 <0>        -0.0662
      5 C5         -6.3291    6.0605    4.7467 C.ar      1 <0>        -0.0643
      6 C6         -6.9791    6.6850    5.7906 C.ar      1 <0>        -0.1259
      7 C7         -6.2794    4.3647    2.9232 C.2       1 <0>         0.3197
      8 N1         -6.7226    3.3802    2.1578 N.2       1 <0>        -0.5992
      9 C8         -6.0043    2.8675    1.1826 C.2       1 <0>         0.5289
     10 O1         -6.4248    1.9590    0.4825 O.2       1 <0>        -0.4345
     11 C9         -4.6615    3.4499    0.9787 C.2       1 <0>        -0.2540
     12 C10        -3.6928    3.1302    0.0542 C.2       1 <0>         0.0828
     13 C11        -2.4667    3.8305    0.0453 C.ar      1 <0>        -0.0956
     14 C12        -1.2396    3.1266    0.0298 C.ar      1 <0>        -0.0031
     15 C13        -1.2100    1.7237    0.0172 C.ar      1 <0>        -0.1246
     16 C14        -0.0126    1.0758    0.0080 C.ar      1 <0>        -0.0918
     17 C15         1.1940    1.7717    0.0002 C.ar      1 <0>        -0.1210
     18 C16         1.2332    3.1303    0.0062 C.ar      1 <0>        -0.0936
     19 C17         0.0262    3.8612    0.0212 C.ar      1 <0>        -0.0632
     20 C18         0.0318    5.2577    0.0282 C.ar      1 <0>        -0.0525
     21 C19        -1.1738    5.9623    0.0436 C.ar      1 <0>        -0.0598
     22 C20        -2.4496    5.2451    0.0524 C.ar      1 <0>        -0.0084
     23 C21        -3.6428    5.9835    0.0683 C.ar      1 <0>        -0.1190
     24 C22        -3.5924    7.3440    0.0752 C.ar      1 <0>        -0.0891
     25 C23        -2.3801    8.0298    0.0668 C.ar      1 <0>        -0.1175
     26 C24        -1.1901    7.3733    0.0514 C.ar      1 <0>        -0.0961
     27 S1         -4.6453    4.6813    2.2756 S.3       1 <0>        -0.0254
     28 H1         -8.7578    6.7791    6.9722 H         1 <0>         0.1342
     29 H2         -9.8867    4.9663    5.7510 H         1 <0>         0.1370
     30 H3         -8.7518    3.8445    3.8798 H         1 <0>         0.1423
     31 H4         -5.3314    6.3670    4.4693 H         1 <0>         0.1338
     32 H5         -6.4891    7.4814    6.3310 H         1 <0>         0.1372
     33 H6         -3.8707    2.3437   -0.6643 H         1 <0>         0.1620
     34 H7         -2.1318    1.1610    0.0190 H         1 <0>         0.1302
     35 H8          0.0021   -0.0041    0.0020 H         1 <0>         0.1274
     36 H9          2.1212    1.2181   -0.0113 H         1 <0>         0.1269
     37 H10         2.1816    3.6469   -0.0001 H         1 <0>         0.1333
     38 H11         0.9696    5.7933    0.0217 H         1 <0>         0.1397
     39 H12        -4.5958    5.4753    0.0746 H         1 <0>         0.1311
     40 H13        -4.5151    7.9052    0.0874 H         1 <0>         0.1261
     41 H14        -2.3859    9.1097    0.0724 H         1 <0>         0.1268
     42 H15        -0.2633    7.9278    0.0456 H         1 <0>         0.1329
@<TRIPOS>BOND
     1    1    6 ar
     2    1    2 ar
     3    1   28 1
     4    2    3 ar
     5    2   29 1
     6    3    4 ar
     7    3   30 1
     8    4    5 ar
     9    4    7 1
    10    5    6 ar
    11    5   31 1
    12    6   32 1
    13    7   27 1
    14    7    8 2
    15    8    9 1
    16    9   10 2
    17    9   11 1
    18   11   12 2
    19   11   27 1
    20   12   13 1
    21   12   33 1
    22   13   22 ar
    23   13   14 ar
    24   14   19 ar
    25   14   15 ar
    26   15   16 ar
    27   15   34 1
    28   16   17 ar
    29   16   35 1
    30   17   18 ar
    31   17   36 1
    32   18   19 ar
    33   18   37 1
    34   19   20 ar
    35   20   21 ar
    36   20   38 1
    37   21   26 ar
    38   21   22 ar
    39   22   23 ar
    40   23   24 ar
    41   23   39 1
    42   24   25 ar
    43   24   40 1
    44   25   26 ar
    45   25   41 1
    46   26   42 1
@<TRIPOS>MOLECULE
ZINC64859559
   34    36     0     0     0
SMALL
USER_CHARGES

@<TRIPOS>ATOM
      1 C1         -0.0384   -0.7996    1.2492 C.3       1 <0>         0.0224
      2 O1          0.2029    0.0149    0.1001 O.3       1 <0>        -0.3098
      3 C2          0.7575   -0.5919   -0.9799 C.ar      1 <0>         0.1594
      4 C3          1.0578   -1.9489   -0.9337 C.ar      1 <0>        -0.2101
      5 C4          1.6198   -2.5696   -2.0257 C.ar      1 <0>        -0.0430
      6 C5          1.8895   -1.8314   -3.1859 C.ar      1 <0>        -0.1426
      7 C6          1.5847   -0.4643   -3.2267 C.ar      1 <0>        -0.0341
      8 C7          1.0180    0.1446   -2.1304 C.ar      1 <0>        -0.1564
      9 C8          2.4889   -2.4873   -4.3532 C.2       1 <0>         0.0886
     10 C9          2.6281   -3.8399   -4.3763 C.2       1 <0>        -0.2642
     11 C10         3.3319   -4.7043   -5.3505 C.2       1 <0>         0.5313
     12 O2          3.9116   -4.2418   -6.3204 O.2       1 <0>        -0.4335
     13 N1          3.2991   -5.9974   -5.1139 N.2       1 <0>        -0.5931
     14 C11         2.6748   -6.5117   -4.0661 C.2       1 <0>         0.3077
     15 S1          2.0188   -5.0738   -3.2341 S.3       1 <0>        -0.0363
     16 C12         2.5551   -7.9302   -3.6761 C.ar      1 <0>        -0.0603
     17 C13         1.8436   -8.2841   -2.5270 C.ar      1 <0>        -0.0520
     18 C14         1.7351   -9.6110   -2.1684 C.ar      1 <0>        -0.1167
     19 C15         2.3301  -10.5922   -2.9444 C.ar      1 <0>         0.0025
     20 C16         3.0374  -10.2477   -4.0847 C.ar      1 <0>        -0.1184
     21 C17         3.1480   -8.9250   -4.4576 C.ar      1 <0>        -0.0319
     22 Cl1         2.1894  -12.2605   -2.4857 Cl        1 <0>        -0.0501
     23 H1         -0.7204   -1.6077    0.9849 H         1 <0>         0.0603
     24 H2          0.9038   -1.2197    1.6010 H         1 <0>         0.0602
     25 H3         -0.4826   -0.1926    2.0380 H         1 <0>         0.1058
     26 H4          0.8499   -2.5167   -0.0388 H         1 <0>         0.1380
     27 H5          1.8530   -3.6235   -1.9886 H         1 <0>         0.1358
     28 H6          1.7907    0.1096   -4.1181 H         1 <0>         0.1431
     29 H7          0.7787    1.1972   -2.1622 H         1 <0>         0.1418
     30 H8          2.8198   -1.8960   -5.1942 H         1 <0>         0.1624
     31 H9          1.3798   -7.5200   -1.9208 H         1 <0>         0.1438
     32 H10         1.1853   -9.8859   -1.2804 H         1 <0>         0.1485
     33 H11         3.4997  -11.0173   -4.6851 H         1 <0>         0.1484
     34 H12         3.6959   -8.6581   -5.3492 H         1 <0>         0.1525
@<TRIPOS>BOND
     1    1    2 1
     2    1   23 1
     3    1   24 1
     4    1   25 1
     5    2    3 1
     6    3    8 ar
     7    3    4 ar
     8    4    5 ar
     9    4   26 1
    10    5    6 ar
    11    5   27 1
    12    6    7 ar
    13    6    9 1
    14    7    8 ar
    15    7   28 1
    16    8   29 1
    17    9   10 2
    18    9   30 1
    19   10   15 1
    20   10   11 1
    21   11   12 2
    22   11   13 1
    23   13   14 2
    24   14   15 1
    25   14   16 1
    26   16   21 ar
    27   16   17 ar
    28   17   18 ar
    29   17   31 1
    30   18   19 ar
    31   18   32 1
    32   19   20 ar
    33   19   22 1
    34   20   21 ar
    35   20   33 1
    36   21   34 1
@<TRIPOS>MOLECULE
ZINC15016661
   34    36     0     0     0
SMALL
USER_CHARGES
(5Z)-5-[(4-methoxyphenyl)methylene]-2-phenyl-thiazol-4-one
@<TRIPOS>ATOM
      1 C1         -1.1680    8.5945    1.2065 C.3       1 <0>         0.0230
      2 O1         -0.2034    7.8431    0.4669 O.3       1 <0>        -0.3104
      3 C2         -0.4145    6.5067    0.3586 C.ar      1 <0>         0.1581
      4 C3          0.4869    5.7181   -0.3481 C.ar      1 <0>        -0.1517
      5 C4          0.2780    4.3627   -0.4611 C.ar      1 <0>        -0.0464
      6 C5         -0.8456    3.7774    0.1376 C.ar      1 <0>        -0.1409
      7 C6         -1.7533    4.5779    0.8439 C.ar      1 <0>        -0.0332
      8 C7         -1.5311    5.9313    0.9552 C.ar      1 <0>        -0.2145
      9 C8         -1.0741    2.3331    0.0201 C.2       1 <0>         0.0847
     10 C9         -0.1129    1.5340   -0.5158 C.2       1 <0>        -0.2621
     11 C10        -0.1695    0.1026   -0.8895 C.2       1 <0>         0.5315
     12 O2         -1.1803   -0.5640   -0.7335 O.2       1 <0>        -0.4366
     13 N1          0.9286   -0.4117   -1.3984 N.2       1 <0>        -0.5977
     14 C11         2.0311    0.2996   -1.5724 C.2       1 <0>         0.3134
     15 S1          1.5723    1.9189   -0.9746 S.3       1 <0>        -0.0394
     16 C12         3.3270   -0.1393   -2.1273 C.ar      1 <0>        -0.0663
     17 C13         4.3848    0.7659   -2.2400 C.ar      1 <0>        -0.0645
     18 C14         5.5943    0.3477   -2.7543 C.ar      1 <0>        -0.1262
     19 C15         5.7579   -0.9627   -3.1680 C.ar      1 <0>        -0.0754
     20 C16         4.7125   -1.8635   -3.0646 C.ar      1 <0>        -0.1286
     21 C17         3.4992   -1.4603   -2.5473 C.ar      1 <0>        -0.0447
     22 H1         -2.1468    8.4895    0.7385 H         1 <0>         0.0600
     23 H2         -1.2126    8.2212    2.2296 H         1 <0>         0.0600
     24 H3         -0.8804    9.6458    1.2155 H         1 <0>         0.1054
     25 H4          1.3528    6.1703   -0.8088 H         1 <0>         0.1410
     26 H5          0.9789    3.7511   -1.0099 H         1 <0>         0.1402
     27 H6         -2.6234    4.1328    1.3036 H         1 <0>         0.1382
     28 H7         -2.2278    6.5487    1.5029 H         1 <0>         0.1383
     29 H8         -2.0055    1.9044    0.3593 H         1 <0>         0.1609
     30 H9          4.2571    1.7899   -1.9213 H         1 <0>         0.1341
     31 H10         6.4143    1.0455   -2.8382 H         1 <0>         0.1372
     32 H11         6.7059   -1.2838   -3.5738 H         1 <0>         0.1339
     33 H12         4.8472   -2.8846   -3.3894 H         1 <0>         0.1367
     34 H13         2.6840   -2.1643   -2.4675 H         1 <0>         0.1419
@<TRIPOS>BOND
     1    1    2 1
     2    1   22 1
     3    1   23 1
     4    1   24 1
     5    2    3 1
     6    3    8 ar
     7    3    4 ar
     8    4    5 ar
     9    4   25 1
    10    5    6 ar
    11    5   26 1
    12    6    7 ar
    13    6    9 1
    14    7    8 ar
    15    7   27 1
    16    8   28 1
    17    9   10 2
    18    9   29 1
    19   10   15 1
    20   10   11 1
    21   11   12 2
    22   11   13 1
    23   13   14 2
    24   14   15 1
    25   14   16 1
    26   16   21 ar
    27   16   17 ar
    28   17   18 ar
    29   17   30 1
    30   18   19 ar
    31   18   31 1
    32   19   20 ar
    33   19   32 1
    34   20   21 ar
    35   20   33 1
    36   21   34 1
@<TRIPOS>MOLECULE
ZINC35337462
   45    47     0     0     0
SMALL
USER_CHARGES

@<TRIPOS>ATOM
      1 C1         -0.1200    1.4768    0.0449 C.3       1 <0>        -0.0855
      2 C2         -0.0901   -0.0299    0.0370 C.ar      1 <0>        -0.2113
      3 C3         -0.0978   -0.7137   -1.1649 C.ar      1 <0>        -0.0773
      4 C4         -0.0704   -2.0944   -1.1758 C.ar      1 <0>        -0.1820
      5 C5         -0.0351   -2.7963    0.0224 C.ar      1 <0>         0.2839
      6 C6         -0.0275   -2.1062    1.2280 C.ar      1 <0>        -0.2648
      7 C7         -0.0493   -0.7253    1.2315 C.ar      1 <0>        -0.0631
      8 N1         -0.0078   -4.1927    0.0151 N.2       1 <0>        -1.0743
      9 S1          0.0343   -5.0276    1.4446 S.o2      1 <0>         2.5977
     10 O1          1.2851   -4.7323    2.0507 O.2       1 <0>        -1.0269
     11 O2         -1.2047   -4.7812    2.0955 O.2       1 <0>        -1.0111
     12 C8          0.0608   -6.7435    1.0452 C.ar      1 <0>        -0.6105
     13 C9          1.1628   -7.5080    1.3668 C.ar      1 <0>         0.0326
     14 C10         1.1820   -8.8676    1.0500 C.ar      1 <0>        -0.1427
     15 C11         0.0839   -9.4449    0.4090 C.ar      1 <0>        -0.0336
     16 C12        -1.0119   -8.6700    0.0927 C.ar      1 <0>        -0.1258
     17 C13        -1.0271   -7.3229    0.4143 C.ar      1 <0>         0.0256
     18 Br1        -2.5372   -6.2691   -0.0160 Br        1 <0>        -0.0130
     19 C14         2.3596   -9.6921    1.3913 C.2       1 <0>         0.5571
     20 O3          3.3143   -9.1870    1.9490 O.2       1 <0>        -0.5307
     21 N2          2.3753  -11.0044    1.0842 N.am      1 <0>        -0.6369
     22 C15         3.5184  -11.7602    1.3207 C.ar      1 <0>         0.1768
     23 C16         4.3126  -11.4968    2.4293 C.ar      1 <0>        -0.1416
     24 C17         5.4464  -12.2481    2.6620 C.ar      1 <0>        -0.1103
     25 C18         5.8026  -13.2694    1.7949 C.ar      1 <0>        -0.1590
     26 C19         5.0284  -13.5463    0.6901 C.ar      1 <0>        -0.0701
     27 C20         3.8728  -12.7979    0.4430 C.ar      1 <0>        -0.1656
     28 C21         3.0374  -13.0918   -0.7319 C.2       1 <0>         0.5265
     29 O4          3.2937  -14.0569   -1.4388 O.co2     1 <0>        -0.6843
     30 O5          2.0864  -12.3711   -1.0020 O.co2     1 <0>        -0.6858
     31 H1          0.9000    1.8606    0.0237 H         1 <0>         0.0463
     32 H2         -0.6610    1.8341   -0.8313 H         1 <0>         0.0477
     33 H3         -0.6207    1.8255    0.9482 H         1 <0>         0.0470
     34 H4         -0.1256   -0.1674   -2.0962 H         1 <0>         0.1002
     35 H5         -0.0769   -2.6279   -2.1148 H         1 <0>         0.1108
     36 H6         -0.0004   -2.6489    2.1614 H         1 <0>         0.0953
     37 H7         -0.0389   -0.1881    2.1684 H         1 <0>         0.0973
     38 H8          2.0092   -7.0558    1.8622 H         1 <0>         0.1580
     39 H9          0.0930  -10.4960    0.1611 H         1 <0>         0.1484
     40 H10        -1.8616   -9.1152   -0.4034 H         1 <0>         0.1432
     41 H11         1.5892  -11.4216    0.6983 H         1 <0>         0.4235
     42 H12         4.0427  -10.7028    3.1098 H         1 <0>         0.1343
     43 H13         6.0607  -12.0389    3.5254 H         1 <0>         0.1148
     44 H14         6.6924  -13.8508    1.9866 H         1 <0>         0.1125
     45 H15         5.3109  -14.3428    0.0177 H         1 <0>         0.1269
@<TRIPOS>BOND
     1    1    2 1
     2    1   31 1
     3    1   32 1
     4    1   33 1
     5    2    7 ar
     6    2    3 ar
     7    3    4 ar
     8    3   34 1
     9    4    5 ar
    10    4   35 1
    11    5    6 ar
    12    5    8 1
    13    6    7 ar
    14    6   36 1
    15    7   37 1
    16    8    9 1
    17    9   10 2
    18    9   11 2
    19    9   12 1
    20   12   17 ar
    21   12   13 ar
    22   13   14 ar
    23   13   38 1
    24   14   15 ar
    25   14   19 1
    26   15   16 ar
    27   15   39 1
    28   16   17 ar
    29   16   40 1
    30   17   18 1
    31   19   20 2
    32   19   21 am
    33   21   22 1
    34   21   41 1
    35   22   27 ar
    36   22   23 ar
    37   23   24 ar
    38   23   42 1
    39   24   25 ar
    40   24   43 1
    41   25   26 ar
    42   25   44 1
    43   26   27 ar
    44   26   45 1
    45   27   28 1
    46   28   29 2
    47   28   30 1
@<TRIPOS>MOLECULE
ZINC08396340
   75    79     0     0     0
SMALL
USER_CHARGES
3-[9-[3-bromo-4-[(4-chlorophenyl)methoxy]phenyl]-3,3,6,6-tetramethyl-1,8-dioxo-4,5,7,9-tetrahydro-2H-acridin-10-yl]propanoic acid
@<TRIPOS>ATOM
      1 C1         -8.0696    1.5285    4.4951 C.3       1 <0>        -0.1522
      2 C2         -9.3212    2.4058    4.4270 C.3       1 <0>        -0.0532
      3 C3         -9.0224    3.7761    5.0393 C.3       1 <0>        -0.0990
      4 C4         -7.9344    4.4580    4.2483 C.2       1 <0>         0.2353
      5 C5         -7.7869    4.2313    2.9260 C.2       1 <0>        -0.2921
      6 C6         -6.7025    4.9285    2.1468 C.3       1 <0>         0.0945
      7 C7         -6.2093    6.1504    2.8766 C.2       1 <0>        -0.2919
      8 C8         -6.4174    6.2887    4.2017 C.2       1 <0>         0.2356
      9 N1         -7.0945    5.3231    4.8948 N.pl3     1 <0>        -0.5158
     10 C9         -6.9180    5.2138    6.3450 C.3       1 <0>         0.1107
     11 C10        -8.0339    5.9839    7.0540 C.3       1 <0>        -0.1804
     12 C11        -7.7823    5.9785    8.5399 C.2       1 <0>         0.4644
     13 O1         -6.8102    5.4165    8.9859 O.co2     1 <0>        -0.6364
     14 C12        -5.9120    7.4982    4.9474 C.3       1 <0>        -0.0997
     15 C13        -5.9075    8.7110    4.0137 C.3       1 <0>        -0.0518
     16 C14        -5.0227    8.3909    2.8044 C.3       1 <0>        -0.1494
     17 C15        -5.5313    7.1400    2.1411 C.2       1 <0>         0.4096
     18 O2         -5.3538    6.9820    0.9495 O.2       1 <0>        -0.4778
     19 C16        -7.3340    9.0032    3.5439 C.3       1 <0>        -0.1510
     20 C17        -5.3466    9.9271    4.7534 C.3       1 <0>        -0.1417
     21 C18        -5.5518    3.9772    1.9420 C.ar      1 <0>        -0.0838
     22 C19        -5.1656    3.6267    0.6612 C.ar      1 <0>        -0.0372
     23 C20        -4.1114    2.7546    0.4704 C.ar      1 <0>        -0.2055
     24 C21        -3.4394    2.2302    1.5648 C.ar      1 <0>         0.1454
     25 C22        -3.8317    2.5795    2.8495 C.ar      1 <0>        -0.1237
     26 C23        -4.8839    3.4568    3.0348 C.ar      1 <0>        -0.0432
     27 Br1        -2.9233    1.8618    4.3446 Br        1 <0>        -0.0427
     28 O3         -2.4022    1.3716    1.3795 O.3       1 <0>        -0.2968
     29 C24        -2.0575    1.0523    0.0300 C.3       1 <0>         0.0989
     30 C25        -0.8941    0.0944    0.0218 C.ar      1 <0>        -0.0872
     31 C26         0.3999    0.5795   -0.0120 C.ar      1 <0>        -0.0805
     32 C27         1.4672   -0.2986   -0.0253 C.ar      1 <0>        -0.1136
     33 C28         1.2403   -1.6632   -0.0047 C.ar      1 <0>        -0.0259
     34 C29        -0.0551   -2.1481    0.0292 C.ar      1 <0>        -0.1136
     35 C30        -1.1216   -1.2690    0.0425 C.ar      1 <0>        -0.0804
     36 Cl1         2.5803   -2.7667   -0.0208 Cl        1 <0>        -0.0694
     37 C31        -8.6355    3.3417    2.2437 C.2       1 <0>         0.4095
     38 O4         -8.4816    3.1659    1.0514 O.2       1 <0>        -0.4782
     39 C32        -9.7314    2.6044    2.9641 C.3       1 <0>        -0.1492
     40 C33       -10.4638    1.7381    5.1949 C.3       1 <0>        -0.1415
     41 H1         -7.7704    1.4026    5.5357 H         1 <0>         0.0634
     42 H2         -8.2851    0.5534    4.0585 H         1 <0>         0.0594
     43 H3         -7.2615    2.0047    3.9398 H         1 <0>         0.0617
     44 H4         -8.6954    3.6489    6.0712 H         1 <0>         0.1013
     45 H5         -9.9246    4.3874    5.0172 H         1 <0>         0.1026
     46 H6         -7.0963    5.2272    1.1753 H         1 <0>         0.0898
     47 H7         -6.9578    4.1647    6.6378 H         1 <0>         0.0938
     48 H8         -5.9519    5.6331    6.6261 H         1 <0>         0.0995
     49 H9         -8.0524    7.0120    6.6924 H         1 <0>         0.0726
     50 H10        -8.9924    5.5083    6.8461 H         1 <0>         0.0742
     51 H11        -6.5627    7.6979    5.7988 H         1 <0>         0.1017
     52 H12        -4.8986    7.3092    5.3014 H         1 <0>         0.1006
     53 H13        -5.0546    9.1525    2.1571 H         1 <0>         0.0850
     54 H14        -3.9953    8.2380    3.1346 H         1 <0>         0.0976
     55 H15        -7.9650    9.2136    4.4074 H         1 <0>         0.0633
     56 H16        -7.3278    9.8671    2.8792 H         1 <0>         0.0600
     57 H17        -7.7254    8.1370    3.0103 H         1 <0>         0.0595
     58 H18        -4.3276    9.7166    5.0782 H         1 <0>         0.0605
     59 H19        -5.3445   10.7891    4.0863 H         1 <0>         0.0610
     60 H20        -5.9679   10.1420    5.6228 H         1 <0>         0.0648
     61 H21        -5.6889    4.0350   -0.1907 H         1 <0>         0.1307
     62 H22        -3.8105    2.4814   -0.5302 H         1 <0>         0.1317
     63 H23        -5.1874    3.7320    4.0340 H         1 <0>         0.1299
     64 H24        -1.7813    1.9639   -0.4999 H         1 <0>         0.0748
     65 H25        -2.9123    0.5899   -0.4637 H         1 <0>         0.0748
     66 H26         0.5770    1.6447   -0.0281 H         1 <0>         0.1352
     67 H27         2.4782    0.0804   -0.0515 H         1 <0>         0.1363
     68 H28        -0.2329   -3.2132    0.0457 H         1 <0>         0.1363
     69 H29        -2.1328   -1.6473    0.0693 H         1 <0>         0.1352
     70 H30        -9.8772    1.7131    2.5349 H         1 <0>         0.0846
     71 H31       -10.6535    3.1840    2.9194 H         1 <0>         0.0974
     72 H32       -11.3550    2.3629    5.1361 H         1 <0>         0.0600
     73 H33       -10.6745    0.7625    4.7568 H         1 <0>         0.0608
     74 H34       -10.1758    1.6131    6.2387 H         1 <0>         0.0645
     75 O5         -8.6381    6.5982    9.3677 O.co2     1 <0>        -0.7635
@<TRIPOS>BOND
     1    1    2 1
     2    1   41 1
     3    1   42 1
     4    1   43 1
     5    2   39 1
     6    2    3 1
     7    2   40 1
     8    3    4 1
     9    3   44 1
    10    3   45 1
    11    4    9 1
    12    4    5 2
    13    5    6 1
    14    5   37 1
    15    6    7 1
    16    6   21 1
    17    6   46 1
    18    7   17 1
    19    7    8 2
    20    8    9 1
    21    8   14 1
    22    9   10 1
    23   10   11 1
    24   10   47 1
    25   10   48 1
    26   11   12 1
    27   11   49 1
    28   11   50 1
    29   12   13 2
    30   12   75 1
    31   14   15 1
    32   14   51 1
    33   14   52 1
    34   15   16 1
    35   15   19 1
    36   15   20 1
    37   16   17 1
    38   16   53 1
    39   16   54 1
    40   17   18 2
    41   19   55 1
    42   19   56 1
    43   19   57 1
    44   20   58 1
    45   20   59 1
    46   20   60 1
    47   21   26 ar
    48   21   22 ar
    49   22   23 ar
    50   22   61 1
    51   23   24 ar
    52   23   62 1
    53   24   25 ar
    54   24   28 1
    55   25   26 ar
    56   25   27 1
    57   26   63 1
    58   28   29 1
    59   29   30 1
    60   29   64 1
    61   29   65 1
    62   30   35 ar
    63   30   31 ar
    64   31   32 ar
    65   31   66 1
    66   32   33 ar
    67   32   67 1
    68   33   34 ar
    69   33   36 1
    70   34   35 ar
    71   34   68 1
    72   35   69 1
    73   37   38 2
    74   37   39 1
    75   39   70 1
    76   39   71 1
    77   40   72 1
    78   40   73 1
    79   40   74 1
@<TRIPOS>MOLECULE
ZINC02189411
   55    57     0     0     0
SMALL
USER_CHARGES
2-[6-(4-tert-butylbenzoyl)aminobenzothiazol-2-yl]sulfanylpentanoic acid
@<TRIPOS>ATOM
      1 C1          3.6177    1.5253   -1.2565 C.3       1 <0>        -0.1486
      2 C2          2.1812    0.9988   -1.2391 C.3       1 <0>        -0.1312
      3 C3          1.4326    1.5987   -0.0472 C.3       1 <0>        -0.0860
      4 C4         -0.0039    1.0722   -0.0298 C.3       1 <0>        -0.1166
      5 H1          0.0086   -0.0177   -0.0312 H         1 <0>         0.0961
      6 C5         -0.7044    1.5649    1.2102 C.2       1 <0>         0.4717
      7 O1         -1.3006    0.7869    1.9167 O.co2     1 <0>        -0.6048
      8 S1         -0.8825    1.6674   -1.4960 S.3       1 <0>         0.0489
      9 C6         -2.4116    0.8132   -1.3042 C.2       1 <0>         0.1396
     10 N1         -2.7767   -0.0199   -0.3561 N.2       1 <0>        -0.4674
     11 C7         -3.9960   -0.6039   -0.3332 C.ar      1 <0>         0.0940
     12 C8         -4.5118   -1.5076    0.6242 C.ar      1 <0>        -0.0399
     13 C9         -5.7669   -2.0163    0.5007 C.ar      1 <0>        -0.1304
     14 C10        -6.5920   -1.6704   -0.5669 C.ar      1 <0>         0.1428
     15 C11        -6.1203   -0.7846   -1.5277 C.ar      1 <0>        -0.0619
     16 C12        -4.8542   -0.2703   -1.4056 C.ar      1 <0>        -0.1361
     17 S2         -3.8574    0.8537   -2.3539 S.3       1 <0>         0.0008
     18 N2         -7.8807   -2.2083   -0.6703 N.am      1 <0>        -0.6615
     19 C13        -8.8838   -1.4625   -1.1742 C.2       1 <0>         0.5561
     20 O2         -8.6537   -0.3541   -1.6175 O.2       1 <0>        -0.5129
     21 C14       -10.2638   -1.9922   -1.1880 C.ar      1 <0>        -0.1376
     22 C15       -10.5305   -3.2667   -0.6850 C.ar      1 <0>        -0.0821
     23 C16       -11.8215   -3.7527   -0.6956 C.ar      1 <0>        -0.1291
     24 C17       -12.8490   -2.9844   -1.2136 C.ar      1 <0>        -0.0433
     25 C18       -12.5906   -1.7226   -1.7190 C.ar      1 <0>        -0.1235
     26 C19       -11.3050   -1.2223   -1.7092 C.ar      1 <0>        -0.0530
     27 C20       -14.2560   -3.5242   -1.2272 C.3       1 <0>        -0.0341
     28 C21       -14.7630   -3.5903   -2.6692 C.3       1 <0>        -0.1399
     29 C22       -14.2698   -4.9272   -0.6169 C.3       1 <0>        -0.1462
     30 C23       -15.1634   -2.6032   -0.4091 C.3       1 <0>        -0.1402
     31 H2          3.6054    2.6117   -1.3447 H         1 <0>         0.0542
     32 H3          4.1200    1.2415   -0.3318 H         1 <0>         0.0528
     33 H4          4.1510    1.0979   -2.1056 H         1 <0>         0.0501
     34 H5          2.1935   -0.0876   -1.1510 H         1 <0>         0.0611
     35 H6          1.6789    1.2826   -2.1639 H         1 <0>         0.0654
     36 H7          1.4203    2.6851   -0.1354 H         1 <0>         0.0793
     37 H8          1.9349    1.3149    0.8776 H         1 <0>         0.0765
     38 H9         -3.9001   -1.7983    1.4654 H         1 <0>         0.1405
     39 H10        -6.1324   -2.7051    1.2479 H         1 <0>         0.1330
     40 H11        -6.7442   -0.5039   -2.3633 H         1 <0>         0.1451
     41 H12        -8.0515   -3.1177   -0.3792 H         1 <0>         0.4104
     42 H13        -9.7286   -3.8692   -0.2845 H         1 <0>         0.1265
     43 H14       -12.0300   -4.7369   -0.3027 H         1 <0>         0.1340
     44 H15       -13.3970   -1.1281   -2.1223 H         1 <0>         0.1292
     45 H16       -11.1046   -0.2371   -2.1036 H         1 <0>         0.1377
     46 H17       -14.1165   -4.2464   -3.2520 H         1 <0>         0.0576
     47 H18       -15.7807   -3.9807   -2.6789 H         1 <0>         0.0602
     48 H19       -14.7531   -2.5908   -3.1039 H         1 <0>         0.0587
     49 H20       -13.9086   -4.8801    0.4104 H         1 <0>         0.0603
     50 H21       -15.2875   -5.3176   -0.6267 H         1 <0>         0.0597
     51 H22       -13.6233   -5.5833   -1.1997 H         1 <0>         0.0601
     52 H23       -15.1535   -1.6037   -0.8439 H         1 <0>         0.0588
     53 H24       -16.1811   -2.9937   -0.4189 H         1 <0>         0.0602
     54 H25       -14.8022   -2.5562    0.6182 H         1 <0>         0.0580
     55 O3         -0.6661    2.8680    1.5297 O.co2     1 <0>        -0.7530
@<TRIPOS>BOND
     1    1    2 1
     2    1   31 1
     3    1   32 1
     4    1   33 1
     5    2    3 1
     6    2   34 1
     7    2   35 1
     8    3    4 1
     9    3   36 1
    10    3   37 1
    11    4    5 1
    12    4    6 1
    13    4    8 1
    14    6    7 2
    15    6   55 1
    16    8    9 1
    17    9   17 1
    18    9   10 2
    19   10   11 1
    20   11   16 ar
    21   11   12 ar
    22   12   13 ar
    23   12   38 1
    24   13   14 ar
    25   13   39 1
    26   14   15 ar
    27   14   18 1
    28   15   16 ar
    29   15   40 1
    30   16   17 1
    31   18   19 am
    32   18   41 1
    33   19   20 2
    34   19   21 1
    35   21   26 ar
    36   21   22 ar
    37   22   23 ar
    38   22   42 1
    39   23   24 ar
    40   23   43 1
    41   24   25 ar
    42   24   27 1
    43   25   26 ar
    44   25   44 1
    45   26   45 1
    46   27   28 1
    47   27   29 1
    48   27   30 1
    49   28   46 1
    50   28   47 1
    51   28   48 1
    52   29   49 1
    53   29   50 1
    54   29   51 1
    55   30   52 1
    56   30   53 1
    57   30   54 1
@<TRIPOS>MOLECULE
ZINC02189412
   55    57     0     0     0
SMALL
USER_CHARGES
2-[6-(4-tert-butylbenzoyl)aminobenzothiazol-2-yl]sulfanylpentanoic acid
@<TRIPOS>ATOM
      1 C1          0.1765    1.5206    0.1649 C.3       1 <0>        -0.1486
      2 C2          0.1835   -0.0092    0.1398 C.3       1 <0>        -0.1311
      3 C3          0.7135   -0.4947   -1.2108 C.3       1 <0>        -0.0860
      4 C4          0.7205   -2.0245   -1.2359 C.3       1 <0>        -0.1164
      5 H1          1.2900   -2.3992   -0.3854 H         1 <0>         0.0960
      6 C5          1.3558   -2.5030   -2.5159 C.2       1 <0>         0.4717
      7 O1          2.2312   -3.3352   -2.4816 O.co2     1 <0>        -0.6046
      8 S1         -0.9800   -2.6372   -1.1405 S.3       1 <0>         0.0485
      9 C6         -0.6755   -4.3696   -1.0357 C.2       1 <0>         0.1394
     10 N1          0.4741   -5.0057   -1.0366 N.2       1 <0>        -0.4664
     11 C7          0.5585   -6.3521   -0.9458 C.ar      1 <0>         0.0926
     12 C8          1.7234   -7.1535   -0.9316 C.ar      1 <0>        -0.0381
     13 C9          1.6396   -8.5077   -0.8402 C.ar      1 <0>        -0.1319
     14 C10         0.4107   -9.1581   -0.7572 C.ar      1 <0>         0.1470
     15 C11        -0.7563   -8.4043   -0.7682 C.ar      1 <0>        -0.0633
     16 C12        -0.6744   -7.0379   -0.8604 C.ar      1 <0>        -0.1339
     17 S2         -1.8523   -5.7087   -0.9092 S.3       1 <0>         0.0003
     18 N2          0.3523  -10.5541   -0.6635 N.am      1 <0>        -0.6619
     19 C13        -0.6755  -11.2245   -1.2209 C.2       1 <0>         0.5556
     20 O2         -1.5003  -10.6288   -1.8863 O.2       1 <0>        -0.5115
     21 C14        -0.8000  -12.6841   -1.0230 C.ar      1 <0>        -0.1379
     22 C15         0.1485  -13.3720   -0.2643 C.ar      1 <0>        -0.0820
     23 C16         0.0238  -14.7335   -0.0796 C.ar      1 <0>        -0.1291
     24 C17        -1.0326  -15.4186   -0.6532 C.ar      1 <0>        -0.0433
     25 C18        -1.9733  -14.7436   -1.4107 C.ar      1 <0>        -0.1235
     26 C19        -1.8633  -13.3814   -1.5989 C.ar      1 <0>        -0.0530
     27 C20        -1.1594  -16.9067   -0.4515 C.3       1 <0>        -0.0341
     28 C21        -1.1179  -17.6107   -1.8093 C.3       1 <0>        -0.1401
     29 C22        -0.0019  -17.4042    0.4165 C.3       1 <0>        -0.1462
     30 C23        -2.4873  -17.2159    0.2429 C.3       1 <0>        -0.1400
     31 H2          1.1911    1.8910    0.0183 H         1 <0>         0.0528
     32 H3         -0.4655    1.8941   -0.6329 H         1 <0>         0.0542
     33 H4         -0.2012    1.8665    1.1271 H         1 <0>         0.0501
     34 H5          0.8254   -0.3827    0.9376 H         1 <0>         0.0611
     35 H6         -0.8311   -0.3796    0.2864 H         1 <0>         0.0653
     36 H7          0.0715   -0.1212   -2.0086 H         1 <0>         0.0794
     37 H8          1.7281   -0.1243   -1.3574 H         1 <0>         0.0765
     38 H9          2.6937   -6.6833   -0.9946 H         1 <0>         0.1407
     39 H10         2.5474   -9.0927   -0.8314 H         1 <0>         0.1332
     40 H11        -1.7191   -8.8895   -0.7045 H         1 <0>         0.1406
     41 H12         1.0515  -11.0386   -0.1974 H         1 <0>         0.4104
     42 H13         0.9760  -12.8391    0.1802 H         1 <0>         0.1266
     43 H14         0.7545  -15.2662    0.5109 H         1 <0>         0.1340
     44 H15        -2.7953  -15.2844   -1.8560 H         1 <0>         0.1292
     45 H16        -2.5984  -12.8556   -2.1901 H         1 <0>         0.1377
     46 H17        -0.1720  -17.3904   -2.3040 H         1 <0>         0.0579
     47 H18        -1.2097  -18.6870   -1.6634 H         1 <0>         0.0602
     48 H19        -1.9426  -17.2563   -2.4277 H         1 <0>         0.0588
     49 H20        -0.0315  -16.9026    1.3838 H         1 <0>         0.0601
     50 H21        -0.0937  -18.4805    0.5624 H         1 <0>         0.0598
     51 H22         0.9440  -17.1839   -0.0782 H         1 <0>         0.0602
     52 H23        -3.3119  -16.8614   -0.3755 H         1 <0>         0.0588
     53 H24        -2.5790  -18.2921    0.3888 H         1 <0>         0.0602
     54 H25        -2.5168  -16.7143    1.2102 H         1 <0>         0.0577
     55 O3          0.9493   -2.0047   -3.6941 O.co2     1 <0>        -0.7531
@<TRIPOS>BOND
     1    1    2 1
     2    1   31 1
     3    1   32 1
     4    1   33 1
     5    2    3 1
     6    2   34 1
     7    2   35 1
     8    3    4 1
     9    3   36 1
    10    3   37 1
    11    4    5 1
    12    4    6 1
    13    4    8 1
    14    6    7 2
    15    6   55 1
    16    8    9 1
    17    9   17 1
    18    9   10 2
    19   10   11 1
    20   11   16 ar
    21   11   12 ar
    22   12   13 ar
    23   12   38 1
    24   13   14 ar
    25   13   39 1
    26   14   15 ar
    27   14   18 1
    28   15   16 ar
    29   15   40 1
    30   16   17 1
    31   18   19 am
    32   18   41 1
    33   19   20 2
    34   19   21 1
    35   21   26 ar
    36   21   22 ar
    37   22   23 ar
    38   22   42 1
    39   23   24 ar
    40   23   43 1
    41   24   25 ar
    42   24   27 1
    43   25   26 ar
    44   25   44 1
    45   26   45 1
    46   27   28 1
    47   27   29 1
    48   27   30 1
    49   28   46 1
    50   28   47 1
    51   28   48 1
    52   29   49 1
    53   29   50 1
    54   29   51 1
    55   30   52 1
    56   30   53 1
    57   30   54 1
@<TRIPOS>MOLECULE
ZINC00702199
   53    56     0     0     0
SMALL
USER_CHARGES
5,7-dichloro-4-[[3-(4-methoxyphenyl)sulfanylphenyl]methyl-methyl-amino]-quinoline-2-carboxylic acid
@<TRIPOS>ATOM
      1 C1          3.6601    2.8603   -1.1999 C.3       1 <0>         0.0149
      2 N1          3.5473    2.0778    0.0383 N.pl3     1 <0>        -0.5055
      3 C2          3.6671    2.9421    1.2200 C.3       1 <0>         0.0928
      4 C3          5.0593    3.5156    1.2839 C.ar      1 <0>        -0.0925
      5 C4          5.3400    4.7187    0.6617 C.ar      1 <0>        -0.0785
      6 C5          6.6161    5.2485    0.7173 C.ar      1 <0>        -0.1252
      7 C6          7.6151    4.5778    1.3950 C.ar      1 <0>        -0.0574
      8 C7          7.3367    3.3692    2.0216 C.ar      1 <0>        -0.1400
      9 C8          6.0515    2.8423    1.9680 C.ar      1 <0>        -0.0406
     10 S1          8.6079    2.5102    2.8881 S.3       1 <0>        -0.0097
     11 C9          9.2359    1.3686    1.7018 C.ar      1 <0>        -0.1340
     12 C10         8.7750    1.4036    0.3917 C.ar      1 <0>        -0.0812
     13 C11         9.2716    0.5120   -0.5383 C.ar      1 <0>        -0.1904
     14 C12        10.2223   -0.4256   -0.1623 C.ar      1 <0>         0.1269
     15 C13        10.6790   -0.4652    1.1470 C.ar      1 <0>        -0.1331
     16 C14        10.1879    0.4293    2.0773 C.ar      1 <0>        -0.0571
     17 O1         10.7067   -1.3070   -1.0777 O.3       1 <0>        -0.3151
     18 C15        10.1923   -1.2096   -2.4074 C.3       1 <0>         0.0264
     19 C16         2.3612    1.3596    0.0660 C.ar      1 <0>         0.2595
     20 C17         1.1352    2.0063    0.0891 C.ar      1 <0>        -0.1699
     21 C18        -0.0418    1.2525    0.1164 C.ar      1 <0>         0.2360
     22 C19         1.1295   -0.7478    0.1002 C.ar      1 <0>         0.1742
     23 C20         2.3659   -0.0544    0.0720 C.ar      1 <0>        -0.0762
     24 C21         3.5680   -0.7782    0.0515 C.ar      1 <0>         0.0408
     25 C22         3.5348   -2.1410    0.0590 C.ar      1 <0>        -0.1116
     26 C23         2.3207   -2.8263    0.0868 C.ar      1 <0>         0.0441
     27 C24         1.1359   -2.1553    0.1062 C.ar      1 <0>        -0.1426
     28 Cl1         2.3196   -4.5622    0.0956 Cl        1 <0>        -0.0138
     29 Cl2         5.0892    0.0575    0.0163 Cl        1 <0>         0.0263
     30 C25        -1.3482    1.9522    0.1343 C.2       1 <0>         0.4699
     31 O2         -1.3871    3.1657    0.1302 O.co2     1 <0>        -0.5529
     32 H1          2.8265    3.5596   -1.2650 H         1 <0>         0.0519
     33 H2          4.5991    3.4138   -1.1956 H         1 <0>         0.0958
     34 H3          3.6383    2.1882   -2.0577 H         1 <0>         0.0809
     35 H4          2.9427    3.7537    1.1516 H         1 <0>         0.0710
     36 H5          3.4735    2.3572    2.1191 H         1 <0>         0.0954
     37 H6          4.5607    5.2454    0.1309 H         1 <0>         0.1301
     38 H7          6.8317    6.1881    0.2303 H         1 <0>         0.1334
     39 H8          8.6115    4.9923    1.4383 H         1 <0>         0.1348
     40 H9          5.8306    1.9052    2.4573 H         1 <0>         0.1319
     41 H10         8.0316    2.1306    0.0998 H         1 <0>         0.1223
     42 H11         8.9168    0.5419   -1.5579 H         1 <0>         0.1289
     43 H12        11.4192   -1.1955    1.4387 H         1 <0>         0.1375
     44 H13        10.5441    0.3988    3.0964 H         1 <0>         0.1360
     45 H14        10.4100   -0.2203   -2.8096 H         1 <0>         0.0558
     46 H15        10.6607   -1.9681   -3.0346 H         1 <0>         0.1024
     47 H16         9.1137   -1.3663   -2.3921 H         1 <0>         0.0553
     48 H17         1.0896    3.0854    0.0861 H         1 <0>         0.1912
     49 H18         4.4606   -2.6970    0.0437 H         1 <0>         0.1654
     50 H19         0.2043   -2.7012    0.1279 H         1 <0>         0.1698
     51 N2         -0.0868   -0.1083    0.1228 N.ar      1 <0>        -0.4640
     52 H20        -0.9741   -0.6245    0.1432 H         1 <0>         0.4823
     53 O3         -2.4921    1.2420    0.1551 O.co2     1 <0>        -0.6922
@<TRIPOS>BOND
     1    1    2 1
     2    1   32 1
     3    1   33 1
     4    1   34 1
     5    2    3 1
     6    2   19 1
     7    3    4 1
     8    3   35 1
     9    3   36 1
    10    4    9 ar
    11    4    5 ar
    12    5    6 ar
    13    5   37 1
    14    6    7 ar
    15    6   38 1
    16    7    8 ar
    17    7   39 1
    18    8    9 ar
    19    8   10 1
    20    9   40 1
    21   10   11 1
    22   11   16 ar
    23   11   12 ar
    24   12   13 ar
    25   12   41 1
    26   13   14 ar
    27   13   42 1
    28   14   15 ar
    29   14   17 1
    30   15   16 ar
    31   15   43 1
    32   16   44 1
    33   17   18 1
    34   18   45 1
    35   18   46 1
    36   18   47 1
    37   19   23 ar
    38   19   20 ar
    39   20   21 ar
    40   20   48 1
    41   21   30 1
    42   21   51 ar
    43   22   27 ar
    44   22   23 ar
    45   22   51 ar
    46   23   24 ar
    47   24   25 ar
    48   24   29 1
    49   25   26 ar
    50   25   49 1
    51   26   27 ar
    52   26   28 1
    53   27   50 1
    54   30   31 2
    55   30   53 1
    56   51   52 1
@<TRIPOS>MOLECULE
ZINC05844485
   45    47     0     0     0
SMALL
USER_CHARGES
7-chloro-2-[(4-methoxyphenyl)methyl]-3-methyl-5-propyl-benzofuran-4-ol
@<TRIPOS>ATOM
      1 C1          7.5787   -1.1600    1.3577 C.3       1 <0>        -0.1526
      2 C2          6.0622   -0.9575    1.3743 C.3       1 <0>        -0.1184
      3 C3          5.5254   -1.0068   -0.0576 C.3       1 <0>        -0.0687
      4 C4          4.0317   -0.8074   -0.0412 C.ar      1 <0>        -0.1146
      5 C5          3.1873   -1.9079   -0.0386 C.ar      1 <0>        -0.0677
      6 C6          1.8179   -1.7453   -0.0246 C.ar      1 <0>        -0.0311
      7 C7          1.2684   -0.4675   -0.0125 C.ar      1 <0>         0.0735
      8 C8          2.1203    0.6478   -0.0147 C.ar      1 <0>        -0.1345
      9 C9          3.5076    0.4715   -0.0294 C.ar      1 <0>         0.1630
     10 O1          4.3345    1.5500   -0.0315 O.3       1 <0>        -0.4826
     11 C10         1.2355    1.8186    0.0000 C.2       1 <0>        -0.1588
     12 C11        -0.0162    1.3407    0.0094 C.2       1 <0>         0.0417
     13 O2          0.0021   -0.0041    0.0020 O.3       1 <0>        -0.1763
     14 C12        -1.2631    2.1869    0.0202 C.3       1 <0>         0.0003
     15 C13        -1.6861    2.4762   -1.3970 C.ar      1 <0>        -0.1275
     16 C14        -1.2115    3.6030   -2.0426 C.ar      1 <0>        -0.0686
     17 C15        -1.5933    3.8674   -3.3436 C.ar      1 <0>        -0.2075
     18 C16        -2.4626    3.0072   -3.9986 C.ar      1 <0>         0.1312
     19 C17        -2.9419    1.8803   -3.3467 C.ar      1 <0>        -0.1498
     20 C18        -2.5526    1.6173   -2.0476 C.ar      1 <0>        -0.0654
     21 O3         -2.8437    3.2678   -5.2768 O.3       1 <0>        -0.3169
     22 C19        -2.3108    4.4459   -5.8852 C.3       1 <0>         0.0262
     23 C20         1.6511    3.2671    0.0034 C.3       1 <0>        -0.0815
     24 Cl1         0.7793   -3.1363   -0.0227 Cl        1 <0>        -0.0528
     25 H1          7.9611   -1.1248    2.3778 H         1 <0>         0.0558
     26 H2          7.8110   -2.1289    0.9157 H         1 <0>         0.0542
     27 H3          8.0442   -0.3705    0.7678 H         1 <0>         0.0548
     28 H4          5.8298    0.0114    1.8163 H         1 <0>         0.0675
     29 H5          5.5967   -1.7470    1.9643 H         1 <0>         0.0619
     30 H6          5.7578   -1.9757   -0.4995 H         1 <0>         0.0750
     31 H7          5.9909   -0.2173   -0.6475 H         1 <0>         0.0758
     32 H8          3.6069   -2.9030   -0.0479 H         1 <0>         0.1498
     33 H9          4.5653    1.8669   -0.9155 H         1 <0>         0.3910
     34 H10        -2.0608    1.6519    0.5354 H         1 <0>         0.0973
     35 H11        -1.0613    3.1247    0.5377 H         1 <0>         0.1081
     36 H12        -0.5382    4.2747   -1.5307 H         1 <0>         0.1276
     37 H13        -1.2188    4.7454   -3.8489 H         1 <0>         0.1301
     38 H14        -3.6184    1.2089   -3.8546 H         1 <0>         0.1330
     39 H15        -2.9251    0.7399   -1.5398 H         1 <0>         0.1317
     40 H16        -2.6089    5.3203   -5.3066 H         1 <0>         0.0568
     41 H17        -1.2231    4.3812   -5.9113 H         1 <0>         0.0560
     42 H18        -2.6941    4.5350   -6.9017 H         1 <0>         0.1018
     43 H19         1.7615    3.6111    1.0318 H         1 <0>         0.0724
     44 H20         2.6017    3.3736   -0.5193 H         1 <0>         0.0709
     45 H21         0.8909    3.8645   -0.4999 H         1 <0>         0.0682
@<TRIPOS>BOND
     1    1    2 1
     2    1   25 1
     3    1   26 1
     4    1   27 1
     5    2    3 1
     6    2   28 1
     7    2   29 1
     8    3    4 1
     9    3   30 1
    10    3   31 1
    11    4    9 ar
    12    4    5 ar
    13    5    6 ar
    14    5   32 1
    15    6    7 ar
    16    6   24 1
    17    7   13 1
    18    7    8 ar
    19    8    9 ar
    20    8   11 1
    21    9   10 1
    22   10   33 1
    23   11   12 2
    24   11   23 1
    25   12   13 1
    26   12   14 1
    27   14   15 1
    28   14   34 1
    29   14   35 1
    30   15   20 ar
    31   15   16 ar
    32   16   17 ar
    33   16   36 1
    34   17   18 ar
    35   17   37 1
    36   18   19 ar
    37   18   21 1
    38   19   20 ar
    39   19   38 1
    40   20   39 1
    41   21   22 1
    42   22   40 1
    43   22   41 1
    44   22   42 1
    45   23   43 1
    46   23   44 1
    47   23   45 1
@<TRIPOS>MOLECULE
ZINC12496555
   55    54     0     0     0
SMALL
USER_CHARGES
(5S,6Z,8E,10E,12R,14Z)-20,20,20-trifluoro-5,12-dihydroxy-icosa-6,8,10,14-tetraenoic acid
@<TRIPOS>ATOM
      1 C1          4.3039   -6.4080    9.1200 C.3       1 <0>        -0.1082
      2 C2          5.3380   -5.3077    9.3670 C.3       1 <0>        -0.1285
      3 C3          6.3086   -5.7564   10.4614 C.3       1 <0>        -0.1652
      4 C4          7.3426   -4.6561   10.7084 C.3       1 <0>         0.4495
      5 F1          6.6911   -3.4863   11.1138 F         1 <0>        -0.1840
      6 F2          8.2301   -5.0663   11.7090 F         1 <0>        -0.1874
      7 F3          8.0522   -4.4095    9.5281 F         1 <0>        -0.1823
      8 C5          3.3333   -5.9593    8.0257 C.3       1 <0>        -0.1047
      9 C6          2.3148   -7.0431    7.7824 C.2       1 <0>        -0.1603
     10 C7          1.0361   -6.7612    7.8229 C.2       1 <0>        -0.1513
     11 C8          0.5837   -5.3287    7.9423 C.3       1 <0>        -0.1294
     12 C9         -0.4173   -5.0155    6.8283 C.3       1 <0>         0.1437
     13 H1          0.0288   -5.2513    5.8621 H         1 <0>         0.1029
     14 C10        -0.7762   -3.5525    6.8722 C.2       1 <0>        -0.1945
     15 C11        -0.5311   -2.7742    5.8183 C.2       1 <0>        -0.0984
     16 C12        -0.8800   -1.3523    5.8610 C.2       1 <0>        -0.1316
     17 C13        -0.6319   -0.5646    4.7943 C.2       1 <0>        -0.1083
     18 C14        -0.9808    0.8573    4.8370 C.2       1 <0>        -0.1282
     19 C15        -0.6490    1.6557    3.8225 C.2       1 <0>        -0.1629
     20 C16        -0.0386    1.0733    2.5738 C.3       1 <0>         0.1247
     21 H2         -0.0279   -0.0141    2.6477 H         1 <0>         0.1070
     22 C17         1.3939    1.5880    2.4184 C.3       1 <0>        -0.1469
     23 C18         2.0555    0.9017    1.2217 C.3       1 <0>        -0.0940
     24 C19         3.4879    1.4164    1.0664 C.3       1 <0>        -0.1581
     25 C20         4.1396    0.7404   -0.1123 C.2       1 <0>         0.4571
     26 O1          3.5217   -0.0699   -0.7615 O.co2     1 <0>        -0.6404
     27 O2         -0.8116    1.4659    1.4379 O.3       1 <0>        -0.5509
     28 O3         -1.5966   -5.8011    7.0130 O.3       1 <0>        -0.5556
     29 H3          3.7511   -6.6001   10.0396 H         1 <0>         0.0660
     30 H4          4.8116   -7.3194    8.8041 H         1 <0>         0.0671
     31 H5          5.8908   -5.1156    8.4475 H         1 <0>         0.0795
     32 H6          4.8304   -4.3963    9.6830 H         1 <0>         0.0774
     33 H7          5.7558   -5.9485   11.3809 H         1 <0>         0.1083
     34 H8          6.8162   -6.6677   10.1454 H         1 <0>         0.1092
     35 H9          3.8862   -5.7672    7.1062 H         1 <0>         0.0740
     36 H10         2.8257   -5.0479    8.3416 H         1 <0>         0.0775
     37 H11         2.6391   -8.0521    7.5747 H         1 <0>         0.1098
     38 H12         0.3062   -7.5555    7.7707 H         1 <0>         0.1132
     39 H13         1.4452   -4.6670    7.8532 H         1 <0>         0.0883
     40 H14         0.1080   -5.1775    8.9113 H         1 <0>         0.0730
     41 H15        -1.2321   -3.1347    7.7577 H         1 <0>         0.1133
     42 H16        -0.0753   -3.1921    4.9328 H         1 <0>         0.1173
     43 H17        -1.3358   -0.9345    6.7464 H         1 <0>         0.1143
     44 H18        -0.1761   -0.9824    3.9088 H         1 <0>         0.1239
     45 H19        -1.5068    1.2589    5.6904 H         1 <0>         0.1158
     46 H20        -0.8177    2.7199    3.8953 H         1 <0>         0.1178
     47 H21         1.9598    1.3661    3.3232 H         1 <0>         0.0669
     48 H22         1.3770    2.6657    2.2556 H         1 <0>         0.0621
     49 H23         1.4895    1.1237    0.3170 H         1 <0>         0.0676
     50 H24         2.0723   -0.1759    1.3846 H         1 <0>         0.0582
     51 H25         3.4711    2.4941    0.9036 H         1 <0>         0.0608
     52 H26         4.0538    1.1945    1.9712 H         1 <0>         0.0603
     53 H27        -0.9283    2.4221    1.3530 H         1 <0>         0.3712
     54 H28        -2.0469   -5.6429    7.8540 H         1 <0>         0.3728
     55 O4          5.4064    1.0385   -0.4409 O.co2     1 <0>        -0.7798
@<TRIPOS>BOND
     1    1    2 1
     2    1    8 1
     3    1   29 1
     4    1   30 1
     5    2    3 1
     6    2   31 1
     7    2   32 1
     8    3    4 1
     9    3   33 1
    10    3   34 1
    11    4    5 1
    12    4    6 1
    13    4    7 1
    14    8    9 1
    15    8   35 1
    16    8   36 1
    17    9   10 2
    18    9   37 1
    19   10   11 1
    20   10   38 1
    21   11   12 1
    22   11   39 1
    23   11   40 1
    24   12   13 1
    25   12   14 1
    26   12   28 1
    27   14   15 2
    28   14   41 1
    29   15   16 1
    30   15   42 1
    31   16   17 2
    32   16   43 1
    33   17   18 1
    34   17   44 1
    35   18   19 2
    36   18   45 1
    37   19   20 1
    38   19   46 1
    39   20   21 1
    40   20   22 1
    41   20   27 1
    42   22   23 1
    43   22   47 1
    44   22   48 1
    45   23   24 1
    46   23   49 1
    47   23   50 1
    48   24   25 1
    49   24   51 1
    50   24   52 1
    51   25   26 2
    52   25   55 1
    53   27   53 1
    54   28   54 1
@<TRIPOS>MOLECULE
ZINC11678783
   47    48     0     0     0
SMALL
USER_CHARGES
(5E)-2-amino-5-[(3,5-ditert-butyl-4-hydroxy-phenyl)methylene]thiazol-4-one
@<TRIPOS>ATOM
      1 C1          0.3555   -2.5483    0.0833 C.3       1 <0>        -0.1485
      2 C2          1.6764   -1.8707   -0.2868 C.3       1 <0>        -0.0117
      3 C3          2.1617   -2.4025   -1.6368 C.3       1 <0>        -0.1415
      4 C4          2.7234   -2.1738    0.7870 C.3       1 <0>        -0.1424
      5 C5          1.4682   -0.3810   -0.3791 C.ar      1 <0>        -0.1251
      6 C6          0.2228    0.1546   -0.1411 C.ar      1 <0>        -0.0502
      7 C7          0.0308    1.5392   -0.2272 C.ar      1 <0>        -0.1375
      8 C8          1.1084    2.3714   -0.5555 C.ar      1 <0>        -0.0027
      9 C9          2.3495    1.8249   -0.7916 C.ar      1 <0>        -0.1758
     10 C10         2.5343    0.4497   -0.7051 C.ar      1 <0>         0.2002
     11 O1          3.7604   -0.0839   -0.9393 O.3       1 <0>        -0.5052
     12 C11         3.5100    2.7189   -1.1454 C.3       1 <0>        -0.0245
     13 C12         3.0417    4.1752   -1.1736 C.3       1 <0>        -0.1445
     14 C13         4.6148    2.5586   -0.0991 C.3       1 <0>        -0.1536
     15 C14         4.0516    2.3305   -2.5226 C.3       1 <0>        -0.1544
     16 C15        -1.2968    2.1158    0.0197 C.2       1 <0>         0.0720
     17 C16        -1.4132    3.2838    0.7007 C.2       1 <0>        -0.2457
     18 C17        -0.3837    4.0696    1.4205 C.2       1 <0>         0.5436
     19 O2          0.7806    3.7073    1.4763 O.2       1 <0>        -0.4538
     20 N1         -0.7927    5.1808    1.9923 N.2       1 <0>        -0.6702
     21 C18        -2.0535    5.5810    1.9459 C.2       1 <0>         0.5060
     22 S1         -2.8541    4.3035    0.9884 S.3       1 <0>        -0.0767
     23 N2         -2.6100    6.7036    2.4990 N.pl3     1 <0>        -0.7841
     24 H1          0.0066   -2.1659    1.0539 H         1 <0>         0.0573
     25 H2          0.5075   -3.6357    0.1507 H         1 <0>         0.0589
     26 H3         -0.3972   -2.3304   -0.6887 H         1 <0>         0.0578
     27 H4          3.1114   -1.9153   -1.9029 H         1 <0>         0.0709
     28 H5          1.4089   -2.1846   -2.4087 H         1 <0>         0.0499
     29 H6          2.3137   -3.4899   -1.5694 H         1 <0>         0.0534
     30 H7          3.6731   -1.6867    0.5210 H         1 <0>         0.0709
     31 H8          2.8753   -3.2612    0.8544 H         1 <0>         0.0534
     32 H9          2.3745   -1.7915    1.7576 H         1 <0>         0.0499
     33 H10        -0.6049   -0.4917    0.1114 H         1 <0>         0.1342
     34 H11         0.9659    3.4398   -0.6233 H         1 <0>         0.1297
     35 H12         4.6053    0.5715   -1.1974 H         1 <0>         0.4222
     36 H13         3.8887    4.8278   -1.4318 H         1 <0>         0.0585
     37 H14         2.6523    4.4544   -0.1834 H         1 <0>         0.0699
     38 H15         2.2474    4.2904   -1.9258 H         1 <0>         0.0552
     39 H16         5.4618    3.2111   -0.3574 H         1 <0>         0.0656
     40 H17         4.9514    1.5116   -0.0788 H         1 <0>         0.0568
     41 H18         4.2254    2.8378    0.8910 H         1 <0>         0.0689
     42 H19         4.8987    2.9830   -2.7808 H         1 <0>         0.0667
     43 H20         3.2573    2.4458   -3.2748 H         1 <0>         0.0644
     44 H21         4.3882    1.2835   -2.5023 H         1 <0>         0.0581
     45 H22        -2.1970    1.6011   -0.3473 H         1 <0>         0.1462
     46 H23        -3.6844    6.9036    2.3740 H         1 <0>         0.4553
     47 H24        -1.9825    7.4052    3.0683 H         1 <0>         0.4527
@<TRIPOS>BOND
     1    1    2 1
     2    1   24 1
     3    1   25 1
     4    1   26 1
     5    2    3 1
     6    2    4 1
     7    2    5 1
     8    3   27 1
     9    3   28 1
    10    3   29 1
    11    4   30 1
    12    4   31 1
    13    4   32 1
    14    5   10 ar
    15    5    6 ar
    16    6    7 ar
    17    6   33 1
    18    7    8 ar
    19    7   16 1
    20    8    9 ar
    21    8   34 1
    22    9   10 ar
    23    9   12 1
    24   10   11 1
    25   11   35 1
    26   12   13 1
    27   12   14 1
    28   12   15 1
    29   13   36 1
    30   13   37 1
    31   13   38 1
    32   14   39 1
    33   14   40 1
    34   14   41 1
    35   15   42 1
    36   15   43 1
    37   15   44 1
    38   16   17 2
    39   16   45 1
    40   17   22 1
    41   17   18 1
    42   18   19 2
    43   18   20 1
    44   20   21 2
    45   21   22 1
    46   21   23 1
    47   23   46 1
    48   23   47 1
@<TRIPOS>MOLECULE
ZINC00597557
   49    53     0     0     0
SMALL
USER_CHARGES
2-[1-methoxy-6-(2-naphthylmethoxy)indan-1-yl]thiazole
@<TRIPOS>ATOM
      1 C1          2.9278    3.0805    2.2657 C.3       1 <0>         0.0260
      2 O1          2.9504    4.1111    1.2761 O.3       1 <0>        -0.3642
      3 C2          2.5450    3.6777   -0.0238 C.3       1 <0>         0.2551
      4 C3          3.4079    2.4835   -0.4835 C.3       1 <0>        -0.1346
      5 C4          2.5727    1.2722   -0.0174 C.3       1 <0>        -0.0839
      6 C5          1.1425    1.7671    0.0184 C.ar      1 <0>        -0.1174
      7 C6          1.1267    3.1501    0.0147 C.ar      1 <0>        -0.0769
      8 C7         -0.0802    3.8263    0.0446 C.ar      1 <0>        -0.1091
      9 C8         -1.2733    3.1211    0.0783 C.ar      1 <0>         0.1300
     10 C9         -1.2551    1.7341    0.0753 C.ar      1 <0>        -0.1939
     11 C10        -0.0493    1.0623    0.0516 C.ar      1 <0>        -0.0669
     12 O2         -2.4577    3.7869    0.1081 O.3       1 <0>        -0.3064
     13 C11        -3.6466    2.9947    0.1418 C.3       1 <0>         0.1014
     14 C12        -4.8519    3.8988    0.1715 C.ar      1 <0>        -0.0933
     15 C13        -5.4332    4.3074   -1.0275 C.ar      1 <0>        -0.0964
     16 C14        -6.5226    5.1231   -1.0359 C.ar      1 <0>        -0.1061
     17 C15        -7.0719    5.5622    0.1809 C.ar      1 <0>        -0.0445
     18 C16        -8.1965    6.4045    0.2124 C.ar      1 <0>        -0.1088
     19 C17        -8.7012    6.8094    1.4097 C.ar      1 <0>        -0.1112
     20 C18        -8.1195    6.4012    2.6086 C.ar      1 <0>        -0.1168
     21 C19        -7.0301    5.5856    2.6169 C.ar      1 <0>        -0.1026
     22 C20        -6.4804    5.1472    1.4001 C.ar      1 <0>        -0.0564
     23 C21        -5.3598    4.2996    1.3688 C.ar      1 <0>        -0.0752
     24 C22         2.6543    4.8120   -1.0100 C.2       1 <0>         0.0952
     25 N1          2.4284    4.8051   -2.3034 N.2       1 <0>        -0.4958
     26 C23         2.5664    5.8941   -3.0305 C.2       1 <0>         0.0278
     27 C24         2.9630    7.0361   -2.4132 C.2       1 <0>        -0.2193
     28 S1          3.1186    6.4615   -0.7282 S.3       1 <0>         0.0838
     29 H1          1.9429    2.6138    2.2819 H         1 <0>         0.0527
     30 H2          3.6814    2.3302    2.0262 H         1 <0>         0.0529
     31 H3          3.1419    3.5112    3.2438 H         1 <0>         0.0937
     32 H4          4.3804    2.4960    0.0087 H         1 <0>         0.0941
     33 H5          3.5212    2.4819   -1.5676 H         1 <0>         0.0972
     34 H6          2.8883    0.9552    0.9766 H         1 <0>         0.0868
     35 H7          2.6708    0.4500   -0.7262 H         1 <0>         0.0857
     36 H8         -0.0927    4.9062    0.0413 H         1 <0>         0.1253
     37 H9         -2.1823    1.1808    0.0967 H         1 <0>         0.1331
     38 H10        -0.0354   -0.0176    0.0545 H         1 <0>         0.1288
     39 H11        -3.6878    2.3633   -0.7457 H         1 <0>         0.0735
     40 H12        -3.6404    2.3680    1.0336 H         1 <0>         0.0730
     41 H13        -5.0131    3.9714   -1.9640 H         1 <0>         0.1254
     42 H14        -6.9625    5.4316   -1.9728 H         1 <0>         0.1309
     43 H15        -8.6575    6.7291   -0.7088 H         1 <0>         0.1286
     44 H16        -9.5657    7.4563    1.4310 H         1 <0>         0.1249
     45 H17        -8.5397    6.7370    3.5452 H         1 <0>         0.1250
     46 H18        -6.5898    5.2774    3.5537 H         1 <0>         0.1283
     47 H19        -4.9018    3.9711    2.2901 H         1 <0>         0.1297
     48 H20         2.3732    5.8779   -4.0929 H         1 <0>         0.1718
     49 H21         3.1363    8.0190   -2.8258 H         1 <0>         0.1988
@<TRIPOS>BOND
     1    1    2 1
     2    1   29 1
     3    1   30 1
     4    1   31 1
     5    2    3 1
     6    3    7 1
     7    3    4 1
     8    3   24 1
     9    4    5 1
    10    4   32 1
    11    4   33 1
    12    5    6 1
    13    5   34 1
    14    5   35 1
    15    6   11 ar
    16    6    7 ar
    17    7    8 ar
    18    8    9 ar
    19    8   36 1
    20    9   10 ar
    21    9   12 1
    22   10   11 ar
    23   10   37 1
    24   11   38 1
    25   12   13 1
    26   13   14 1
    27   13   39 1
    28   13   40 1
    29   14   23 ar
    30   14   15 ar
    31   15   16 ar
    32   15   41 1
    33   16   17 ar
    34   16   42 1
    35   17   22 ar
    36   17   18 ar
    37   18   19 ar
    38   18   43 1
    39   19   20 ar
    40   19   44 1
    41   20   21 ar
    42   20   45 1
    43   21   22 ar
    44   21   46 1
    45   22   23 ar
    46   23   47 1
    47   24   28 1
    48   24   25 2
    49   25   26 1
    50   26   27 2
    51   26   48 1
    52   27   28 1
    53   27   49 1
@<TRIPOS>MOLECULE
ZINC03784103
   49    53     0     0     0
SMALL
USER_CHARGES
2-[1-methoxy-6-(2-naphthylmethoxy)indan-1-yl]thiazole
@<TRIPOS>ATOM
      1 C1          7.3797    2.4477   -5.2486 C.3       1 <0>         0.0085
      2 O1          8.1997    3.5589   -4.8815 O.3       1 <0>        -0.3493
      3 C2          7.4776    4.6485   -4.3041 C.3       1 <0>         0.2533
      4 C3          8.4496    5.7688   -3.8771 C.3       1 <0>        -0.0968
      5 C4          8.7388    5.4128   -2.4034 C.3       1 <0>        -0.0766
      6 C5          7.5199    4.6475   -1.9340 C.ar      1 <0>        -0.1062
      7 C6          6.7949    4.2081   -3.0268 C.ar      1 <0>        -0.0786
      8 C7          5.6325    3.4819   -2.8368 C.ar      1 <0>        -0.1182
      9 C8          5.1930    3.1934   -1.5539 C.ar      1 <0>         0.1284
     10 C9          5.9189    3.6398   -0.4595 C.ar      1 <0>        -0.1927
     11 C10         7.0812    4.3593   -0.6523 C.ar      1 <0>        -0.0672
     12 O2          4.0511    2.4801   -1.3692 O.3       1 <0>        -0.3074
     13 C11         3.6594    2.2207   -0.0196 C.3       1 <0>         0.1013
     14 C12         2.3803    1.4239   -0.0121 C.ar      1 <0>        -0.0933
     15 C13         1.1564    2.0906    0.0022 C.ar      1 <0>        -0.0964
     16 C14        -0.0170    1.4012    0.0097 C.ar      1 <0>        -0.1062
     17 C15         0.0021   -0.0041    0.0020 C.ar      1 <0>        -0.0445
     18 C16        -1.1888   -0.7503    0.0088 C.ar      1 <0>        -0.1089
     19 C17        -1.1315   -2.1100    0.0006 C.ar      1 <0>        -0.1112
     20 C18         0.0924   -2.7766   -0.0145 C.ar      1 <0>        -0.1167
     21 C19         1.2657   -2.0872   -0.0219 C.ar      1 <0>        -0.1027
     22 C20         1.2466   -0.6819   -0.0134 C.ar      1 <0>        -0.0566
     23 C21         2.4375    0.0642   -0.0204 C.ar      1 <0>        -0.0752
     24 C22         6.4628    5.1815   -5.2824 C.2       1 <0>         0.0617
     25 N1          5.6161    6.1740   -5.1339 N.2       1 <0>        -0.4897
     26 C23         4.7892    6.5214   -6.0977 C.2       1 <0>         0.0266
     27 C24         4.8195    5.8185   -7.2585 C.2       1 <0>        -0.2199
     28 S1          6.1082    4.6357   -6.8924 S.3       1 <0>         0.0621
     29 H1          6.8709    2.0638   -4.3643 H         1 <0>         0.0577
     30 H2          6.6404    2.7684   -5.9825 H         1 <0>         0.0500
     31 H3          8.0022    1.6632   -5.6789 H         1 <0>         0.1005
     32 H4          7.9723    6.7457   -3.9532 H         1 <0>         0.0980
     33 H5          9.3635    5.7356   -4.4702 H         1 <0>         0.0977
     34 H6          8.8661    6.3202   -1.8131 H         1 <0>         0.0850
     35 H7          9.6288    4.7875   -2.3314 H         1 <0>         0.0894
     36 H8          5.0663    3.1387   -3.6900 H         1 <0>         0.1224
     37 H9          5.5777    3.4212    0.5416 H         1 <0>         0.1331
     38 H10         7.6485    4.7029    0.2001 H         1 <0>         0.1296
     39 H11         3.5022    3.1653    0.5011 H         1 <0>         0.0737
     40 H12         4.4431    1.6544    0.4837 H         1 <0>         0.0732
     41 H13         1.1389    3.1704    0.0082 H         1 <0>         0.1254
     42 H14        -0.9579    1.9313    0.0171 H         1 <0>         0.1308
     43 H15        -2.1445   -0.2473    0.0202 H         1 <0>         0.1286
     44 H16        -2.0482   -2.6810    0.0055 H         1 <0>         0.1250
     45 H17         0.1099   -3.8564   -0.0207 H         1 <0>         0.1250
     46 H18         2.2067   -2.6171   -0.0336 H         1 <0>         0.1283
     47 H19         3.3931   -0.4388   -0.0325 H         1 <0>         0.1297
     48 H20         4.1002    7.3427   -5.9662 H         1 <0>         0.1710
     49 H21         4.2289    5.9401   -8.1545 H         1 <0>         0.1977
@<TRIPOS>BOND
     1    1    2 1
     2    1   29 1
     3    1   30 1
     4    1   31 1
     5    2    3 1
     6    3    7 1
     7    3    4 1
     8    3   24 1
     9    4    5 1
    10    4   32 1
    11    4   33 1
    12    5    6 1
    13    5   34 1
    14    5   35 1
    15    6   11 ar
    16    6    7 ar
    17    7    8 ar
    18    8    9 ar
    19    8   36 1
    20    9   10 ar
    21    9   12 1
    22   10   11 ar
    23   10   37 1
    24   11   38 1
    25   12   13 1
    26   13   14 1
    27   13   39 1
    28   13   40 1
    29   14   23 ar
    30   14   15 ar
    31   15   16 ar
    32   15   41 1
    33   16   17 ar
    34   16   42 1
    35   17   22 ar
    36   17   18 ar
    37   18   19 ar
    38   18   43 1
    39   19   20 ar
    40   19   44 1
    41   20   21 ar
    42   20   45 1
    43   21   22 ar
    44   21   46 1
    45   22   23 ar
    46   23   47 1
    47   24   28 1
    48   24   25 2
    49   25   26 1
    50   26   27 2
    51   26   48 1
    52   27   28 1
    53   27   49 1
@<TRIPOS>MOLECULE
ZINC03841689
   51    53     0     0     0
SMALL
USER_CHARGES
2-(7-methoxy-5,8-dimethyl-tetralin-2-yl)-N-(2-pyridyl)propanamide
@<TRIPOS>ATOM
      1 C1         -4.7330   12.1764    0.6967 C.3       1 <0>        -0.1190
      2 C2         -3.8118   11.3557   -0.1687 C.ar      1 <0>        -0.0538
      3 C3         -2.9362   11.9883   -1.0255 C.ar      1 <0>        -0.2081
      4 C4         -2.0879   11.2334   -1.8224 C.ar      1 <0>         0.1268
      5 C5         -2.1310    9.8512   -1.7514 C.ar      1 <0>        -0.1220
      6 C6         -3.0155    9.2173   -0.8900 C.ar      1 <0>        -0.0278
      7 C7         -3.8534    9.9691   -0.0961 C.ar      1 <0>        -0.1132
      8 C8         -4.8310    9.3473    0.8668 C.3       1 <0>        -0.0741
      9 C9         -5.0642    7.8779    0.5219 C.3       1 <0>        -0.1180
     10 C10        -3.7005    7.1895    0.3899 C.3       1 <0>        -0.0651
     11 H1         -3.0872    7.4198    1.2610 H         1 <0>         0.0831
     12 C11        -3.0182    7.7110   -0.8731 C.3       1 <0>        -0.0867
     13 C12        -3.8956    5.6758    0.2827 C.3       1 <0>        -0.1046
     14 H2         -4.5015    5.4487   -0.5945 H         1 <0>         0.1010
     15 C13        -4.6035    5.1626    1.5383 C.3       1 <0>        -0.1486
     16 C14        -2.5528    5.0041    0.1532 C.2       1 <0>         0.5063
     17 O1         -1.5395    5.6706    0.1473 O.2       1 <0>        -0.4608
     18 N1         -2.4778    3.6629    0.0441 N.am      1 <0>        -0.6638
     19 C15        -1.2343    3.0330    0.0311 C.ar      1 <0>         0.3591
     20 C16        -1.1656    1.6443    0.0248 C.ar      1 <0>        -0.2099
     21 C17         0.0751    1.0320    0.0119 C.ar      1 <0>        -0.0476
     22 C18         1.2090    1.8331    0.0057 C.ar      1 <0>        -0.2057
     23 C19         1.0665    3.2064    0.0126 C.ar      1 <0>         0.1321
     24 N2         -0.1299    3.7623    0.0299 N.ar      1 <0>        -0.4768
     25 C20        -1.2107    9.0290   -2.6163 C.3       1 <0>        -0.1086
     26 O2         -1.2190   11.8472   -2.6680 O.3       1 <0>        -0.3147
     27 C21        -1.2318   13.2760   -2.6866 C.3       1 <0>         0.0279
     28 H3         -4.2434   12.3917    1.6465 H         1 <0>         0.0716
     29 H4         -4.9701   13.1118    0.1899 H         1 <0>         0.0638
     30 H5         -5.6518   11.6192    0.8797 H         1 <0>         0.0720
     31 H6         -2.9105   13.0668   -1.0758 H         1 <0>         0.1256
     32 H7         -5.7784    9.8836    0.8135 H         1 <0>         0.0761
     33 H8         -4.4340    9.4201    1.8793 H         1 <0>         0.0731
     34 H9         -5.6057    7.8036   -0.4212 H         1 <0>         0.0669
     35 H10        -5.6405    7.4016    1.3151 H         1 <0>         0.0733
     36 H11        -1.9904    7.3492   -0.9019 H         1 <0>         0.1063
     37 H12        -3.5529    7.3428   -1.7486 H         1 <0>         0.0710
     38 H13        -4.7425    4.0842    1.4619 H         1 <0>         0.0596
     39 H14        -3.9977    5.3896    2.4154 H         1 <0>         0.0633
     40 H15        -5.5748    5.6483    1.6319 H         1 <0>         0.0764
     41 H16        -3.2892    3.1359   -0.0255 H         1 <0>         0.4162
     42 H17        -2.0684    1.0517    0.0295 H         1 <0>         0.1349
     43 H18         0.1595   -0.0447    0.0064 H         1 <0>         0.1377
     44 H19         2.1924    1.3866   -0.0040 H         1 <0>         0.1358
     45 H20         1.9457    3.8336    0.0082 H         1 <0>         0.1589
     46 H21        -1.7000    8.8151   -3.5666 H         1 <0>         0.0642
     47 H22        -0.2906    9.5843   -2.7983 H         1 <0>         0.0669
     48 H23        -0.9760    8.0928   -2.1097 H         1 <0>         0.0718
     49 H24        -0.4929   13.6367   -3.4022 H         1 <0>         0.0993
     50 H25        -2.2216   13.6268   -2.9785 H         1 <0>         0.0538
     51 H26        -0.9905   13.6545   -1.6933 H         1 <0>         0.0539
@<TRIPOS>BOND
     1    1    2 1
     2    1   28 1
     3    1   29 1
     4    1   30 1
     5    2    7 ar
     6    2    3 ar
     7    3    4 ar
     8    3   31 1
     9    4    5 ar
    10    4   26 1
    11    5    6 ar
    12    5   25 1
    13    6   12 1
    14    6    7 ar
    15    7    8 1
    16    8    9 1
    17    8   32 1
    18    8   33 1
    19    9   10 1
    20    9   34 1
    21    9   35 1
    22   10   11 1
    23   10   12 1
    24   10   13 1
    25   12   36 1
    26   12   37 1
    27   13   14 1
    28   13   15 1
    29   13   16 1
    30   15   38 1
    31   15   39 1
    32   15   40 1
    33   16   17 2
    34   16   18 am
    35   18   19 1
    36   18   41 1
    37   19   24 ar
    38   19   20 ar
    39   20   21 ar
    40   20   42 1
    41   21   22 ar
    42   21   43 1
    43   22   23 ar
    44   22   44 1
    45   23   24 ar
    46   23   45 1
    47   25   46 1
    48   25   47 1
    49   25   48 1
    50   26   27 1
    51   27   49 1
    52   27   50 1
    53   27   51 1
@<TRIPOS>MOLECULE
ZINC04222622
   54    55     0     0     0
SMALL
USER_CHARGES
2-(7-methoxy-5,8-dimethyl-tetralin-2-yl)-N-tert-butyl-propanamide
@<TRIPOS>ATOM
      1 C1         -0.0127    1.0858    0.0080 C.3       1 <0>        -0.1190
      2 C2         -0.7181    1.5718    1.2479 C.ar      1 <0>        -0.0538
      3 C3         -2.0797    1.7865    1.2191 C.ar      1 <0>        -0.2086
      4 C4         -2.7304    2.2287    2.3616 C.ar      1 <0>         0.1266
      5 C5         -2.0035    2.4634    3.5165 C.ar      1 <0>        -0.1231
      6 C6         -0.6317    2.2539    3.5402 C.ar      1 <0>        -0.0277
      7 C7          0.0106    1.8047    2.4074 C.ar      1 <0>        -0.1134
      8 C8          1.4933    1.5406    2.3677 C.3       1 <0>        -0.0739
      9 C9          2.1942    2.2343    3.5339 C.3       1 <0>        -0.1187
     10 C10         1.4659    1.8577    4.8295 C.3       1 <0>        -0.0634
     11 H1          1.3391    0.7762    4.8790 H         1 <0>         0.0811
     12 C11         0.0977    2.5365    4.8276 C.3       1 <0>        -0.0864
     13 C12         2.2773    2.3371    6.0348 C.3       1 <0>        -0.1079
     14 H2          2.4100    3.4174    5.9770 H         1 <0>         0.0968
     15 C13         3.6465    1.6543    6.0320 C.3       1 <0>        -0.1466
     16 C14         1.5446    1.9881    7.3046 C.2       1 <0>         0.5202
     17 O1          0.4784    1.4126    7.2508 O.2       1 <0>        -0.5272
     18 N1          2.0741    2.3155    8.4999 N.am      1 <0>        -0.7250
     19 C15         1.3618    1.9762    9.7343 C.3       1 <0>         0.1681
     20 C16         1.1757    0.4597    9.8154 C.3       1 <0>        -0.1639
     21 C17         2.1732    2.4556   10.9396 C.3       1 <0>        -0.1566
     22 C18        -0.0074    2.6590    9.7371 C.3       1 <0>        -0.1642
     23 C19        -2.7072    2.9495    4.7573 C.3       1 <0>        -0.1080
     24 O2         -4.0734    2.4362    2.3458 O.3       1 <0>        -0.3150
     25 C20        -4.7562    2.1726    1.1185 C.3       1 <0>         0.0279
     26 H3          0.0021   -0.0041    0.0020 H         1 <0>         0.0715
     27 H4          1.0099    1.4631    0.0003 H         1 <0>         0.0720
     28 H5         -0.5399    1.4469   -0.8751 H         1 <0>         0.0638
     29 H6         -2.6380    1.6070    0.3121 H         1 <0>         0.1254
     30 H7          1.6688    0.4666    2.4304 H         1 <0>         0.0727
     31 H8          1.9002    1.9164    1.4289 H         1 <0>         0.0753
     32 H9          2.1584    3.3146    3.3934 H         1 <0>         0.0658
     33 H10         3.2320    1.9053    3.5872 H         1 <0>         0.0722
     34 H11         0.2303    3.6129    4.9368 H         1 <0>         0.0695
     35 H12        -0.4908    2.1601    5.6643 H         1 <0>         0.1087
     36 H13         3.5139    0.5739    6.0897 H         1 <0>         0.0617
     37 H14         4.1765    1.9067    5.1135 H         1 <0>         0.0727
     38 H15         4.2246    1.9958    6.8906 H         1 <0>         0.0588
     39 H16         2.9269    2.7757    8.5429 H         1 <0>         0.3981
     40 H17         2.1511   -0.0267    9.8133 H         1 <0>         0.0527
     41 H18         0.6457    0.2073   10.7338 H         1 <0>         0.0621
     42 H19         0.5976    0.1182    8.9567 H         1 <0>         0.0788
     43 H20         2.3059    3.5359   10.8818 H         1 <0>         0.0616
     44 H21         1.6433    2.2031   11.8580 H         1 <0>         0.0736
     45 H22         3.1487    1.9691   10.9376 H         1 <0>         0.0615
     46 H23        -0.5855    2.3175    8.8784 H         1 <0>         0.0789
     47 H24        -0.5374    2.4065   10.6555 H         1 <0>         0.0623
     48 H25         0.1252    3.7393    9.6794 H         1 <0>         0.0531
     49 H26        -2.7233    4.0393    4.7625 H         1 <0>         0.0642
     50 H27        -3.7293    2.5710    4.7671 H         1 <0>         0.0665
     51 H28        -2.1780    2.5896    5.6397 H         1 <0>         0.0714
     52 H29        -4.6181    1.1270    0.8431 H         1 <0>         0.0539
     53 H30        -5.8194    2.3782    1.2427 H         1 <0>         0.0993
     54 H31        -4.3519    2.8115    0.3333 H         1 <0>         0.0538
@<TRIPOS>BOND
     1    1    2 1
     2    1   26 1
     3    1   27 1
     4    1   28 1
     5    2    7 ar
     6    2    3 ar
     7    3    4 ar
     8    3   29 1
     9    4    5 ar
    10    4   24 1
    11    5    6 ar
    12    5   23 1
    13    6   12 1
    14    6    7 ar
    15    7    8 1
    16    8    9 1
    17    8   30 1
    18    8   31 1
    19    9   10 1
    20    9   32 1
    21    9   33 1
    22   10   11 1
    23   10   12 1
    24   10   13 1
    25   12   34 1
    26   12   35 1
    27   13   14 1
    28   13   15 1
    29   13   16 1
    30   15   36 1
    31   15   37 1
    32   15   38 1
    33   16   17 2
    34   16   18 am
    35   18   19 1
    36   18   39 1
    37   19   20 1
    38   19   21 1
    39   19   22 1
    40   20   40 1
    41   20   41 1
    42   20   42 1
    43   21   43 1
    44   21   44 1
    45   21   45 1
    46   22   46 1
    47   22   47 1
    48   22   48 1
    49   23   49 1
    50   23   50 1
    51   23   51 1
    52   24   25 1
    53   25   52 1
    54   25   53 1
    55   25   54 1
@<TRIPOS>MOLECULE
ZINC15709135
   60    62     0     0     0
SMALL
USER_CHARGES
(2S)-2-[(2R)-7-(2-dimethylaminoethoxy)-5,8-dimethyl-tetralin-2-yl]-N-thiazol-2-yl-propanamide
@<TRIPOS>ATOM
      1 C1          0.1476    6.4961   -0.4014 C.3       1 <0>        -0.1247
      2 C2         -0.3280    5.5489    0.6699 C.ar      1 <0>        -0.0484
      3 C3         -0.2271    4.1882    0.4721 C.ar      1 <0>        -0.2027
      4 C4         -0.6704    3.3157    1.4554 C.ar      1 <0>         0.1116
      5 C5         -1.2017    3.8205    2.6302 C.ar      1 <0>        -0.1115
      6 C6         -1.2965    5.1908    2.8288 C.ar      1 <0>        -0.0242
      7 C7         -0.8578    6.0552    1.8501 C.ar      1 <0>        -0.0943
      8 C8         -0.9229    7.5525    2.0028 C.3       1 <0>        -0.0811
      9 C9         -1.8955    7.9371    3.1158 C.3       1 <0>        -0.1198
     10 C10        -1.5343    7.1357    4.3720 C.3       1 <0>        -0.0671
     11 H1         -0.4663    7.2258    4.5704 H         1 <0>         0.0874
     12 C11        -1.8902    5.6707    4.1275 C.3       1 <0>        -0.0915
     13 C12        -2.3271    7.6660    5.5683 C.3       1 <0>        -0.0966
     14 H2         -3.3943    7.5828    5.3625 H         1 <0>         0.1103
     15 C13        -1.9669    9.1334    5.8088 C.3       1 <0>        -0.1546
     16 C14        -1.9874    6.8579    6.7941 C.2       1 <0>         0.5190
     17 O1         -1.1897    5.9474    6.7184 O.2       1 <0>        -0.4948
     18 N1         -2.5701    7.1469    7.9745 N.am      1 <0>        -0.6095
     19 C15        -2.2567    6.4015    9.1052 C.2       1 <0>         0.2763
     20 N2         -2.7156    6.5289   10.3349 N.2       1 <0>        -0.5456
     21 C16        -2.3097    5.7295   11.3019 C.2       1 <0>         0.0526
     22 C17        -1.4037    4.7658   11.0058 C.2       1 <0>        -0.2595
     23 S1         -1.1663    5.0589    9.2592 S.3       1 <0>         0.1495
     24 C18        -1.6801    2.8748    3.7015 C.3       1 <0>        -0.1059
     25 O2         -0.5785    1.9727    1.2688 O.3       1 <0>        -0.3268
     26 C19        -0.0196    1.5263    0.0318 C.3       1 <0>         0.0249
     27 C20         0.0018   -0.0033    0.0044 C.3       1 <0>         0.0029
     28 C21        -2.0033   -0.3550   -1.3066 C.3       1 <0>        -0.0472
     29 C22        -1.4168   -1.9140    0.4508 C.3       1 <0>        -0.0428
     30 H3          1.2003    6.7281   -0.2401 H         1 <0>         0.0770
     31 H4          0.0238    6.0305   -1.3792 H         1 <0>         0.0658
     32 H5         -0.4374    7.4149   -0.3599 H         1 <0>         0.0771
     33 H6          0.1915    3.8031   -0.4459 H         1 <0>         0.1250
     34 H7         -1.2571    7.9953    1.0645 H         1 <0>         0.0819
     35 H8          0.0694    7.9325    2.2455 H         1 <0>         0.0800
     36 H9         -2.9149    7.7011    2.8103 H         1 <0>         0.0697
     37 H10        -1.8124    9.0038    3.3243 H         1 <0>         0.0797
     38 H11        -2.9745    5.5662    4.0873 H         1 <0>         0.0763
     39 H12        -1.5009    5.0654    4.9461 H         1 <0>         0.1072
     40 H13        -0.8997    9.2165    6.0146 H         1 <0>         0.0677
     41 H14        -2.2126    9.7178    4.9222 H         1 <0>         0.0824
     42 H15        -2.5318    9.5111    6.6611 H         1 <0>         0.0655
     43 H16        -3.2081    7.8750    8.0351 H         1 <0>         0.4264
     44 H17        -2.6899    5.8404   12.3067 H         1 <0>         0.1734
     45 H18        -0.9531    4.0229   11.6474 H         1 <0>         0.1978
     46 H19        -0.8584    2.6508    4.3818 H         1 <0>         0.0729
     47 H20        -2.4958    3.3376    4.2569 H         1 <0>         0.0702
     48 H21        -2.0321    1.9518    3.2406 H         1 <0>         0.0592
     49 H22         0.9976    1.9057   -0.0652 H         1 <0>         0.1073
     50 H23        -0.6257    1.8961   -0.7952 H         1 <0>         0.0840
     51 H24         0.5096   -0.3435   -0.8982 H         1 <0>         0.1499
     52 H25         0.5317   -0.3751    0.8814 H         1 <0>         0.1411
     53 H26        -1.4302   -0.9093   -2.0499 H         1 <0>         0.1255
     54 H27        -3.0225   -0.7399   -1.2725 H         1 <0>         0.1246
     55 H28        -2.0225    0.7010   -1.5760 H         1 <0>         0.1187
     56 H29        -1.0914   -1.9796    1.4890 H         1 <0>         0.1228
     57 H30        -2.4355   -2.2921    0.3648 H         1 <0>         0.1236
     58 H31        -0.7538   -2.5102   -0.1762 H         1 <0>         0.1241
     59 N3         -1.3911   -0.4969    0.0313 N.4       1 <0>        -0.4006
     60 H32        -1.9295    0.0602    0.7051 H         1 <0>         0.4378
@<TRIPOS>BOND
     1    1    2 1
     2    1   30 1
     3    1   31 1
     4    1   32 1
     5    2    7 ar
     6    2    3 ar
     7    3    4 ar
     8    3   33 1
     9    4    5 ar
    10    4   25 1
    11    5    6 ar
    12    5   24 1
    13    6   12 1
    14    6    7 ar
    15    7    8 1
    16    8    9 1
    17    8   34 1
    18    8   35 1
    19    9   10 1
    20    9   36 1
    21    9   37 1
    22   10   11 1
    23   10   12 1
    24   10   13 1
    25   12   38 1
    26   12   39 1
    27   13   14 1
    28   13   15 1
    29   13   16 1
    30   15   40 1
    31   15   41 1
    32   15   42 1
    33   16   17 2
    34   16   18 am
    35   18   19 1
    36   18   43 1
    37   19   23 1
    38   19   20 2
    39   20   21 1
    40   21   22 2
    41   21   44 1
    42   22   23 1
    43   22   45 1
    44   24   46 1
    45   24   47 1
    46   24   48 1
    47   25   26 1
    48   26   27 1
    49   26   49 1
    50   26   50 1
    51   27   51 1
    52   27   52 1
    53   27   59 1
    54   28   53 1
    55   28   54 1
    56   28   55 1
    57   28   59 1
    58   29   56 1
    59   29   57 1
    60   29   58 1
    61   29   59 1
    62   59   60 1
@<TRIPOS>MOLECULE
ZINC01531865
   44    44     0     0     0
SMALL
USER_CHARGES

@<TRIPOS>ATOM
      1 C1         -0.0187    1.5258    0.0104 C.3       1 <0>        -0.1545
      2 C2          0.0021   -0.0041    0.0020 C.3       1 <0>        -0.1264
      3 C3          0.7421   -0.5109    1.2415 C.3       1 <0>        -0.1208
      4 C4          0.7628   -2.0407    1.2331 C.3       1 <0>        -0.1175
      5 C5          1.5028   -2.5476    2.4727 C.3       1 <0>        -0.1052
      6 C6          1.5232   -4.0544    2.4644 C.2       1 <0>        -0.0517
      7 C7          2.6845   -4.7065    2.5505 C.2       1 <0>        -0.2532
      8 C8          2.7043   -6.1689    2.5425 C.2       1 <0>         0.3824
      9 O1          1.6651   -6.7893    2.4575 O.2       1 <0>        -0.4615
     10 C9          4.0156   -6.9053    2.6398 C.3       1 <0>        -0.1589
     11 C10         3.7573   -8.4130    2.6098 C.3       1 <0>        -0.0732
     12 C11         5.0685   -9.1493    2.7070 C.ar      1 <0>        -0.0507
     13 C12         5.7645   -9.4735    1.5573 C.ar      1 <0>        -0.1379
     14 C13         6.9678  -10.1489    1.6412 C.ar      1 <0>        -0.1027
     15 C14         7.4791  -10.5021    2.8797 C.ar      1 <0>         0.0695
     16 C15         6.7788  -10.1754    4.0370 C.ar      1 <0>         0.1060
     17 C16         5.5756   -9.4942    3.9460 C.ar      1 <0>        -0.1926
     18 O2          7.2765  -10.5199    5.2548 O.3       1 <0>        -0.3078
     19 C17         6.5037  -10.1521    6.3991 C.3       1 <0>         0.0243
     20 O3          8.6624  -11.1669    2.9640 O.3       1 <0>        -0.4867
     21 H1          1.0039    1.9031    0.0027 H         1 <0>         0.0537
     22 H2         -0.5459    1.8868   -0.8726 H         1 <0>         0.0542
     23 H3         -0.5289    1.8773    0.9072 H         1 <0>         0.0538
     24 H4         -1.0205   -0.3814    0.0098 H         1 <0>         0.0615
     25 H5          0.5123   -0.3556   -0.8948 H         1 <0>         0.0613
     26 H6          1.7647   -0.1336    1.2338 H         1 <0>         0.0628
     27 H7          0.2319   -0.1594    2.1383 H         1 <0>         0.0632
     28 H8         -0.2598   -2.4180    1.2409 H         1 <0>         0.0665
     29 H9          1.2730   -2.3923    0.3363 H         1 <0>         0.0652
     30 H10         2.5254   -2.1703    2.4649 H         1 <0>         0.0747
     31 H11         0.9926   -2.1961    3.3695 H         1 <0>         0.0848
     32 H12         0.5982   -4.6066    2.3887 H         1 <0>         0.1248
     33 H13         3.6096   -4.1543    2.6262 H         1 <0>         0.1304
     34 H14         4.6509   -6.6287    1.7983 H         1 <0>         0.1015
     35 H15         4.5127   -6.6403    3.5729 H         1 <0>         0.0991
     36 H16         3.1220   -8.6896    3.4512 H         1 <0>         0.0791
     37 H17         3.2601   -8.6780    1.6766 H         1 <0>         0.0824
     38 H18         5.3671   -9.1987    0.5914 H         1 <0>         0.1295
     39 H19         7.5091  -10.4015    0.7415 H         1 <0>         0.1371
     40 H20         5.0320   -9.2361    4.8428 H         1 <0>         0.1324
     41 H21         7.0125  -10.4856    7.3036 H         1 <0>         0.1024
     42 H22         6.3874   -9.0687    6.4261 H         1 <0>         0.0556
     43 H23         5.5217  -10.6216    6.3406 H         1 <0>         0.0565
     44 H24         9.4346  -10.5886    3.0307 H         1 <0>         0.3866
@<TRIPOS>BOND
     1    1    2 1
     2    1   21 1
     3    1   22 1
     4    1   23 1
     5    2    3 1
     6    2   24 1
     7    2   25 1
     8    3    4 1
     9    3   26 1
    10    3   27 1
    11    4    5 1
    12    4   28 1
    13    4   29 1
    14    5    6 1
    15    5   30 1
    16    5   31 1
    17    6    7 2
    18    6   32 1
    19    7    8 1
    20    7   33 1
    21    8    9 2
    22    8   10 1
    23   10   11 1
    24   10   34 1
    25   10   35 1
    26   11   12 1
    27   11   36 1
    28   11   37 1
    29   12   17 ar
    30   12   13 ar
    31   13   14 ar
    32   13   38 1
    33   14   15 ar
    34   14   39 1
    35   15   16 ar
    36   15   20 1
    37   16   17 ar
    38   16   18 1
    39   17   40 1
    40   18   19 1
    41   19   41 1
    42   19   42 1
    43   19   43 1
    44   20   44 1
@<TRIPOS>MOLECULE
ZINC28765319
   25    26     0     0     0
SMALL
USER_CHARGES
1-(m-tolyl)pyrazolidin-3-one
@<TRIPOS>ATOM
      1 C1         -0.3517    6.5431    0.0413 C.3       1 <0>        -0.1213
      2 C2          0.7752    5.5427    0.0250 C.ar      1 <0>        -0.0328
      3 C3          2.0872    5.9802    0.0143 C.ar      1 <0>        -0.1733
      4 C4          3.1241    5.0658   -0.0010 C.ar      1 <0>        -0.0621
      5 C5          2.8527    3.7115   -0.0058 C.ar      1 <0>        -0.1920
      6 C6          1.5363    3.2686    0.0049 C.ar      1 <0>         0.2378
      7 C7          0.4967    4.1902    0.0146 C.ar      1 <0>        -0.1973
      8 N1          1.2582    1.8998    0.0002 N.pl3     1 <0>        -0.4522
      9 C8          2.2636    0.8284   -0.0151 C.3       1 <0>         0.1194
     10 C9          1.4396   -0.4723   -0.0142 C.3       1 <0>        -0.1652
     11 C10         0.0021   -0.0041    0.0020 C.2       1 <0>         0.5330
     12 O1         -0.9745   -0.7232    0.0075 O.2       1 <0>        -0.5207
     13 N2         -0.0161    1.3363    0.0094 N.am      1 <0>        -0.5296
     14 H1          0.0627    7.5621    0.0478 H         1 <0>         0.0689
     15 H2         -0.9643    6.3906    0.9421 H         1 <0>         0.0717
     16 H3         -0.9759    6.4068   -0.8541 H         1 <0>         0.0717
     17 H4          2.3022    7.0386    0.0176 H         1 <0>         0.1221
     18 H5          4.1475    5.4108   -0.0097 H         1 <0>         0.1271
     19 H6          3.6631    2.9977   -0.0174 H         1 <0>         0.1242
     20 H7         -0.5280    3.8492    0.0184 H         1 <0>         0.1157
     21 H8          2.8840    0.9207   -0.9187 H         1 <0>         0.0844
     22 H9          2.9012    0.9111    0.8774 H         1 <0>         0.0844
     23 H10         1.6728   -1.0547   -0.9177 H         1 <0>         0.1188
     24 H11         1.6900   -1.0644    0.8784 H         1 <0>         0.1188
     25 H12        -0.9043    1.9851    0.0214 H         1 <0>         0.4483
@<TRIPOS>BOND
     1    1    2 1
     2    1   14 1
     3    1   15 1
     4    1   16 1
     5    2    7 ar
     6    2    3 ar
     7    3    4 ar
     8    3   17 1
     9    4    5 ar
    10    4   18 1
    11    5    6 ar
    12    5   19 1
    13    6    7 ar
    14    6    8 1
    15    7   20 1
    16    8   13 1
    17    8    9 1
    18    9   10 1
    19    9   21 1
    20    9   22 1
    21   10   11 1
    22   10   23 1
    23   10   24 1
    24   11   12 2
    25   11   13 am
    26   13   25 1
