@<TRIPOS>MOLECULE
ZINC13650561
   53    54     0     0     0
SMALL
USER_CHARGES

@<TRIPOS>ATOM
      1 C1         -0.0317    1.5381    0.0059 C.3       1 <0>        -0.1464
      2 C2         -0.0027    0.0084    0.0029 C.3       1 <0>        -0.0746
      3 C3         -1.4137   -0.5208    0.0130 C.ar      1 <0>        -0.1374
      4 C4         -2.0052   -0.8523    1.1973 C.ar      1 <0>        -0.0217
      5 C5         -3.3170   -1.3449    1.2130 C.ar      1 <0>        -0.2451
      6 C6         -4.0191   -1.4947    0.0032 C.ar      1 <0>         0.2082
      7 C7         -3.4061   -1.1538   -1.1896 C.ar      1 <0>        -0.2551
      8 C8         -2.1079   -0.6630   -1.1855 C.ar      1 <0>         0.1904
      9 O1         -1.5106   -0.3245   -2.3557 O.3       1 <0>        -0.3011
     10 C9         -2.2783   -0.4947   -3.5489 C.3       1 <0>         0.0535
     11 C10        -1.4447   -0.0641   -4.7574 C.3       1 <0>        -0.1163
     12 C11        -2.2666   -0.2463   -6.0350 C.3       1 <0>        -0.1164
     13 C12        -1.4330    0.1844   -7.2435 C.3       1 <0>        -0.1208
     14 C13        -2.2549    0.0021   -8.5211 C.3       1 <0>        -0.0930
     15 C14        -1.4213    0.4328   -9.7296 C.3       1 <0>         0.0504
     16 C15        -1.0296    1.9043   -9.5807 C.3       1 <0>        -0.1309
     17 C16        -0.1574   -0.4258   -9.8094 C.3       1 <0>        -0.1310
     18 C17        -2.2308    0.2533  -10.9879 C.2       1 <0>         0.0647
     19 N1         -3.4740   -0.1977  -11.0700 N.2       1 <0>        -0.3884
     20 N2         -3.8058   -0.2016  -12.3159 N.2       1 <0>        -0.2040
     21 N3         -2.8148    0.2308  -13.0151 N.2       1 <0>        -0.2032
     22 N4         -1.8385    0.5216  -12.2248 N.2       1 <0>        -0.3885
     23 O2         -5.2889   -1.9708    0.0059 O.3       1 <0>        -0.4808
     24 C18        -3.9538   -1.7024    2.4829 C.2       1 <0>         0.3965
     25 O3         -5.1205   -2.0351    2.5041 O.2       1 <0>        -0.4543
     26 C19        -3.1599   -1.6571    3.7631 C.3       1 <0>        -0.2011
     27 H1          0.9889    1.9208   -0.0014 H         1 <0>         0.0582
     28 H2         -0.5592    1.8932   -0.8794 H         1 <0>         0.0579
     29 H3         -0.5453    1.8900    0.9005 H         1 <0>         0.0525
     30 H4          0.5109   -0.3436   -0.8917 H         1 <0>         0.0784
     31 H5          0.5248   -0.3468    0.8882 H         1 <0>         0.0714
     32 H6         -1.4616   -0.7354    2.1232 H         1 <0>         0.1432
     33 H7         -3.9385   -1.2664   -2.1225 H         1 <0>         0.1430
     34 H8         -2.5573   -1.5431   -3.6550 H         1 <0>         0.0669
     35 H9         -3.1787    0.1169   -3.4920 H         1 <0>         0.0663
     36 H10        -1.1656    0.9843   -4.6514 H         1 <0>         0.0740
     37 H11        -0.5443   -0.6757   -4.8143 H         1 <0>         0.0742
     38 H12        -2.5456   -1.2946   -6.1411 H         1 <0>         0.0650
     39 H13        -3.1670    0.3654   -5.9781 H         1 <0>         0.0647
     40 H14        -1.1539    1.2327   -7.1374 H         1 <0>         0.0642
     41 H15        -0.5326   -0.4273   -7.3004 H         1 <0>         0.0643
     42 H16        -2.5339   -1.0462   -8.6272 H         1 <0>         0.0629
     43 H17        -3.1553    0.6138   -8.4642 H         1 <0>         0.0629
     44 H18        -0.4440    2.0342   -8.6705 H         1 <0>         0.0516
     45 H19        -0.4357    2.2112  -10.4416 H         1 <0>         0.0568
     46 H20        -1.9300    2.5160   -9.5238 H         1 <0>         0.0468
     47 H21        -0.4364   -1.4741   -9.9155 H         1 <0>         0.0469
     48 H22         0.4365   -0.1189  -10.6704 H         1 <0>         0.0568
     49 H23         0.4282   -0.2959   -8.8993 H         1 <0>         0.0516
     50 H24        -5.9660   -1.2848    0.0839 H         1 <0>         0.3991
     51 H25        -2.1677   -1.2536    3.5612 H         1 <0>         0.0814
     52 H26        -3.6710   -1.0204    4.4852 H         1 <0>         0.0915
     53 H27        -3.0669   -2.6645    4.1687 H         1 <0>         0.0939
@<TRIPOS>BOND
     1    1    2 1
     2    1   27 1
     3    1   28 1
     4    1   29 1
     5    2    3 1
     6    2   30 1
     7    2   31 1
     8    3    8 ar
     9    3    4 ar
    10    4    5 ar
    11    4   32 1
    12    5    6 ar
    13    5   24 1
    14    6    7 ar
    15    6   23 1
    16    7    8 ar
    17    7   33 1
    18    8    9 1
    19    9   10 1
    20   10   11 1
    21   10   34 1
    22   10   35 1
    23   11   12 1
    24   11   36 1
    25   11   37 1
    26   12   13 1
    27   12   38 1
    28   12   39 1
    29   13   14 1
    30   13   40 1
    31   13   41 1
    32   14   15 1
    33   14   42 1
    34   14   43 1
    35   15   16 1
    36   15   17 1
    37   15   18 1
    38   16   44 1
    39   16   45 1
    40   16   46 1
    41   17   47 1
    42   17   48 1
    43   17   49 1
    44   18   22 2
    45   18   19 1
    46   19   20 1
    47   20   21 2
    48   21   22 1
    49   23   50 1
    50   24   25 2
    51   24   26 1
    52   26   51 1
    53   26   52 1
    54   26   53 1
@<TRIPOS>MOLECULE
ZINC13650561
   54    55     0     0     0
SMALL
USER_CHARGES

@<TRIPOS>ATOM
      1 C1         -0.0317    1.5381    0.0059 C.3       1 <0>        -0.1463
      2 C2         -0.0027    0.0084    0.0029 C.3       1 <0>        -0.0749
      3 C3         -1.4137   -0.5208    0.0130 C.ar      1 <0>        -0.1355
      4 C4         -2.0052   -0.8523    1.1973 C.ar      1 <0>        -0.0210
      5 C5         -3.3170   -1.3449    1.2130 C.ar      1 <0>        -0.2401
      6 C6         -4.0191   -1.4947    0.0032 C.ar      1 <0>         0.2073
      7 C7         -3.4061   -1.1538   -1.1896 C.ar      1 <0>        -0.2545
      8 C8         -2.1079   -0.6630   -1.1855 C.ar      1 <0>         0.1862
      9 O1         -1.5106   -0.3245   -2.3557 O.3       1 <0>        -0.3020
     10 C9         -2.2783   -0.4947   -3.5489 C.3       1 <0>         0.0533
     11 C10        -1.4447   -0.0641   -4.7574 C.3       1 <0>        -0.1175
     12 C11        -2.2666   -0.2463   -6.0350 C.3       1 <0>        -0.1178
     13 C12        -1.4330    0.1844   -7.2435 C.3       1 <0>        -0.1213
     14 C13        -2.2549    0.0021   -8.5211 C.3       1 <0>        -0.1025
     15 C14        -1.4213    0.4328   -9.7296 C.3       1 <0>         0.0189
     16 C15        -1.0296    1.9043   -9.5807 C.3       1 <0>        -0.1541
     17 C16        -0.1574   -0.4258   -9.8094 C.3       1 <0>        -0.1486
     18 C17        -2.2308    0.2533  -10.9879 C.2       1 <0>         0.2037
     19 N1         -1.9593    0.7735  -12.1993 N.pl3     1 <0>        -0.4054
     20 N2         -2.8930    0.3819  -12.9988 N.2       1 <0>        -0.0874
     21 N3         -3.7224   -0.3508  -12.3412 N.2       1 <0>        -0.0676
     22 N4         -3.3329   -0.4443  -11.1166 N.2       1 <0>        -0.2959
     23 O2         -5.2889   -1.9708    0.0059 O.3       1 <0>        -0.4804
     24 C18        -3.9538   -1.7024    2.4829 C.2       1 <0>         0.3956
     25 O3         -5.1205   -2.0351    2.5041 O.2       1 <0>        -0.4516
     26 C19        -3.1599   -1.6571    3.7631 C.3       1 <0>        -0.2017
     27 H1          0.9889    1.9208   -0.0014 H         1 <0>         0.0587
     28 H2         -0.5592    1.8932   -0.8794 H         1 <0>         0.0562
     29 H3         -0.5453    1.8900    0.9005 H         1 <0>         0.0538
     30 H4          0.5109   -0.3436   -0.8917 H         1 <0>         0.0773
     31 H5          0.5248   -0.3468    0.8882 H         1 <0>         0.0730
     32 H6         -1.4616   -0.7354    2.1232 H         1 <0>         0.1449
     33 H7         -3.9385   -1.2664   -2.1225 H         1 <0>         0.1414
     34 H8         -2.5573   -1.5431   -3.6550 H         1 <0>         0.0668
     35 H9         -3.1787    0.1169   -3.4920 H         1 <0>         0.0658
     36 H10        -1.1656    0.9843   -4.6514 H         1 <0>         0.0752
     37 H11        -0.5443   -0.6757   -4.8143 H         1 <0>         0.0758
     38 H12        -2.5456   -1.2946   -6.1411 H         1 <0>         0.0689
     39 H13        -3.1670    0.3654   -5.9781 H         1 <0>         0.0675
     40 H14        -1.1539    1.2327   -7.1374 H         1 <0>         0.0697
     41 H15        -0.5326   -0.4273   -7.3004 H         1 <0>         0.0711
     42 H16        -2.5339   -1.0462   -8.6272 H         1 <0>         0.0807
     43 H17        -3.1553    0.6138   -8.4642 H         1 <0>         0.0730
     44 H18        -0.4440    2.0342   -8.6705 H         1 <0>         0.0852
     45 H19        -0.4357    2.2112  -10.4416 H         1 <0>         0.0569
     46 H20        -1.9300    2.5160   -9.5238 H         1 <0>         0.0662
     47 H21        -0.4364   -1.4741   -9.9155 H         1 <0>         0.0675
     48 H22         0.4365   -0.1189  -10.6704 H         1 <0>         0.0578
     49 H23         0.4282   -0.2959   -8.8993 H         1 <0>         0.0829
     50 H24        -5.9660   -1.2848    0.0839 H         1 <0>         0.3997
     51 H25        -2.1677   -1.2536    3.5612 H         1 <0>         0.0813
     52 H26        -3.6710   -1.0204    4.4852 H         1 <0>         0.0930
     53 H27        -3.0669   -2.6645    4.1687 H         1 <0>         0.0952
     54 H28        -1.2037    1.3372  -12.4280 H         1 <0>         0.4552
@<TRIPOS>BOND
     1    1    2 1
     2    1   27 1
     3    1   28 1
     4    1   29 1
     5    2    3 1
     6    2   30 1
     7    2   31 1
     8    3    8 ar
     9    3    4 ar
    10    4    5 ar
    11    4   32 1
    12    5    6 ar
    13    5   24 1
    14    6    7 ar
    15    6   23 1
    16    7    8 ar
    17    7   33 1
    18    8    9 1
    19    9   10 1
    20   10   11 1
    21   10   34 1
    22   10   35 1
    23   11   12 1
    24   11   36 1
    25   11   37 1
    26   12   13 1
    27   12   38 1
    28   12   39 1
    29   13   14 1
    30   13   40 1
    31   13   41 1
    32   14   15 1
    33   14   42 1
    34   14   43 1
    35   15   16 1
    36   15   17 1
    37   15   18 1
    38   16   44 1
    39   16   45 1
    40   16   46 1
    41   17   47 1
    42   17   48 1
    43   17   49 1
    44   18   19 1
    45   18   22 2
    46   19   54 1
    47   19   20 1
    48   20   21 2
    49   21   22 1
    50   23   50 1
    51   24   25 2
    52   24   26 1
    53   26   51 1
    54   26   52 1
    55   26   53 1
@<TRIPOS>MOLECULE
ZINC04172316
   69    71     0     0     0
SMALL
USER_CHARGES
6-acetyl-7-[5-(4-acetyl-3-hydroxy-2-propyl-phenoxy)pentoxy]chroman-2-carboxylic acid
@<TRIPOS>ATOM
      1 C1         -6.0853    2.3109    5.6418 C.3       1 <0>        -0.1508
      2 C2         -5.3550    1.8190    4.3906 C.3       1 <0>        -0.1152
      3 C3         -4.9027    3.0207    3.5586 C.3       1 <0>        -0.0631
      4 C4         -4.1833    2.5361    2.3262 C.ar      1 <0>        -0.1616
      5 C5         -4.8931    2.2900    1.1592 C.ar      1 <0>         0.1859
      6 C6         -4.2347    1.8426    0.0168 C.ar      1 <0>        -0.2293
      7 C7         -2.8851    1.6412    0.0317 C.ar      1 <0>        -0.0201
      8 C8         -2.1520    1.8840    1.2010 C.ar      1 <0>        -0.2440
      9 C9         -2.8152    2.3305    2.3586 C.ar      1 <0>         0.2088
     10 O1         -2.1173    2.5630    3.4978 O.3       1 <0>        -0.4726
     11 C10        -0.7032    1.6681    1.2197 C.2       1 <0>         0.3952
     12 O2         -0.0714    1.8792    2.2339 O.2       1 <0>        -0.4511
     13 C11         0.0025    1.1838   -0.0206 C.3       1 <0>        -0.1924
     14 O3         -6.2351    2.4868    1.1313 O.3       1 <0>        -0.3022
     15 C12        -6.9051    2.2152   -0.1013 C.3       1 <0>         0.0548
     16 C13        -8.4011    2.4928    0.0595 C.3       1 <0>        -0.1165
     17 C14        -9.1185    2.2020   -1.2602 C.3       1 <0>        -0.1147
     18 C15       -10.6145    2.4796   -1.0994 C.3       1 <0>        -0.1135
     19 C16       -11.3319    2.1888   -2.4192 C.3       1 <0>         0.0497
     20 O4        -12.7291    2.4481   -2.2690 O.3       1 <0>        -0.2820
     21 C17       -13.5143    2.2387   -3.3546 C.ar      1 <0>         0.2199
     22 C18       -12.9588    1.7995   -4.5419 C.ar      1 <0>        -0.2692
     23 C19       -13.7649    1.5785   -5.6547 C.ar      1 <0>         0.2221
     24 C20       -15.1344    1.8060   -5.5795 C.ar      1 <0>        -0.2121
     25 C21       -15.6957    2.2485   -4.4129 C.ar      1 <0>        -0.0010
     26 C22       -14.8994    2.4722   -3.2833 C.ar      1 <0>        -0.2573
     27 C23       -15.5046    2.9455   -2.0361 C.2       1 <0>         0.3977
     28 O5        -14.8288    3.0442   -1.0331 O.2       1 <0>        -0.4577
     29 C24       -16.9664    3.3098   -1.9986 C.3       1 <0>        -0.1904
     30 C25       -16.0345    1.5689   -6.7667 C.3       1 <0>        -0.0717
     31 C26       -15.1964    1.5124   -8.0460 C.3       1 <0>        -0.1382
     32 C27       -14.0100    0.5706   -7.8036 C.3       1 <0>         0.0450
     33 H1        -14.3740   -0.3999   -7.4663 H         1 <0>         0.0779
     34 O6        -13.1756    1.1471   -6.7984 O.3       1 <0>        -0.2799
     35 C28       -13.2259    0.4032   -9.0796 C.2       1 <0>         0.4762
     36 O7        -12.0961    0.8250   -9.1541 O.co2     1 <0>        -0.6124
     37 H2         -5.4130    2.9311    6.2348 H         1 <0>         0.0533
     38 H3         -6.9557    2.8974    5.3475 H         1 <0>         0.0544
     39 H4         -6.4075    1.4549    6.2346 H         1 <0>         0.0538
     40 H5         -6.0273    1.1989    3.7977 H         1 <0>         0.0611
     41 H6         -4.4846    1.2326    4.6850 H         1 <0>         0.0627
     42 H7         -4.2304    3.6408    4.1515 H         1 <0>         0.0711
     43 H8         -5.7731    3.6071    3.2642 H         1 <0>         0.0767
     44 H9         -4.7956    1.6535   -0.8865 H         1 <0>         0.1384
     45 H10        -2.3816    1.2940   -0.8585 H         1 <0>         0.1397
     46 H11        -1.7865    3.4680    3.5786 H         1 <0>         0.3960
     47 H12         0.0221    0.1840   -0.0240 H         1 <0>         0.0861
     48 H13         1.0228    1.5672   -0.0313 H         1 <0>         0.0871
     49 H14        -0.5287    1.5398   -0.9033 H         1 <0>         0.0846
     50 H15        -6.4989    2.8554   -0.8844 H         1 <0>         0.0681
     51 H16        -6.7567    1.1701   -0.3729 H         1 <0>         0.0681
     52 H17        -8.8073    1.8526    0.8426 H         1 <0>         0.0776
     53 H18        -8.5496    3.5379    0.3311 H         1 <0>         0.0774
     54 H19        -8.7123    2.8422   -2.0433 H         1 <0>         0.0712
     55 H20        -8.9700    1.1569   -1.5319 H         1 <0>         0.0710
     56 H21       -11.0207    1.8394   -0.3163 H         1 <0>         0.0767
     57 H22       -10.7630    3.5247   -0.8278 H         1 <0>         0.0763
     58 H23       -10.9257    2.8290   -3.2023 H         1 <0>         0.0661
     59 H24       -11.1834    1.1437   -2.6908 H         1 <0>         0.0658
     60 H25       -11.8952    1.6229   -4.6048 H         1 <0>         0.1404
     61 H26       -16.7599    2.4260   -4.3629 H         1 <0>         0.1383
     62 H27       -17.3867    3.0928   -2.8797 H         1 <0>         0.0718
     63 H28       -17.4620    2.7432   -1.2103 H         1 <0>         0.0875
     64 H29       -17.0700    4.3765   -1.7994 H         1 <0>         0.0898
     65 H30       -16.5637    0.6248   -6.6377 H         1 <0>         0.0758
     66 H31       -16.7570    2.3816   -6.8420 H         1 <0>         0.0793
     67 H32       -14.8300    2.5097   -8.2896 H         1 <0>         0.0724
     68 H33       -15.8043    1.1335   -8.8677 H         1 <0>         0.0948
     69 O8        -13.7826   -0.2146  -10.1332 O.co2     1 <0>        -0.7477
@<TRIPOS>BOND
     1    1    2 1
     2    1   37 1
     3    1   38 1
     4    1   39 1
     5    2    3 1
     6    2   40 1
     7    2   41 1
     8    3    4 1
     9    3   42 1
    10    3   43 1
    11    4    9 ar
    12    4    5 ar
    13    5    6 ar
    14    5   14 1
    15    6    7 ar
    16    6   44 1
    17    7    8 ar
    18    7   45 1
    19    8    9 ar
    20    8   11 1
    21    9   10 1
    22   10   46 1
    23   11   12 2
    24   11   13 1
    25   13   47 1
    26   13   48 1
    27   13   49 1
    28   14   15 1
    29   15   16 1
    30   15   50 1
    31   15   51 1
    32   16   17 1
    33   16   52 1
    34   16   53 1
    35   17   18 1
    36   17   54 1
    37   17   55 1
    38   18   19 1
    39   18   56 1
    40   18   57 1
    41   19   20 1
    42   19   58 1
    43   19   59 1
    44   20   21 1
    45   21   26 ar
    46   21   22 ar
    47   22   23 ar
    48   22   60 1
    49   23   34 1
    50   23   24 ar
    51   24   25 ar
    52   24   30 1
    53   25   26 ar
    54   25   61 1
    55   26   27 1
    56   27   28 2
    57   27   29 1
    58   29   62 1
    59   29   63 1
    60   29   64 1
    61   30   31 1
    62   30   65 1
    63   30   66 1
    64   31   32 1
    65   31   67 1
    66   31   68 1
    67   32   33 1
    68   32   34 1
    69   32   35 1
    70   35   36 2
    71   35   69 1
@<TRIPOS>MOLECULE
ZINC11676975
   69    71     0     0     0
SMALL
USER_CHARGES
(2R)-6-acetyl-7-[5-(4-acetyl-3-hydroxy-2-propyl-phenoxy)pentoxy]chroman-2-carboxylic acid
@<TRIPOS>ATOM
      1 C1         -9.1090    6.0701  -12.0744 C.3       1 <0>        -0.1520
      2 C2         -9.4546    6.8248  -10.7892 C.3       1 <0>        -0.1148
      3 C3         -8.4939    8.0029  -10.6155 C.3       1 <0>        -0.0689
      4 C4         -8.8343    8.7463   -9.3496 C.ar      1 <0>        -0.1606
      5 C5         -8.2382    8.3841   -8.1498 C.ar      1 <0>         0.1855
      6 C6         -8.5518    9.0634   -6.9755 C.ar      1 <0>        -0.2292
      7 C7         -9.4401   10.0992   -6.9930 C.ar      1 <0>        -0.0192
      8 C8        -10.0519   10.4789   -8.1952 C.ar      1 <0>        -0.2441
      9 C9         -9.7412    9.7910   -9.3823 C.ar      1 <0>         0.2087
     10 O1        -10.3272   10.1492  -10.5516 O.3       1 <0>        -0.4733
     11 C10       -11.0099   11.5871   -8.2157 C.2       1 <0>         0.3944
     12 O2        -11.5375   11.9137   -9.2584 O.2       1 <0>        -0.4502
     13 C11       -11.3400   12.3214   -6.9418 C.3       1 <0>        -0.1920
     14 O3         -7.3498    7.3593   -8.1199 O.3       1 <0>        -0.3023
     15 C12        -6.7727    7.0377   -6.8528 C.3       1 <0>         0.0549
     16 C13        -5.8033    5.8654   -7.0166 C.3       1 <0>        -0.1164
     17 C14        -5.1854    5.5211   -5.6599 C.3       1 <0>        -0.1147
     18 C15        -4.2160    4.3488   -5.8237 C.3       1 <0>        -0.1135
     19 C16        -3.5981    4.0045   -4.4671 C.3       1 <0>         0.0496
     20 O4         -2.6927    2.9096   -4.6201 O.3       1 <0>        -0.2818
     21 C17        -2.0557    2.4768   -3.5039 C.ar      1 <0>         0.2199
     22 C18        -2.2918    3.0871   -2.2862 C.ar      1 <0>        -0.2693
     23 C19        -1.6384    2.6436   -1.1402 C.ar      1 <0>         0.2222
     24 C20        -0.7406    1.5847   -1.2155 C.ar      1 <0>        -0.2121
     25 C21        -0.4992    0.9708   -2.4142 C.ar      1 <0>        -0.0004
     26 C22        -1.1501    1.4032   -3.5758 C.ar      1 <0>        -0.2576
     27 C23        -0.8893    0.7425   -4.8570 C.2       1 <0>         0.3979
     28 O5         -1.4555    1.1211   -5.8612 O.2       1 <0>        -0.4570
     29 C24         0.0822   -0.4074   -4.9279 C.3       1 <0>        -0.1904
     30 C25        -0.0127    1.0858    0.0080 C.3       1 <0>        -0.0717
     31 C26        -0.7273    1.5785    1.2686 C.3       1 <0>        -0.1383
     32 C27        -0.9939    3.0813    1.1152 C.3       1 <0>         0.0450
     33 H1         -0.0603    3.6009    0.8997 H         1 <0>         0.0780
     34 O6         -1.9084    3.2672    0.0344 O.3       1 <0>        -0.2799
     35 C28        -1.5942    3.6228    2.3870 C.2       1 <0>         0.4762
     36 O7         -2.7294    4.0365    2.3908 O.co2     1 <0>        -0.6124
     37 H2         -9.7934    5.2308  -12.1981 H         1 <0>         0.0541
     38 H3         -9.2015    6.7431  -12.9269 H         1 <0>         0.0543
     39 H4         -8.0860    5.6989  -12.0139 H         1 <0>         0.0559
     40 H5         -9.3621    6.1519   -9.9367 H         1 <0>         0.0629
     41 H6        -10.4776    7.1961  -10.8497 H         1 <0>         0.0555
     42 H7         -8.5864    8.6758  -11.4680 H         1 <0>         0.0780
     43 H8         -7.4709    7.6317  -10.5550 H         1 <0>         0.0783
     44 H9         -8.0859    8.7717   -6.0459 H         1 <0>         0.1384
     45 H10        -9.6754   10.6237   -6.0787 H         1 <0>         0.1386
     46 H11       -11.1562    9.6859  -10.7342 H         1 <0>         0.3964
     47 H12       -10.5074   12.7287   -6.5665 H         1 <0>         0.0824
     48 H13       -12.0655   13.1070   -7.1529 H         1 <0>         0.0839
     49 H14       -11.7607   11.6230   -6.2184 H         1 <0>         0.0920
     50 H15        -7.5620    6.7615   -6.1536 H         1 <0>         0.0681
     51 H16        -6.2338    7.9038   -6.4686 H         1 <0>         0.0679
     52 H17        -5.0139    6.1416   -7.7157 H         1 <0>         0.0774
     53 H18        -6.3422    4.9993   -7.4007 H         1 <0>         0.0775
     54 H19        -5.9747    5.2449   -4.9608 H         1 <0>         0.0712
     55 H20        -4.6465    6.3872   -5.2758 H         1 <0>         0.0710
     56 H21        -3.4267    4.6250   -6.5229 H         1 <0>         0.0765
     57 H22        -4.7549    3.4827   -6.2079 H         1 <0>         0.0766
     58 H23        -4.3874    3.7283   -3.7679 H         1 <0>         0.0662
     59 H24        -3.0592    4.8706   -4.0830 H         1 <0>         0.0657
     60 H25        -2.9861    3.9120   -2.2239 H         1 <0>         0.1403
     61 H26         0.1979    0.1474   -2.4646 H         1 <0>         0.1376
     62 H27        -0.4064   -1.2664   -4.7749 H         1 <0>         0.0833
     63 H28         0.5515   -0.4265   -5.9115 H         1 <0>         0.0827
     64 H29         0.8481   -0.2837   -4.1623 H         1 <0>         0.0827
     65 H30         0.0021   -0.0041    0.0020 H         1 <0>         0.0793
     66 H31         1.0101    1.4625    0.0003 H         1 <0>         0.0760
     67 H32        -1.6718    1.0475    1.3868 H         1 <0>         0.0724
     68 H33        -0.0962    1.4051    2.1402 H         1 <0>         0.0947
     69 O8         -0.8678    3.6455    3.5155 O.co2     1 <0>        -0.7477
@<TRIPOS>BOND
     1    1    2 1
     2    1   37 1
     3    1   38 1
     4    1   39 1
     5    2    3 1
     6    2   40 1
     7    2   41 1
     8    3    4 1
     9    3   42 1
    10    3   43 1
    11    4    9 ar
    12    4    5 ar
    13    5    6 ar
    14    5   14 1
    15    6    7 ar
    16    6   44 1
    17    7    8 ar
    18    7   45 1
    19    8    9 ar
    20    8   11 1
    21    9   10 1
    22   10   46 1
    23   11   12 2
    24   11   13 1
    25   13   47 1
    26   13   48 1
    27   13   49 1
    28   14   15 1
    29   15   16 1
    30   15   50 1
    31   15   51 1
    32   16   17 1
    33   16   52 1
    34   16   53 1
    35   17   18 1
    36   17   54 1
    37   17   55 1
    38   18   19 1
    39   18   56 1
    40   18   57 1
    41   19   20 1
    42   19   58 1
    43   19   59 1
    44   20   21 1
    45   21   26 ar
    46   21   22 ar
    47   22   23 ar
    48   22   60 1
    49   23   34 1
    50   23   24 ar
    51   24   25 ar
    52   24   30 1
    53   25   26 ar
    54   25   61 1
    55   26   27 1
    56   27   28 2
    57   27   29 1
    58   29   62 1
    59   29   63 1
    60   29   64 1
    61   30   31 1
    62   30   65 1
    63   30   66 1
    64   31   32 1
    65   31   67 1
    66   31   68 1
    67   32   33 1
    68   32   34 1
    69   32   35 1
    70   35   36 2
    71   35   69 1
@<TRIPOS>MOLECULE
ZINC03930629
   72    75     0     0     0
SMALL
USER_CHARGES
2-[3-[3-[2-ethyl-4-(4-fluorophenyl)-5-hydroxy-phenoxy]propoxy]-2-propyl-phenoxy]benzoic acid
@<TRIPOS>ATOM
      1 C1          1.1558   -4.1854   -1.6940 C.3       1 <0>        -0.1480
      2 C2          1.1565   -2.6573   -1.6191 C.3       1 <0>        -0.1130
      3 C3          1.2105   -2.2185   -0.1544 C.3       1 <0>        -0.0688
      4 C4          1.2111   -0.7133   -0.0806 C.ar      1 <0>        -0.1198
      5 C5          2.4106   -0.0179   -0.0918 C.ar      1 <0>         0.1396
      6 C6          2.4085    1.3680   -0.0243 C.ar      1 <0>        -0.2146
      7 C7          1.2121    2.0554    0.0542 C.ar      1 <0>        -0.0742
      8 C8          0.0156    1.3651    0.0656 C.ar      1 <0>        -0.1593
      9 C9          0.0122   -0.0215   -0.0018 C.ar      1 <0>         0.1333
     10 O1         -1.1650   -0.7000    0.0099 O.3       1 <0>        -0.2122
     11 C10        -1.5936   -1.2111    1.1908 C.ar      1 <0>         0.1521
     12 C11        -0.9049   -0.9316    2.3621 C.ar      1 <0>        -0.2151
     13 C12        -1.3450   -1.4490    3.5639 C.ar      1 <0>        -0.0883
     14 C13        -2.4695   -2.2575    3.6097 C.ar      1 <0>        -0.1721
     15 C14        -3.1629   -2.5500    2.4558 C.ar      1 <0>        -0.0445
     16 C15        -2.7317   -2.0292    1.2326 C.ar      1 <0>        -0.1396
     17 C16        -3.4690   -2.3376   -0.0058 C.2       1 <0>         0.4904
     18 O2         -3.0912   -1.8825   -1.0672 O.co2     1 <0>        -0.6104
     19 O3          3.5874   -0.6933   -0.1685 O.3       1 <0>        -0.3039
     20 C17         4.7842    0.0876   -0.1755 C.3       1 <0>         0.0644
     21 C18         5.9977   -0.8399   -0.2658 C.3       1 <0>        -0.1193
     22 C19         7.2791   -0.0039   -0.2733 C.3       1 <0>         0.0628
     23 O4          8.4125   -0.8701   -0.3576 O.3       1 <0>        -0.3015
     24 C20         9.6377   -0.2829   -0.3750 C.ar      1 <0>         0.1575
     25 C21         9.7431    1.0991   -0.3179 C.ar      1 <0>        -0.2328
     26 C22        10.9903    1.6994   -0.3307 C.ar      1 <0>         0.1568
     27 C23        12.1418    0.9093   -0.4119 C.ar      1 <0>        -0.1137
     28 C24        12.0271   -0.4775   -0.4743 C.ar      1 <0>        -0.0502
     29 C25        10.7804   -1.0677   -0.4557 C.ar      1 <0>        -0.1169
     30 C26        10.6583   -2.5683   -0.5227 C.3       1 <0>        -0.0759
     31 C27        10.4374   -2.9977   -1.9745 C.3       1 <0>        -0.1457
     32 C28        13.4809    1.5463   -0.4312 C.ar      1 <0>        -0.0378
     33 C29        14.4765    1.1071    0.4398 C.ar      1 <0>        -0.0801
     34 C30        15.7224    1.6996    0.4150 C.ar      1 <0>        -0.1498
     35 C31        15.9813    2.7365   -0.4666 C.ar      1 <0>         0.0954
     36 C32        14.9931    3.1798   -1.3306 C.ar      1 <0>        -0.1498
     37 C33        13.7459    2.5898   -1.3165 C.ar      1 <0>        -0.0754
     38 F1         17.2009    3.3174   -0.4835 F         1 <0>        -0.1401
     39 O5         11.0956    3.0524   -0.2701 O.3       1 <0>        -0.4900
     40 H1          1.1173   -4.4980   -2.7375 H         1 <0>         0.0522
     41 H2          2.0643   -4.5722   -1.2322 H         1 <0>         0.0483
     42 H3          0.2855   -4.5747   -1.1657 H         1 <0>         0.0573
     43 H4          0.2480   -2.2705   -2.0810 H         1 <0>         0.0717
     44 H5          2.0268   -2.2679   -2.1474 H         1 <0>         0.0558
     45 H6          2.1189   -2.6052    0.3075 H         1 <0>         0.0720
     46 H7          0.3402   -2.6078    0.3739 H         1 <0>         0.0740
     47 H8          3.3426    1.9100   -0.0333 H         1 <0>         0.1272
     48 H9          1.2127    3.1341    0.1063 H         1 <0>         0.1295
     49 H10        -0.9182    1.9047    0.1225 H         1 <0>         0.1330
     50 H11        -0.0253   -0.3056    2.3343 H         1 <0>         0.1196
     51 H12        -0.8074   -1.2253    4.4736 H         1 <0>         0.1163
     52 H13        -2.8036   -2.6605    4.5543 H         1 <0>         0.1182
     53 H14        -4.0384   -3.1812    2.4963 H         1 <0>         0.1375
     54 H15         4.7751    0.7587   -1.0344 H         1 <0>         0.0650
     55 H16         4.8416    0.6727    0.7423 H         1 <0>         0.0647
     56 H17         6.0068   -1.5110    0.5931 H         1 <0>         0.0880
     57 H18         5.9403   -1.4251   -1.1836 H         1 <0>         0.0884
     58 H19         7.2700    0.6672   -1.1321 H         1 <0>         0.0674
     59 H20         7.3365    0.5813    0.6445 H         1 <0>         0.0679
     60 H21         8.8521    1.7067   -0.2593 H         1 <0>         0.1381
     61 H22        12.9140   -1.0906   -0.5367 H         1 <0>         0.1361
     62 H23        11.5729   -3.0245   -0.1440 H         1 <0>         0.0710
     63 H24         9.8126   -2.8915    0.0844 H         1 <0>         0.0783
     64 H25        10.3491   -4.0830   -2.0230 H         1 <0>         0.0585
     65 H26         9.5228   -2.5414   -2.3533 H         1 <0>         0.0577
     66 H27        11.2831   -2.6745   -2.5816 H         1 <0>         0.0525
     67 H28        14.2742    0.3019    1.1305 H         1 <0>         0.1345
     68 H29        16.4957    1.3572    1.0867 H         1 <0>         0.1372
     69 H30        15.1992    3.9887   -2.0159 H         1 <0>         0.1368
     70 H31        12.9761    2.9363   -1.9901 H         1 <0>         0.1278
     71 H32        11.0927    3.4863   -1.1343 H         1 <0>         0.3901
     72 O6         -4.5622   -3.1242    0.0390 O.co2     1 <0>        -0.7614
@<TRIPOS>BOND
     1    1    2 1
     2    1   40 1
     3    1   41 1
     4    1   42 1
     5    2    3 1
     6    2   43 1
     7    2   44 1
     8    3    4 1
     9    3   45 1
    10    3   46 1
    11    4    9 ar
    12    4    5 ar
    13    5    6 ar
    14    5   19 1
    15    6    7 ar
    16    6   47 1
    17    7    8 ar
    18    7   48 1
    19    8    9 ar
    20    8   49 1
    21    9   10 1
    22   10   11 1
    23   11   16 ar
    24   11   12 ar
    25   12   13 ar
    26   12   50 1
    27   13   14 ar
    28   13   51 1
    29   14   15 ar
    30   14   52 1
    31   15   16 ar
    32   15   53 1
    33   16   17 1
    34   17   18 2
    35   17   72 1
    36   19   20 1
    37   20   21 1
    38   20   54 1
    39   20   55 1
    40   21   22 1
    41   21   56 1
    42   21   57 1
    43   22   23 1
    44   22   58 1
    45   22   59 1
    46   23   24 1
    47   24   29 ar
    48   24   25 ar
    49   25   26 ar
    50   25   60 1
    51   26   27 ar
    52   26   39 1
    53   27   28 ar
    54   27   32 1
    55   28   29 ar
    56   28   61 1
    57   29   30 1
    58   30   31 1
    59   30   62 1
    60   30   63 1
    61   31   64 1
    62   31   65 1
    63   31   66 1
    64   32   37 ar
    65   32   33 ar
    66   33   34 ar
    67   33   67 1
    68   34   35 ar
    69   34   68 1
    70   35   36 ar
    71   35   38 1
    72   36   37 ar
    73   36   69 1
    74   37   70 1
    75   39   71 1
@<TRIPOS>MOLECULE
ZINC03780900
   65    67     0     0     0
SMALL
USER_CHARGES
3-[3-(2-carboxyethyl)-4-[6-(4-methoxyphenyl)hex-5-enoxy]benzoyl]benzoic acid
@<TRIPOS>ATOM
      1 C1         -3.7001    7.3920    6.2864 C.3       1 <0>         0.0269
      2 O1         -3.4987    5.9883    6.4625 O.3       1 <0>        -0.3192
      3 C2         -2.8809    5.3223    5.4523 C.ar      1 <0>         0.1208
      4 C3         -2.6545    3.9565    5.5599 C.ar      1 <0>        -0.1498
      5 C4         -2.0279    3.2771    4.5370 C.ar      1 <0>        -0.0716
      6 C5         -1.6205    3.9641    3.3922 C.ar      1 <0>        -0.0851
      7 C6         -1.8443    5.3380    3.2905 C.ar      1 <0>        -0.0770
      8 C7         -2.4770    6.0092    4.3151 C.ar      1 <0>        -0.2051
      9 C8         -0.9486    3.2396    2.2934 C.2       1 <0>        -0.1251
     10 C9         -0.5622    3.8939    1.2068 C.2       1 <0>        -0.1380
     11 C10         0.1230    3.1551    0.0862 C.3       1 <0>        -0.0928
     12 C11        -0.6327    3.3978   -1.2218 C.3       1 <0>        -0.1095
     13 C12         0.0630    2.6477   -2.3595 C.3       1 <0>        -0.1224
     14 C13        -0.6927    2.8905   -3.6675 C.3       1 <0>         0.0575
     15 O2         -0.0429    2.1899   -4.7301 O.3       1 <0>        -0.2997
     16 C14        -0.5905    2.3009   -5.9666 C.ar      1 <0>         0.1543
     17 C15        -1.7335    3.0711   -6.1521 C.ar      1 <0>        -0.2197
     18 C16        -2.2923    3.1864   -7.4045 C.ar      1 <0>        -0.0548
     19 C17        -1.7089    2.5275   -8.4917 C.ar      1 <0>        -0.1866
     20 C18        -0.5597    1.7541   -8.3007 C.ar      1 <0>        -0.0290
     21 C19        -0.0041    1.6489   -7.0454 C.ar      1 <0>        -0.1077
     22 C20         1.2382    0.8210   -6.8394 C.3       1 <0>        -0.0527
     23 C21         0.8438   -0.5874   -6.3903 C.3       1 <0>        -0.1473
     24 C22         2.0861   -1.4152   -6.1843 C.2       1 <0>         0.4624
     25 O3          3.1752   -0.9286   -6.3769 O.co2     1 <0>        -0.6426
     26 C23        -2.3039    2.6485   -9.8358 C.2       1 <0>         0.4439
     27 O4         -1.5887    2.6525  -10.8191 O.2       1 <0>        -0.4537
     28 C24        -3.7694    2.7649   -9.9874 C.ar      1 <0>        -0.1809
     29 C25        -4.6041    2.5969   -8.8787 C.ar      1 <0>        -0.0851
     30 C26        -5.9727    2.7100   -9.0178 C.ar      1 <0>        -0.1535
     31 C27        -6.5279    2.9793  -10.2534 C.ar      1 <0>        -0.0480
     32 C28        -5.7059    3.1444  -11.3713 C.ar      1 <0>        -0.1302
     33 C29        -4.3229    3.0368  -11.2373 C.ar      1 <0>        -0.0250
     34 C30        -6.3017    3.4319  -12.6924 C.2       1 <0>         0.4916
     35 O5         -5.5859    3.5748  -13.6633 O.co2     1 <0>        -0.6274
     36 H1         -4.2020    7.8000    7.1638 H         1 <0>         0.0991
     37 H2         -2.7360    7.8841    6.1577 H         1 <0>         0.0552
     38 H3         -4.3158    7.5628    5.4034 H         1 <0>         0.0559
     39 H4         -2.9701    3.4257    6.4459 H         1 <0>         0.1307
     40 H5         -1.8522    2.2149    4.6214 H         1 <0>         0.1322
     41 H6         -1.5264    5.8738    2.4083 H         1 <0>         0.1281
     42 H7         -2.6545    7.0715    4.2352 H         1 <0>         0.1279
     43 H8         -0.7721    2.1773    2.3755 H         1 <0>         0.1197
     44 H9         -0.7386    4.9562    1.1247 H         1 <0>         0.1114
     45 H10         0.1331    2.0878    0.3073 H         1 <0>         0.0722
     46 H11         1.1470    3.5151   -0.0136 H         1 <0>         0.0775
     47 H12        -1.6567    3.0378   -1.1220 H         1 <0>         0.0666
     48 H13        -0.6427    4.4651   -1.4430 H         1 <0>         0.0651
     49 H14         1.0870    3.0078   -2.4593 H         1 <0>         0.0758
     50 H15         0.0731    1.5805   -2.1384 H         1 <0>         0.0782
     51 H16        -1.7167    2.5304   -3.5677 H         1 <0>         0.0615
     52 H17        -0.7027    3.9577   -3.8887 H         1 <0>         0.0599
     53 H18        -2.1831    3.5798   -5.3121 H         1 <0>         0.1295
     54 H19        -3.1797    3.7851   -7.5478 H         1 <0>         0.1364
     55 H20        -0.1060    1.2437   -9.1374 H         1 <0>         0.1369
     56 H21         1.7945    0.7617   -7.7749 H         1 <0>         0.0708
     57 H22         1.8614    1.2850   -6.0749 H         1 <0>         0.0755
     58 H23         0.2875   -0.5280   -5.4548 H         1 <0>         0.0643
     59 H24         0.2207   -1.0514   -7.1548 H         1 <0>         0.0622
     60 H25        -4.1768    2.3821   -7.9103 H         1 <0>         0.1329
     61 H26        -6.6127    2.5830   -8.1572 H         1 <0>         0.1223
     62 H27        -7.5998    3.0621  -10.3559 H         1 <0>         0.1334
     63 H28        -3.6830    3.1639  -12.0980 H         1 <0>         0.1377
     64 O6          1.9828   -2.6931   -5.7868 O.co2     1 <0>        -0.7803
     65 O7         -7.6387    3.5356  -12.8201 O.co2     1 <0>        -0.7572
@<TRIPOS>BOND
     1    1    2 1
     2    1   36 1
     3    1   37 1
     4    1   38 1
     5    2    3 1
     6    3    8 ar
     7    3    4 ar
     8    4    5 ar
     9    4   39 1
    10    5    6 ar
    11    5   40 1
    12    6    7 ar
    13    6    9 1
    14    7    8 ar
    15    7   41 1
    16    8   42 1
    17    9   10 2
    18    9   43 1
    19   10   11 1
    20   10   44 1
    21   11   12 1
    22   11   45 1
    23   11   46 1
    24   12   13 1
    25   12   47 1
    26   12   48 1
    27   13   14 1
    28   13   49 1
    29   13   50 1
    30   14   15 1
    31   14   51 1
    32   14   52 1
    33   15   16 1
    34   16   21 ar
    35   16   17 ar
    36   17   18 ar
    37   17   53 1
    38   18   19 ar
    39   18   54 1
    40   19   20 ar
    41   19   26 1
    42   20   21 ar
    43   20   55 1
    44   21   22 1
    45   22   23 1
    46   22   56 1
    47   22   57 1
    48   23   24 1
    49   23   58 1
    50   23   59 1
    51   24   25 2
    52   24   64 1
    53   26   27 2
    54   26   28 1
    55   28   33 ar
    56   28   29 ar
    57   29   30 ar
    58   29   60 1
    59   30   31 ar
    60   30   61 1
    61   31   32 ar
    62   31   62 1
    63   32   33 ar
    64   32   34 1
    65   33   63 1
    66   34   35 2
    67   34   65 1
@<TRIPOS>MOLECULE
ZINC04623738
   55    54     0     0     0
SMALL
USER_CHARGES

@<TRIPOS>ATOM
      1 C1         -0.1387    1.7198   -0.3940 C.3       1 <0>        -0.1546
      2 C2         -0.0915    0.1908   -0.4203 C.3       1 <0>        -0.1246
      3 C3         -1.4944   -0.3672   -0.1730 C.3       1 <0>        -0.1231
      4 C4         -1.4472   -1.8963   -0.1994 C.3       1 <0>        -0.1124
      5 C5         -2.8501   -2.4542    0.0480 C.3       1 <0>        -0.1047
      6 C6         -2.8036   -3.9603    0.0220 C.2       1 <0>        -0.1581
      7 C7         -3.3042   -4.6484    1.0180 C.2       1 <0>        -0.1547
      8 C8         -4.0752   -3.9467    2.1063 C.3       1 <0>        -0.1286
      9 C9         -5.4455   -4.6077    2.2679 C.3       1 <0>         0.1438
     10 H1         -5.9602   -4.6166    1.3071 H         1 <0>         0.1027
     11 C10        -6.2627   -3.8317    3.2684 C.2       1 <0>        -0.1946
     12 C11        -7.4236   -3.2883    2.9026 C.2       1 <0>        -0.0985
     13 C12        -8.2178   -2.5340    3.8751 C.2       1 <0>        -0.1327
     14 C13        -9.3927   -1.9841    3.5049 C.2       1 <0>        -0.1072
     15 C14       -10.1870   -1.2298    4.4773 C.2       1 <0>        -0.1310
     16 C15       -11.3013   -0.6095    4.0899 C.2       1 <0>        -0.1590
     17 C16       -11.8249   -0.8051    2.6903 C.3       1 <0>         0.1242
     18 H2        -11.2169   -1.5491    2.1756 H         1 <0>         0.1071
     19 C17       -11.7585    0.5216    1.9310 C.3       1 <0>        -0.1491
     20 C18       -12.1720    0.2971    0.4751 C.3       1 <0>        -0.0894
     21 C19       -12.1057    1.6237   -0.2842 C.3       1 <0>        -0.1838
     22 C20       -12.5129    1.4026   -1.7182 C.2       1 <0>         0.4876
     23 O1        -12.8271    0.2874   -2.0977 O.co2     1 <0>        -0.6976
     24 O2        -12.5282    2.3390   -2.4989 O.co2     1 <0>        -0.7098
     25 O3        -13.1803   -1.2541    2.7472 O.3       1 <0>        -0.5513
     26 O4         -5.2758   -5.9493    2.7297 O.3       1 <0>        -0.5556
     27 H3          0.8608    2.1173   -0.5702 H         1 <0>         0.0522
     28 H4         -0.8138    2.0759   -1.1722 H         1 <0>         0.0548
     29 H5         -0.4969    2.0555    0.5793 H         1 <0>         0.0534
     30 H6          0.2667   -0.1449   -1.3935 H         1 <0>         0.0600
     31 H7          0.5836   -0.1654    0.3579 H         1 <0>         0.0590
     32 H8         -1.8526   -0.0315    0.8002 H         1 <0>         0.0613
     33 H9         -2.1695   -0.0111   -0.9512 H         1 <0>         0.0634
     34 H10        -1.0890   -2.2320   -1.1726 H         1 <0>         0.0612
     35 H11        -0.7721   -2.2524    0.5788 H         1 <0>         0.0601
     36 H12        -3.2083   -2.1186    1.0212 H         1 <0>         0.0752
     37 H13        -3.5252   -2.0981   -0.7302 H         1 <0>         0.0713
     38 H14        -2.3574   -4.4724   -0.8177 H         1 <0>         0.1086
     39 H15        -3.1644   -5.7185    1.0592 H         1 <0>         0.1123
     40 H16        -3.5249   -4.0170    3.0446 H         1 <0>         0.0721
     41 H17        -4.2068   -2.8980    1.8400 H         1 <0>         0.0882
     42 H18        -5.9078   -3.7159    4.2818 H         1 <0>         0.1130
     43 H19        -7.7785   -3.4041    1.8892 H         1 <0>         0.1172
     44 H20        -7.8629   -2.4182    4.8885 H         1 <0>         0.1140
     45 H21        -9.7476   -2.0999    2.4914 H         1 <0>         0.1237
     46 H22        -9.8697   -1.1762    5.5083 H         1 <0>         0.1152
     47 H23       -11.8290    0.0332    4.7789 H         1 <0>         0.1165
     48 H24       -12.4352    1.2396    2.3943 H         1 <0>         0.0611
     49 H25       -10.7401    0.9085    1.9639 H         1 <0>         0.0662
     50 H26       -11.4953   -0.4210    0.0118 H         1 <0>         0.0576
     51 H27       -13.1905   -0.0899    0.4422 H         1 <0>         0.0661
     52 H28       -12.7823    2.3418    0.1791 H         1 <0>         0.0538
     53 H29       -11.0872    2.0107   -0.2513 H         1 <0>         0.0534
     54 H30       -13.7930   -0.6084    3.1249 H         1 <0>         0.3717
     55 H31        -4.8237   -6.0178    3.5817 H         1 <0>         0.3725
@<TRIPOS>BOND
     1    1    2 1
     2    1   27 1
     3    1   28 1
     4    1   29 1
     5    2    3 1
     6    2   30 1
     7    2   31 1
     8    3    4 1
     9    3   32 1
    10    3   33 1
    11    4    5 1
    12    4   34 1
    13    4   35 1
    14    5    6 1
    15    5   36 1
    16    5   37 1
    17    6    7 2
    18    6   38 1
    19    7    8 1
    20    7   39 1
    21    8    9 1
    22    8   40 1
    23    8   41 1
    24    9   10 1
    25    9   11 1
    26    9   26 1
    27   11   12 2
    28   11   42 1
    29   12   13 1
    30   12   43 1
    31   13   14 2
    32   13   44 1
    33   14   15 1
    34   14   45 1
    35   15   16 2
    36   15   46 1
    37   16   17 1
    38   16   47 1
    39   17   18 1
    40   17   19 1
    41   17   25 1
    42   19   20 1
    43   19   48 1
    44   19   49 1
    45   20   21 1
    46   20   50 1
    47   20   51 1
    48   21   22 1
    49   21   52 1
    50   21   53 1
    51   22   23 2
    52   22   24 1
    53   25   54 1
    54   26   55 1
