@<TRIPOS>MOLECULE
ZINC03872446
   28    31     0     0     0
SMALL
USER_CHARGES

@<TRIPOS>ATOM
      1 C1         -0.0167    1.3830    0.0096 C.ar      1 <0>        -0.0604
      2 C2          1.1863    2.0770    0.0019 C.ar      1 <0>        -0.1234
      3 C3          2.3926    1.3452   -0.0012 C.ar      1 <0>        -0.0764
      4 C4          3.6485    2.1050    0.0027 C.ar      1 <0>        -0.0764
      5 C5          4.8466    1.3869   -0.1987 C.ar      1 <0>        -0.1232
      6 C6          6.0497    2.0805   -0.1986 C.ar      1 <0>        -0.0590
      7 C7          6.0379    3.4562   -0.0202 C.ar      1 <0>         0.1179
      8 C8          4.8480    4.1611    0.1666 C.ar      1 <0>         0.1231
      9 C9          3.6323    3.4858    0.1873 C.ar      1 <0>         0.1200
     10 O1          2.4525    4.1170    0.4119 O.3       1 <0>        -0.2602
     11 C10         1.3009    3.5438   -0.0161 C.2       1 <0>         0.5371
     12 O2          0.3774    4.2309   -0.4091 O.2       1 <0>        -0.4121
     13 O3          4.8772    5.5099    0.3289 O.3       1 <0>        -0.4645
     14 O4          7.2160    4.1351   -0.0270 O.3       1 <0>        -0.4711
     15 C11         4.7207   -0.0622   -0.4200 C.2       1 <0>         0.5387
     16 O5          5.6013   -0.6796   -0.9881 O.2       1 <0>        -0.4109
     17 O6          3.6072   -0.6979    0.0201 O.3       1 <0>        -0.2624
     18 C12         2.4165   -0.0480   -0.0047 C.ar      1 <0>         0.1193
     19 C13         1.1993   -0.7211   -0.0097 C.ar      1 <0>         0.1247
     20 C14         0.0021   -0.0041    0.0020 C.ar      1 <0>         0.1186
     21 O7         -1.1763   -0.6825    0.0061 O.3       1 <0>        -0.4765
     22 O8          1.1759   -2.0796   -0.0262 O.3       1 <0>        -0.4696
     23 H1         -0.9555    1.9167    0.0260 H         1 <0>         0.1661
     24 H2          6.9834    1.5552   -0.3355 H         1 <0>         0.1663
     25 H3          4.8118    6.0071   -0.4979 H         1 <0>         0.4009
     26 H4          7.4868    4.4442   -0.9023 H         1 <0>         0.4006
     27 H5         -1.5229   -0.8740   -0.8761 H         1 <0>         0.4061
     28 H6          1.1714   -2.4835    0.8524 H         1 <0>         0.4066
@<TRIPOS>BOND
     1    1   20 ar
     2    1    2 ar
     3    1   23 1
     4    2   11 1
     5    2    3 ar
     6    3   18 ar
     7    3    4 1
     8    4    9 ar
     9    4    5 ar
    10    5    6 ar
    11    5   15 1
    12    6    7 ar
    13    6   24 1
    14    7    8 ar
    15    7   14 1
    16    8    9 ar
    17    8   13 1
    18    9   10 1
    19   10   11 1
    20   11   12 2
    21   13   25 1
    22   14   26 1
    23   15   16 2
    24   15   17 1
    25   17   18 1
    26   18   19 ar
    27   19   20 ar
    28   19   22 1
    29   20   21 1
    30   21   27 1
    31   22   28 1
