@<TRIPOS>MOLECULE
ZINC04207360
   29    31     0     0     0
SMALL
USER_CHARGES
2-[[8-(4-bromophenyl)-7-thia-2,4-diazabicyclo[4.3.0]nona-1,3,5,8-tetraen-5-yl]sulfanyl]acetic acid
@<TRIPOS>ATOM
      1 C1         -0.9176   -2.3193   -0.0083 C.ar      1 <0>        -0.0868
      2 C2         -1.9881   -3.1892    0.0023 C.ar      1 <0>        -0.0870
      3 C3         -3.2825   -2.6983    0.0173 C.ar      1 <0>        -0.0837
      4 C4         -3.5107   -1.3328    0.0277 C.ar      1 <0>        -0.0850
      5 C5         -2.4483   -0.4530    0.0226 C.ar      1 <0>        -0.0921
      6 C6         -1.1413   -0.9419    0.0075 C.ar      1 <0>         0.0054
      7 C7          0.0021   -0.0041    0.0020 C.2       1 <0>        -0.0688
      8 C8          1.3321   -0.2882   -0.0122 C.2       1 <0>        -0.1354
      9 C9          2.2698    0.7547   -0.0155 C.ar      1 <0>         0.1738
     10 C10         1.7284    2.0594   -0.0034 C.ar      1 <0>        -0.2337
     11 S1         -0.0221    1.7809    0.0118 S.3       1 <0>         0.1345
     12 C11         2.5493    3.1744   -0.0057 C.ar      1 <0>         0.2046
     13 N1          3.8705    2.9872   -0.0197 N.ar      1 <0>        -0.5127
     14 C12         4.3648    1.7620   -0.0309 C.ar      1 <0>         0.3154
     15 N2          3.6254    0.6834   -0.0293 N.ar      1 <0>        -0.5161
     16 S2          1.8670    4.7988    0.0095 S.3       1 <0>         0.0368
     17 C13         3.3886    5.7790   -0.0004 C.3       1 <0>        -0.1447
     18 C14         3.0416    7.2454    0.0107 C.2       1 <0>         0.4783
     19 O1          1.8843    7.5923    0.0239 O.co2     1 <0>        -0.6198
     20 Br1        -4.7445   -3.8975    0.0244 Br        1 <0>        -0.0469
     21 H1          0.0917   -2.7034   -0.0249 H         1 <0>         0.1398
     22 H2         -1.8162   -4.2554   -0.0054 H         1 <0>         0.1396
     23 H3         -4.5227   -0.9556    0.0394 H         1 <0>         0.1406
     24 H4         -2.6275    0.6120    0.0300 H         1 <0>         0.1388
     25 H5          1.6657   -1.3154   -0.0205 H         1 <0>         0.1494
     26 H6          5.4384    1.6449   -0.0425 H         1 <0>         0.1990
     27 H7          3.9811    5.5391    0.8826 H         1 <0>         0.1011
     28 H8          3.9635    5.5484   -0.8973 H         1 <0>         0.1011
     29 O2          4.0182    8.1663    0.0059 O.co2     1 <0>        -0.7456
@<TRIPOS>BOND
     1    1    6 ar
     2    1    2 ar
     3    1   21 1
     4    2    3 ar
     5    2   22 1
     6    3    4 ar
     7    3   20 1
     8    4    5 ar
     9    4   23 1
    10    5    6 ar
    11    5   24 1
    12    6    7 1
    13    7   11 1
    14    7    8 2
    15    8    9 1
    16    8   25 1
    17    9   15 ar
    18    9   10 ar
    19   10   11 1
    20   10   12 ar
    21   12   13 ar
    22   12   16 1
    23   13   14 ar
    24   14   15 ar
    25   14   26 1
    26   16   17 1
    27   17   18 1
    28   17   27 1
    29   17   28 1
    30   18   19 2
    31   18   29 1
@<TRIPOS>MOLECULE
ZINC00457646
   43    46     0     0     0
SMALL
USER_CHARGES
(3-benzyl-4-methyl-2-oxo-chromen-7-yl) cyclopropanecarboxylate
@<TRIPOS>ATOM
      1 C1         -1.4500    3.6139   -0.1473 C.3       1 <0>        -0.1327
      2 C2         -1.3173    2.1166   -0.0390 C.2       1 <0>         0.0292
      3 C3         -0.0012    1.4743   -0.0646 C.ar      1 <0>        -0.1443
      4 C4          1.1687    2.2330   -0.1848 C.ar      1 <0>        -0.0397
      5 C5          2.3826    1.6095   -0.2012 C.ar      1 <0>        -0.1439
      6 C6          2.4651    0.2223   -0.0981 C.ar      1 <0>         0.1408
      7 C7          1.3177   -0.5440    0.0219 C.ar      1 <0>        -0.1332
      8 C8          0.0757    0.0732    0.0398 C.ar      1 <0>         0.1619
      9 O1         -1.0553   -0.6552    0.1565 O.3       1 <0>        -0.2671
     10 C9         -2.2646   -0.0733    0.1759 C.2       1 <0>         0.5172
     11 O2         -3.2571   -0.7709    0.2829 O.2       1 <0>        -0.4524
     12 C10        -2.4153    1.3255    0.0761 C.2       1 <0>        -0.2098
     13 C11        -3.7906    1.9410    0.1027 C.3       1 <0>        -0.0246
     14 C12        -4.3619    1.9547   -1.2918 C.ar      1 <0>        -0.0828
     15 C13        -4.2308    3.0818   -2.0813 C.ar      1 <0>        -0.1173
     16 C14        -4.7506    3.0927   -3.3622 C.ar      1 <0>        -0.1213
     17 C15        -5.4102    1.9800   -3.8499 C.ar      1 <0>        -0.1207
     18 C16        -5.5463    0.8550   -3.0582 C.ar      1 <0>        -0.1188
     19 C17        -5.0219    0.8423   -1.7793 C.ar      1 <0>        -0.1074
     20 O3          3.6805   -0.3832   -0.1159 O.3       1 <0>        -0.2856
     21 C18         4.4749   -0.1874    0.9490 C.2       1 <0>         0.4923
     22 O4          4.0587    0.4140    1.9107 O.2       1 <0>        -0.4816
     23 C19         5.8854   -0.7179    0.9445 C.3       1 <0>        -0.1734
     24 C20         6.2097   -1.8704    1.8971 C.3       1 <0>        -0.1456
     25 C21         6.7395   -0.4641    2.1883 C.3       1 <0>        -0.1424
     26 H1         -1.6437    3.8874   -1.1844 H         1 <0>         0.0940
     27 H2         -2.2766    3.9515    0.4780 H         1 <0>         0.0898
     28 H3         -0.5258    4.0856    0.1864 H         1 <0>         0.0814
     29 H4          1.1110    3.3084   -0.2651 H         1 <0>         0.1501
     30 H5          3.2853    2.1951   -0.2946 H         1 <0>         0.1411
     31 H6          1.3899   -1.6186    0.1017 H         1 <0>         0.1548
     32 H7         -4.4383    1.3552    0.7549 H         1 <0>         0.0940
     33 H8         -3.7244    2.9621    0.4783 H         1 <0>         0.0926
     34 H9         -3.7190    3.9526   -1.6989 H         1 <0>         0.1212
     35 H10        -4.6447    3.9718   -3.9805 H         1 <0>         0.1221
     36 H11        -5.8196    1.9898   -4.8492 H         1 <0>         0.1214
     37 H12        -6.0619   -0.0142   -3.4391 H         1 <0>         0.1225
     38 H13        -5.1282   -0.0367   -1.1608 H         1 <0>         0.1294
     39 H14         6.3886   -0.7073   -0.0223 H         1 <0>         0.1423
     40 H15         5.4029   -2.2449    2.5271 H         1 <0>         0.1044
     41 H16         6.9266   -2.6178    1.5571 H         1 <0>         0.1157
     42 H17         7.8047   -0.2869    2.0397 H         1 <0>         0.1147
     43 H18         6.2814    0.0869    3.0096 H         1 <0>         0.1117
@<TRIPOS>BOND
     1    1    2 1
     2    1   26 1
     3    1   27 1
     4    1   28 1
     5    2   12 2
     6    2    3 1
     7    3    8 ar
     8    3    4 ar
     9    4    5 ar
    10    4   29 1
    11    5    6 ar
    12    5   30 1
    13    6    7 ar
    14    6   20 1
    15    7    8 ar
    16    7   31 1
    17    8    9 1
    18    9   10 1
    19   10   11 2
    20   10   12 1
    21   12   13 1
    22   13   14 1
    23   13   32 1
    24   13   33 1
    25   14   19 ar
    26   14   15 ar
    27   15   16 ar
    28   15   34 1
    29   16   17 ar
    30   16   35 1
    31   17   18 ar
    32   17   36 1
    33   18   19 ar
    34   18   37 1
    35   19   38 1
    36   20   21 1
    37   21   22 2
    38   21   23 1
    39   23   25 1
    40   23   24 1
    41   23   39 1
    42   24   25 1
    43   24   40 1
    44   24   41 1
    45   25   42 1
    46   25   43 1
@<TRIPOS>MOLECULE
ZINC01650601
   28    30     0     0     0
SMALL
USER_CHARGES
1-(3-chloro-1,4-dioxo-2-naphthyl)pyrrolidine-2,5-dione
@<TRIPOS>ATOM
      1 C1          1.1326    1.7746    0.4889 C.ar      1 <0>        -0.0916
      2 C2         -0.0353    1.0740    0.2571 C.ar      1 <0>        -0.0919
      3 C3         -1.2252    1.7479    0.0281 C.ar      1 <0>        -0.0572
      4 C4         -1.2460    3.1367    0.0430 C.ar      1 <0>        -0.1190
      5 C5         -0.0573    3.8499    0.2790 C.ar      1 <0>        -0.1183
      6 C6          1.1291    3.1606    0.5013 C.ar      1 <0>        -0.0573
      7 C7         -0.0874    5.3284    0.2865 C.2       1 <0>         0.4346
      8 O1          0.9309    5.9586    0.4892 O.2       1 <0>        -0.3974
      9 C8         -1.3645    6.0362    0.0464 C.2       1 <0>         0.0920
     10 C9         -2.5037    5.3463   -0.1797 C.2       1 <0>        -0.0561
     11 C10        -2.5050    3.8779   -0.1933 C.2       1 <0>         0.4341
     12 O2         -3.5389    3.2720   -0.3979 O.2       1 <0>        -0.3893
     13 Cl1        -3.9853    6.2069   -0.4585 Cl        1 <0>         0.0015
     14 N1         -1.3924    7.4268    0.0541 N.am      1 <0>        -0.5310
     15 C11        -0.7655    8.1690   -0.8670 C.2       1 <0>         0.5300
     16 O3         -0.1151    7.7361   -1.7937 O.2       1 <0>        -0.4583
     17 C12        -1.0003    9.6340   -0.5697 C.3       1 <0>        -0.1502
     18 C13        -1.8726    9.6095    0.7020 C.3       1 <0>        -0.1495
     19 C14        -2.0437    8.1332    0.9863 C.2       1 <0>         0.5246
     20 O4         -2.6713    7.6645    1.9113 O.2       1 <0>        -0.4566
     21 H1          2.0544    1.2388    0.6613 H         1 <0>         0.1446
     22 H2         -0.0206   -0.0059    0.2497 H         1 <0>         0.1448
     23 H3         -2.1340    1.1945   -0.1573 H         1 <0>         0.1496
     24 H4          2.0451    3.7032    0.6827 H         1 <0>         0.1483
     25 H5         -1.5322   10.1151   -1.3905 H         1 <0>         0.1297
     26 H6         -0.0551   10.1415   -0.3768 H         1 <0>         0.1301
     27 H7         -2.8384   10.0784    0.5138 H         1 <0>         0.1296
     28 H8         -1.3602   10.1025    1.5282 H         1 <0>         0.1300
@<TRIPOS>BOND
     1    1    6 ar
     2    1    2 ar
     3    1   21 1
     4    2    3 ar
     5    2   22 1
     6    3    4 ar
     7    3   23 1
     8    4   11 1
     9    4    5 ar
    10    5    6 ar
    11    5    7 1
    12    6   24 1
    13    7    8 2
    14    7    9 1
    15    9   10 2
    16    9   14 1
    17   10   11 1
    18   10   13 1
    19   11   12 2
    20   14   19 am
    21   14   15 am
    22   15   16 2
    23   15   17 1
    24   17   18 1
    25   17   25 1
    26   17   26 1
    27   18   19 1
    28   18   27 1
    29   18   28 1
    30   19   20 2
@<TRIPOS>MOLECULE
ZINC40973094
   57    61     0     0     0
SMALL
USER_CHARGES

@<TRIPOS>ATOM
      1 C1         -0.7491    1.4517   -0.9427 C.ar      1 <0>        -0.1455
      2 C2         -0.4053    2.2354   -2.0272 C.ar      1 <0>        -0.0945
      3 C3         -0.1630    1.6490   -3.2574 C.ar      1 <0>         0.0627
      4 C4         -0.2648    0.2744   -3.4042 C.ar      1 <0>        -0.0281
      5 C5         -0.6084   -0.5130   -2.3220 C.ar      1 <0>        -0.1481
      6 C6         -0.8513    0.0742   -1.0867 C.ar      1 <0>         0.2093
      7 N1         -1.1987   -0.7206    0.0101 N.pl3     1 <0>        -0.6949
      8 C7         -1.1823   -2.0964   -0.1016 C.ar      1 <0>         0.2359
      9 C8         -2.3316   -2.8102   -0.5183 C.ar      1 <0>        -0.0432
     10 C9         -3.5239   -2.1433   -0.8311 C.ar      1 <0>        -0.1769
     11 C10        -4.6240   -2.8713   -1.2341 C.ar      1 <0>         0.2361
     12 C11        -4.5554   -4.2644   -1.3315 C.ar      1 <0>        -0.1388
     13 C12        -3.4067   -4.9316   -1.0323 C.ar      1 <0>         0.0322
     14 C13        -2.2669   -4.2201   -0.6184 C.ar      1 <0>         0.1106
     15 N2         -1.1296   -4.8658   -0.3220 N.ar      1 <0>        -0.4352
     16 C14        -0.0526   -4.2321    0.0648 C.ar      1 <0>         0.1639
     17 C15        -0.0250   -2.8331    0.1881 C.ar      1 <0>        -0.0554
     18 C16         1.1707   -2.1669    0.6091 C.1       1 <0>         0.2466
     19 N3          2.1192   -1.6384    0.9430 N.1       1 <0>        -0.3812
     20 Cl1        -3.3496   -6.6618   -1.1619 Cl        1 <0>        -0.0243
     21 N4         -5.8157   -2.2118   -1.5469 N.pl3     1 <0>        -0.7348
     22 C17        -6.9873   -2.9800   -1.9755 C.3       1 <0>         0.2046
     23 C18        -8.1320   -2.0390   -2.2496 C.2       1 <0>        -0.0257
     24 C19        -8.4867   -1.5231   -3.4496 C.2       1 <0>        -0.0332
     25 N5         -9.5632   -0.7366   -3.2185 N.pl3     1 <0>        -0.2989
     26 N6         -9.8328   -0.7812   -1.9606 N.2       1 <0>        -0.0668
     27 N7         -9.0011   -1.5539   -1.3558 N.2       1 <0>        -0.2342
     28 C20       -10.2958    0.0337   -4.2265 C.3       1 <0>         0.1371
     29 C21       -10.3105   -0.7376   -5.5494 C.3       1 <0>        -0.1628
     30 C22       -11.0076    0.1070   -6.6182 C.3       1 <0>         0.0000
     31 N8        -10.2847    1.3721   -6.7957 N.4       1 <0>        -0.5091
     32 C23       -10.3282    2.1494   -5.5513 C.3       1 <0>        -0.0008
     33 C24        -9.6050    1.3834   -4.4415 C.3       1 <0>        -0.1626
     34 Cl2         0.0391   -0.4581   -4.9485 Cl        1 <0>        -0.0425
     35 F1          0.1726    2.4175   -4.3166 F         1 <0>        -0.1286
     36 H1         -0.9339    1.9096    0.0178 H         1 <0>         0.1427
     37 H2         -0.3258    3.3066   -1.9151 H         1 <0>         0.1495
     38 H3         -0.6884   -1.5840   -2.4365 H         1 <0>         0.1405
     39 H4         -1.4513   -0.3052    0.8495 H         1 <0>         0.4223
     40 H5         -3.5810   -1.0674   -0.7568 H         1 <0>         0.1364
     41 H6         -5.4261   -4.8194   -1.6483 H         1 <0>         0.1459
     42 H7          0.8385   -4.7985    0.2923 H         1 <0>         0.1775
     43 H8         -5.8672   -1.2455   -1.4802 H         1 <0>         0.4056
     44 H9         -6.7466   -3.5335   -2.8831 H         1 <0>         0.0862
     45 H10        -7.2716   -3.6784   -1.1884 H         1 <0>         0.0888
     46 H11        -8.0066   -1.7025   -4.4003 H         1 <0>         0.1944
     47 H12       -11.3187    0.1977   -3.8875 H         1 <0>         0.1333
     48 H13        -9.2869   -0.9460   -5.8606 H         1 <0>         0.1036
     49 H14       -10.8498   -1.6756   -5.4179 H         1 <0>         0.1283
     50 H15       -11.0199   -0.4393   -7.5614 H         1 <0>         0.1477
     51 H16       -12.0311    0.3146   -6.3062 H         1 <0>         0.1401
     52 H17        -9.3242    1.1785   -7.0367 H         1 <0>         0.4307
     53 H18        -9.8389    3.1109   -5.7068 H         1 <0>         0.1464
     54 H19       -11.3662    2.3134   -5.2620 H         1 <0>         0.1401
     55 H20        -9.6399    1.9614   -3.5180 H         1 <0>         0.1269
     56 H21        -8.5667    1.2190   -4.7296 H         1 <0>         0.1005
     57 H22       -10.7151    1.9030   -7.5379 H         1 <0>         0.4397
@<TRIPOS>BOND
     1    1    6 ar
     2    1    2 ar
     3    1   36 1
     4    2    3 ar
     5    2   37 1
     6    3    4 ar
     7    3   35 1
     8    4    5 ar
     9    4   34 1
    10    5    6 ar
    11    5   38 1
    12    6    7 1
    13    7    8 1
    14    7   39 1
    15    8   17 ar
    16    8    9 ar
    17    9   14 ar
    18    9   10 ar
    19   10   11 ar
    20   10   40 1
    21   11   12 ar
    22   11   21 1
    23   12   13 ar
    24   12   41 1
    25   13   14 ar
    26   13   20 1
    27   14   15 ar
    28   15   16 ar
    29   16   17 ar
    30   16   42 1
    31   17   18 1
    32   18   19 3
    33   21   22 1
    34   21   43 1
    35   22   23 1
    36   22   44 1
    37   22   45 1
    38   23   27 1
    39   23   24 2
    40   24   25 1
    41   24   46 1
    42   25   26 1
    43   25   28 1
    44   26   27 2
    45   28   33 1
    46   28   29 1
    47   28   47 1
    48   29   30 1
    49   29   48 1
    50   29   49 1
    51   30   31 1
    52   30   50 1
    53   30   51 1
    54   31   32 1
    55   31   52 1
    56   31   57 1
    57   32   33 1
    58   32   53 1
    59   32   54 1
    60   33   55 1
    61   33   56 1
@<TRIPOS>MOLECULE
ZINC01044916
   44    46     0     0     0
SMALL
USER_CHARGES
[3-[(4-fluorophenyl)methyl]-4-methyl-2-oxo-chromen-7-yl] dimethylaminoformate
@<TRIPOS>ATOM
      1 C1          1.0137   -6.8224    0.1766 C.3       1 <0>        -0.1354
      2 C2         -0.3684   -6.2253    0.1128 C.2       1 <0>         0.0313
      3 C3         -0.5602   -4.7735    0.0863 C.ar      1 <0>        -0.1436
      4 C4          0.5341   -3.9016    0.1186 C.ar      1 <0>        -0.0425
      5 C5          0.3276   -2.5529    0.0874 C.ar      1 <0>        -0.1354
      6 C6         -0.9661   -2.0380    0.0344 C.ar      1 <0>         0.1583
      7 C7         -2.0604   -2.8861    0.0015 C.ar      1 <0>        -0.1301
      8 C8         -1.8687   -4.2596    0.0270 C.ar      1 <0>         0.1617
      9 O1         -2.9217   -5.1042   -0.0048 O.3       1 <0>        -0.2666
     10 C9         -2.7530   -6.4355    0.0196 C.2       1 <0>         0.5172
     11 O2         -3.7327   -7.1584   -0.0100 O.2       1 <0>        -0.4540
     12 C10        -1.4703   -7.0188    0.0788 C.2       1 <0>        -0.2123
     13 C11        -1.3226   -8.5183    0.1046 C.3       1 <0>        -0.0234
     14 C12        -1.3308   -8.9993    1.5327 C.ar      1 <0>        -0.0932
     15 C13        -0.1431   -9.1071    2.2320 C.ar      1 <0>        -0.0895
     16 C14        -0.1499   -9.5436    3.5433 C.ar      1 <0>        -0.1537
     17 C15        -1.3456   -9.8829    4.1532 C.ar      1 <0>         0.0976
     18 C16        -2.5340   -9.7796    3.4502 C.ar      1 <0>        -0.1513
     19 C17        -2.5253   -9.3379    2.1407 C.ar      1 <0>        -0.0771
     20 F1         -1.3530  -10.3142    5.4336 F         1 <0>        -0.1394
     21 O3         -1.1552   -0.6934    0.0094 O.3       1 <0>        -0.2995
     22 C18        -1.5520   -0.1101    1.1569 C.2       1 <0>         0.6444
     23 O4         -1.8103   -0.7933    2.1280 O.2       1 <0>        -0.5477
     24 N1         -1.6626    1.2312    1.2279 N.am      1 <0>        -0.5966
     25 C19        -2.0942    1.8655    2.4759 C.3       1 <0>         0.0978
     26 C20        -1.3454    2.0553    0.0589 C.3       1 <0>         0.0777
     27 H1          1.3053   -6.9531    1.2187 H         1 <0>         0.0947
     28 H2          1.0150   -7.7901   -0.3252 H         1 <0>         0.0899
     29 H3          1.7206   -6.1559   -0.3176 H         1 <0>         0.0838
     30 H4          1.5389   -4.2949    0.1641 H         1 <0>         0.1514
     31 H5          1.1723   -1.8802    0.1079 H         1 <0>         0.1455
     32 H6         -3.0599   -2.4793   -0.0437 H         1 <0>         0.1504
     33 H7         -2.1512   -8.9744   -0.4372 H         1 <0>         0.0971
     34 H8         -0.3813   -8.7989   -0.3679 H         1 <0>         0.0956
     35 H9          0.7899   -8.8463    1.7548 H         1 <0>         0.1334
     36 H10         0.7777   -9.6238    4.0907 H         1 <0>         0.1364
     37 H11        -3.4673  -10.0437    3.9250 H         1 <0>         0.1368
     38 H12        -3.4521   -9.2568    1.5922 H         1 <0>         0.1389
     39 H13        -1.2222    2.0874    3.0912 H         1 <0>         0.0634
     40 H14        -2.6237    2.7909    2.2490 H         1 <0>         0.0821
     41 H15        -2.7578    1.1903    3.0161 H         1 <0>         0.0830
     42 H16        -2.2443    2.1955   -0.5415 H         1 <0>         0.0632
     43 H17        -0.9736    3.0255    0.3884 H         1 <0>         0.0799
     44 H18        -0.5824    1.5580   -0.5400 H         1 <0>         0.0798
@<TRIPOS>BOND
     1    1    2 1
     2    1   27 1
     3    1   28 1
     4    1   29 1
     5    2   12 2
     6    2    3 1
     7    3    8 ar
     8    3    4 ar
     9    4    5 ar
    10    4   30 1
    11    5    6 ar
    12    5   31 1
    13    6    7 ar
    14    6   21 1
    15    7    8 ar
    16    7   32 1
    17    8    9 1
    18    9   10 1
    19   10   11 2
    20   10   12 1
    21   12   13 1
    22   13   14 1
    23   13   33 1
    24   13   34 1
    25   14   19 ar
    26   14   15 ar
    27   15   16 ar
    28   15   35 1
    29   16   17 ar
    30   16   36 1
    31   17   18 ar
    32   17   20 1
    33   18   19 ar
    34   18   37 1
    35   19   38 1
    36   21   22 1
    37   22   23 2
    38   22   24 am
    39   24   25 1
    40   24   26 1
    41   25   39 1
    42   25   40 1
    43   25   41 1
    44   26   42 1
    45   26   43 1
    46   26   44 1
