@<TRIPOS>MOLECULE
ZINC03875041
   28    29     0     0     0
SMALL
USER_CHARGES

@<TRIPOS>ATOM
      1 C1         -0.0188    1.5321    0.0105 C.3       1 <0>        -0.1450
      2 C2          1.4030    2.0927   -0.0001 C.3       1 <0>        -0.1775
      3 C3          2.2119    1.4924   -1.1609 C.3       1 <0>         0.1055
      4 H1          1.7723    1.7919   -2.1124 H         1 <0>         0.0895
      5 C4          2.1574   -0.0227   -1.0201 C.3       1 <0>         0.0429
      6 H2          2.5491   -0.3363   -0.0524 H         1 <0>         0.1609
      7 C5          2.8582   -0.7742   -2.1651 C.3       1 <0>         0.1044
      8 H3          3.9230   -0.8880   -1.9619 H         1 <0>         0.1209
      9 C6          2.1374   -2.1504   -2.1360 C.3       1 <0>         0.0557
     10 H4          2.7220   -2.8724   -1.5659 H         1 <0>         0.1104
     11 C7          0.7846   -1.8786   -1.4336 C.3       1 <0>        -0.0388
     12 N1          0.7372   -0.4335   -1.1785 N.4       1 <0>        -0.3840
     13 C8          0.0021   -0.0041    0.0020 C.3       1 <0>        -0.0060
     14 O1          1.9220   -2.6264   -3.4661 O.3       1 <0>        -0.5417
     15 O2          2.6473   -0.1129   -3.4141 O.3       1 <0>        -0.5454
     16 O3          3.5673    1.9395   -1.0904 O.3       1 <0>        -0.5451
     17 H5         -0.5347    1.8791    0.9057 H         1 <0>         0.1192
     18 H6         -0.5517    1.8886   -0.8710 H         1 <0>         0.0908
     19 H7          1.3613    3.1760   -0.1134 H         1 <0>         0.0999
     20 H8          1.8924    1.8491    0.9429 H         1 <0>         0.0915
     21 H9         -0.0409   -2.1785   -2.0791 H         1 <0>         0.1421
     22 H10         0.7376   -2.4177   -0.4874 H         1 <0>         0.1373
     23 H11         0.4990   -0.3713    0.9000 H         1 <0>         0.1318
     24 H12        -1.0177   -0.3867   -0.0389 H         1 <0>         0.1356
     25 H13         1.4749   -3.4828   -3.5097 H         1 <0>         0.4012
     26 H14         3.0699   -0.5492   -4.1665 H         1 <0>         0.4114
     27 H15         3.6680    2.8998   -1.1437 H         1 <0>         0.4039
     28 H16         0.3480    0.0267   -1.9877 H         1 <0>         0.4285
@<TRIPOS>BOND
     1    1   13 1
     2    1    2 1
     3    1   17 1
     4    1   18 1
     5    2    3 1
     6    2   19 1
     7    2   20 1
     8    3    4 1
     9    3    5 1
    10    3   16 1
    11    5    6 1
    12    5   12 1
    13    5    7 1
    14    7    8 1
    15    7    9 1
    16    7   15 1
    17    9   10 1
    18    9   11 1
    19    9   14 1
    20   11   12 1
    21   11   21 1
    22   11   22 1
    23   12   13 1
    24   12   28 1
    25   13   23 1
    26   13   24 1
    27   14   25 1
    28   15   26 1
    29   16   27 1
@<TRIPOS>MOLECULE
ZINC25999184
   25    25     0     0     0
SMALL
USER_CHARGES
(1R,2R,3R,4S,5R)-4-amino-5-methoxy-cyclopentane-1,2,3-triol
@<TRIPOS>ATOM
      1 C1         -1.7241    0.6720    1.6344 C.3       1 <0>         0.0207
      2 O1         -0.7077    1.5592    1.1634 O.3       1 <0>        -0.3752
      3 C2         -0.0127    1.0858    0.0080 C.3       1 <0>         0.0777
      4 H1         -0.0567   -0.0091    0.1040 H         1 <0>         0.0982
      5 C3          1.4256    1.6325   -0.0028 C.3       1 <0>         0.0599
      6 H2          1.6612    2.2082    0.9044 H         1 <0>         0.1581
      7 C4          1.5683    2.4720   -1.2892 C.3       1 <0>         0.1173
      8 H3          2.2768    3.3098   -1.2107 H         1 <0>         0.0969
      9 C5          0.1159    2.8805   -1.6393 C.3       1 <0>         0.0598
     10 H4         -0.2364    3.8168   -1.1819 H         1 <0>         0.0898
     11 C6         -0.6938    1.6121   -1.2722 C.3       1 <0>         0.0702
     12 H5         -1.7788    1.7681   -1.1802 H         1 <0>         0.0799
     13 O2         -0.6075    0.6433   -2.3191 O.3       1 <0>        -0.5867
     14 O3         -0.0060    3.1734   -3.0326 O.3       1 <0>        -0.5957
     15 O4          2.1336    1.6852   -2.3396 O.3       1 <0>        -0.6054
     16 N1          2.3863    0.5213   -0.0168 N.4       1 <0>        -0.6755
     17 H6         -2.2086    1.1071    2.5209 H         1 <0>         0.1072
     18 H7         -1.2722   -0.2948    1.9009 H         1 <0>         0.0529
     19 H8         -2.4739    0.5208    0.8439 H         1 <0>         0.0547
     20 H9         -1.0448    0.8587   -3.3052 H         1 <0>         0.4282
     21 H10        -0.9775    3.4808   -3.4471 H         1 <0>         0.4293
     22 H11         2.3045    2.1317   -3.3303 H         1 <0>         0.4540
     23 H12         3.4106    0.9223   -0.0244 H         1 <0>         0.4627
     24 H13         2.2255   -0.0911   -0.9163 H         1 <0>         0.4658
     25 H14         2.2421   -0.0993    0.8799 H         1 <0>         0.4550
@<TRIPOS>BOND
     1    1    2 1
     2    1   17 1
     3    1   18 1
     4    1   19 1
     5    2    3 1
     6    3    4 1
     7    3   11 1
     8    3    5 1
     9    5    6 1
    10    5    7 1
    11    5   16 1
    12    7    8 1
    13    7    9 1
    14    7   15 1
    15    9   10 1
    16    9   11 1
    17    9   14 1
    18   11   12 1
    19   11   13 1
    20   13   20 1
    21   14   21 1
    22   15   22 1
    23   16   23 1
    24   16   24 1
    25   16   25 1
@<TRIPOS>MOLECULE
ZINC25995959
   28    28     0     0     0
SMALL
USER_CHARGES
(1R,2R,3R,4S,5R)-4-amino-5-ethylsulfanyl-cyclopentane-1,2,3-triol
@<TRIPOS>ATOM
      1 C1         -2.5333   -0.1148    4.6913 C.3       1 <0>        -0.1471
      2 C2         -2.0475    0.9693    3.7271 C.3       1 <0>        -0.0842
      3 S1         -1.1718    0.1960    2.3394 S.3       1 <0>        -0.2013
      4 C3         -0.6675    1.5970    1.3033 C.3       1 <0>        -0.0833
      5 H1         -1.4604    2.2948    0.9960 H         1 <0>         0.1207
      6 C4         -0.0127    1.0858    0.0080 C.3       1 <0>         0.0775
      7 H2         -0.0481   -0.0106   -0.0735 H         1 <0>         0.1484
      8 C5          1.4293    1.6339   -0.0028 C.3       1 <0>         0.1139
      9 H3          2.1988    0.8981    0.2737 H         1 <0>         0.1194
     10 C6          1.3675    2.8834    0.9104 C.3       1 <0>         0.0489
     11 H4          2.3395    3.2719    1.2485 H         1 <0>         0.0876
     12 C7          0.3993    2.4379    2.0343 C.3       1 <0>         0.0849
     13 H5          0.8793    1.9266    2.8817 H         1 <0>         0.0942
     14 O1         -0.1986    3.5753    2.6595 O.3       1 <0>        -0.5963
     15 O2          0.8372    4.0042    0.2000 O.3       1 <0>        -0.5954
     16 O3          1.8144    2.0021   -1.3288 O.3       1 <0>        -0.6098
     17 N1         -0.7496    1.5851   -1.1606 N.4       1 <0>        -0.6742
     18 H6         -3.0643    0.3541    5.5328 H         1 <0>         0.0838
     19 H7         -1.6701   -0.6805    5.0719 H         1 <0>         0.0695
     20 H8         -3.2147   -0.7974    4.1623 H         1 <0>         0.0688
     21 H9         -2.9107    1.5350    3.3465 H         1 <0>         0.0878
     22 H10        -1.3661    1.6519    4.2560 H         1 <0>         0.0927
     23 H11         0.4249    4.2828    3.2257 H         1 <0>         0.4287
     24 H12         0.7264    4.9742    0.7067 H         1 <0>         0.4314
     25 H13         2.8173    2.4134   -1.5161 H         1 <0>         0.4521
     26 H14        -0.2735    1.2141   -2.0802 H         1 <0>         0.4667
     27 H15        -0.7372    2.6850   -1.1593 H         1 <0>         0.4603
     28 H16        -1.7898    1.2301   -1.1172 H         1 <0>         0.4542
@<TRIPOS>BOND
     1    1    2 1
     2    1   18 1
     3    1   19 1
     4    1   20 1
     5    2    3 1
     6    2   21 1
     7    2   22 1
     8    3    4 1
     9    4    5 1
    10    4   12 1
    11    4    6 1
    12    6    7 1
    13    6    8 1
    14    6   17 1
    15    8    9 1
    16    8   10 1
    17    8   16 1
    18   10   11 1
    19   10   12 1
    20   10   15 1
    21   12   13 1
    22   12   14 1
    23   14   23 1
    24   15   24 1
    25   16   25 1
    26   17   26 1
    27   17   27 1
    28   17   28 1
