@<TRIPOS>MOLECULE
ZINC58655676
   55    57     0     0     0
SMALL
USER_CHARGES

@<TRIPOS>ATOM
      1 C1          0.5488    1.6611   -0.2219 C.3       1 <0>        -0.1411
      2 C2          0.4334    0.1368   -0.1575 C.3       1 <0>        -0.0014
      3 C3          1.1752   -0.3791    1.0772 C.3       1 <0>        -0.1412
      4 C4         -1.0195   -0.2538   -0.0701 C.2       1 <0>        -0.2596
      5 C5         -1.9098    0.1168    0.9294 C.2       1 <0>         0.1117
      6 N1         -3.0838   -0.4099    0.6710 N.2       1 <0>        -0.3361
      7 N2         -2.9973   -1.1475   -0.5153 N.pl3     1 <0>        -0.3639
      8 C6         -1.7117   -1.0440   -0.9772 C.2       1 <0>         0.3466
      9 N3         -1.3417   -1.6548   -2.1127 N.2       1 <0>        -0.5767
     10 C7         -2.2072   -2.3671   -2.8134 C.2       1 <0>         0.4953
     11 C8         -3.5350   -2.4948   -2.3753 C.2       1 <0>        -0.3671
     12 C9         -3.9182   -1.8828   -1.2175 C.2       1 <0>         0.5060
     13 N4         -5.2172   -1.9910   -0.7665 N.pl3     1 <0>        -0.7101
     14 C10        -6.1925   -2.7789   -1.5242 C.3       1 <0>         0.1679
     15 C11        -7.5259   -2.7365   -0.8233 C.ar      1 <0>        -0.1184
     16 C12        -7.8360   -3.6880    0.1303 C.ar      1 <0>        -0.0961
     17 C13        -9.0591   -3.6491    0.7733 C.ar      1 <0>        -0.1212
     18 C14        -9.9719   -2.6584    0.4630 C.ar      1 <0>        -0.1053
     19 C15        -9.6614   -1.7064   -0.4899 C.ar      1 <0>        -0.1214
     20 C16        -8.4366   -1.7427   -1.1298 C.ar      1 <0>        -0.0963
     21 N5         -1.8032   -2.9889   -3.9834 N.pl3     1 <0>        -0.6918
     22 C17        -0.4184   -2.8566   -4.4427 C.3       1 <0>         0.1320
     23 H1         -0.0468   -1.8624   -4.1947 H         1 <0>         0.1085
     24 C18         0.4500   -3.9119   -3.7549 C.3       1 <0>         0.0700
     25 O1          0.0275   -5.2151   -4.1614 O.3       1 <0>        -0.5699
     26 C19        -0.3623   -3.0587   -5.9582 C.3       1 <0>         0.1075
     27 H2         -0.7661   -4.0395   -6.2092 H         1 <0>         0.1172
     28 C20        -1.1915   -1.9738   -6.6485 C.3       1 <0>         0.0440
     29 O2         -1.2351   -2.2295   -8.0537 O.3       1 <0>        -0.5625
     30 O3          0.9941   -2.9748   -6.4001 O.3       1 <0>        -0.5390
     31 H3          1.5996    1.9436   -0.2851 H         1 <0>         0.0538
     32 H4          0.0202    2.0286   -1.1015 H         1 <0>         0.0506
     33 H5          0.1086    2.0970    0.6749 H         1 <0>         0.0520
     34 H6          0.8736   -0.2992   -1.0543 H         1 <0>         0.0769
     35 H7          2.2261   -0.0966    1.0141 H         1 <0>         0.0538
     36 H8          0.7351    0.0569    1.9741 H         1 <0>         0.0520
     37 H9          1.0931   -1.4650    1.1232 H         1 <0>         0.0506
     38 H10        -1.6741    0.7374    1.7813 H         1 <0>         0.1890
     39 H11        -4.2442   -3.0761   -2.9458 H         1 <0>         0.1543
     40 H12        -5.4849   -1.5453    0.0524 H         1 <0>         0.4169
     41 H13        -6.2955   -2.3630   -2.5265 H         1 <0>         0.0824
     42 H14        -5.8507   -3.8116   -1.5927 H         1 <0>         0.0828
     43 H15        -7.1229   -4.4620    0.3727 H         1 <0>         0.1248
     44 H16        -9.3017   -4.3929    1.5178 H         1 <0>         0.1267
     45 H17       -10.9277   -2.6285    0.9648 H         1 <0>         0.1260
     46 H18       -10.3746   -0.9326   -0.7326 H         1 <0>         0.1266
     47 H19        -8.1925   -0.9967   -1.8716 H         1 <0>         0.1246
     48 H20        -2.4372   -3.5119   -4.4985 H         1 <0>         0.4145
     49 H21         1.4927   -3.7638   -4.0361 H         1 <0>         0.0598
     50 H22         0.3484   -3.8178   -2.6738 H         1 <0>         0.0555
     51 H23         0.5354   -5.9352   -3.7633 H         1 <0>         0.3813
     52 H24        -2.2046   -1.9800   -6.2464 H         1 <0>         0.0549
     53 H25        -0.7358   -0.9998   -6.4704 H         1 <0>         0.0491
     54 H26        -1.7454   -1.5796   -8.5561 H         1 <0>         0.3802
     55 H27         1.4409   -2.1559   -6.1452 H         1 <0>         0.3731
@<TRIPOS>BOND
     1    1    2 1
     2    1   31 1
     3    1   32 1
     4    1   33 1
     5    2    3 1
     6    2    4 1
     7    2   34 1
     8    3   35 1
     9    3   36 1
    10    3   37 1
    11    4    8 2
    12    4    5 1
    13    5    6 2
    14    5   38 1
    15    6    7 1
    16    7   12 1
    17    7    8 1
    18    8    9 1
    19    9   10 2
    20   10   11 1
    21   10   21 1
    22   11   12 2
    23   11   39 1
    24   12   13 1
    25   13   14 1
    26   13   40 1
    27   14   15 1
    28   14   41 1
    29   14   42 1
    30   15   20 ar
    31   15   16 ar
    32   16   17 ar
    33   16   43 1
    34   17   18 ar
    35   17   44 1
    36   18   19 ar
    37   18   45 1
    38   19   20 ar
    39   19   46 1
    40   20   47 1
    41   21   22 1
    42   21   48 1
    43   22   23 1
    44   22   24 1
    45   22   26 1
    46   24   25 1
    47   24   49 1
    48   24   50 1
    49   25   51 1
    50   26   27 1
    51   26   28 1
    52   26   30 1
    53   28   29 1
    54   28   52 1
    55   28   53 1
    56   29   54 1
    57   30   55 1
@<TRIPOS>MOLECULE
ZINC02170223
   36    37     0     0     0
SMALL
USER_CHARGES

@<TRIPOS>ATOM
      1 C1          2.5162    0.9496    1.4171 C.ar      1 <0>        -0.1548
      2 C2          1.8179    1.8754    0.7027 C.ar      1 <0>        -0.0114
      3 C3          0.8924    1.4496   -0.2625 C.ar      1 <0>        -0.1395
      4 C4          0.1441    2.3570   -1.0300 C.ar      1 <0>         0.1700
      5 N1         -0.7096    1.9109   -1.9214 N.ar      1 <0>        -0.4894
      6 C5         -0.9082    0.6184   -2.1416 C.ar      1 <0>         0.1152
      7 C6         -0.2327   -0.3410   -1.4505 C.ar      1 <0>        -0.1945
      8 C7          0.7007    0.0595   -0.4769 C.ar      1 <0>         0.0582
      9 C8          1.4373   -0.8645    0.2774 C.ar      1 <0>        -0.6910
     10 C9          2.3271   -0.4146    1.2059 C.ar      1 <0>         0.0343
     11 S1          1.2137   -2.5943    0.0269 S.o2      1 <0>         2.6989
     12 O1          2.1244   -3.2517    0.8974 O.2       1 <0>        -0.9463
     13 O2         -0.1865   -2.8329    0.0680 O.2       1 <0>        -0.9355
     14 N2          1.7064   -2.9332   -1.5173 N.pl3     1 <0>        -1.1171
     15 C10         3.1062   -2.7326   -1.9002 C.3       1 <0>         0.1067
     16 C11         3.3893   -3.4769   -3.2066 C.3       1 <0>         0.0866
     17 N3          4.7891   -3.2763   -3.5895 N.pl3     1 <0>        -0.6942
     18 C12         5.2749   -3.8512   -4.7316 C.cat     1 <0>         0.7464
     19 N4          6.5475   -3.6688   -5.0797 N.pl3     1 <0>        -0.7918
     20 N5          4.4752   -4.5934   -5.4957 N.pl3     1 <0>        -0.7918
     21 H1          3.2315    1.2784    2.1565 H         1 <0>         0.1444
     22 H2          1.9750    2.9294    0.8779 H         1 <0>         0.1478
     23 H3          0.2706    3.4199   -0.8866 H         1 <0>         0.1724
     24 H4         -1.6264    0.3180   -2.8902 H         1 <0>         0.1627
     25 H5         -0.4102   -1.3883   -1.6456 H         1 <0>         0.1414
     26 H6          2.8949   -1.1263    1.7868 H         1 <0>         0.1512
     27 H7          1.0683   -3.2645   -2.1683 H         1 <0>         0.4242
     28 H8          3.2957   -1.6683   -2.0399 H         1 <0>         0.0839
     29 H9          3.7565   -3.1173   -1.1145 H         1 <0>         0.1004
     30 H10         3.1998   -4.5411   -3.0669 H         1 <0>         0.1047
     31 H11         2.7390   -3.0921   -3.9922 H         1 <0>         0.1021
     32 H12         5.3714   -2.7357   -3.0330 H         1 <0>         0.4385
     33 H13         7.1299   -3.1283   -4.5233 H         1 <0>         0.4421
     34 H14         3.5484   -4.7262   -5.2422 H         1 <0>         0.4402
     35 H15         4.8197   -5.0011   -6.3057 H         1 <0>         0.4423
     36 H16         6.8920   -4.0765   -5.8897 H         1 <0>         0.4427
@<TRIPOS>BOND
     1    1   10 ar
     2    1    2 ar
     3    1   21 1
     4    2    3 ar
     5    2   22 1
     6    3    8 ar
     7    3    4 ar
     8    4    5 ar
     9    4   23 1
    10    5    6 ar
    11    6    7 ar
    12    6   24 1
    13    7    8 ar
    14    7   25 1
    15    8    9 ar
    16    9   10 ar
    17    9   11 1
    18   10   26 1
    19   11   12 2
    20   11   13 2
    21   11   14 1
    22   14   15 1
    23   14   27 1
    24   15   16 1
    25   15   28 1
    26   15   29 1
    27   16   17 1
    28   16   30 1
    29   16   31 1
    30   17   18 1
    31   17   32 1
    32   18   19 2
    33   18   20 1
    34   19   33 1
    35   19   36 1
    36   20   34 1
    37   20   35 1
@<TRIPOS>MOLECULE
ZINC13472189
   31    33     0     0     0
SMALL
USER_CHARGES

@<TRIPOS>ATOM
      1 C1         -0.0161    1.3397    0.0094 C.2       1 <0>         0.0270
      2 C2          1.2536    1.7794   -0.0004 C.2       1 <0>         0.0613
      3 N1          2.0636    0.6663   -0.0141 N.pl3     1 <0>        -0.5418
      4 H1          3.0335    0.6587   -0.0231 H         1 <0>         0.4599
      5 C3          1.2460   -0.4209   -0.0121 C.cat     1 <0>         0.5896
      6 N2          0.0021   -0.0041    0.0020 N.pl3     1 <0>        -0.5135
      7 N3          1.6570   -1.7434   -0.0235 N.pl3     1 <0>        -0.8050
      8 C4          1.7050    3.2172    0.0026 C.3       1 <0>         0.0538
      9 H2          2.7067    3.2686    0.4293 H         1 <0>         0.1181
     10 C5          0.7682    4.0171    0.8685 C.3       1 <0>        -0.1369
     11 C6          1.2955    5.3776    1.2347 C.3       1 <0>         0.1042
     12 N4          1.1929    6.3591    0.1882 N.am      1 <0>        -0.6907
     13 C7          1.3661    6.2124   -1.1046 C.2       1 <0>         0.5834
     14 O1          1.3041    7.2355   -1.7609 O.2       1 <0>        -0.5489
     15 C8          1.6220    4.9986   -1.8612 C.2       1 <0>         0.0311
     16 C9          1.7579    3.7077   -1.4096 C.2       1 <0>        -0.0852
     17 C10         1.9671    2.8938   -2.5330 C.2       1 <0>        -0.1444
     18 C11         1.9647    3.6882   -3.6296 C.2       1 <0>         0.0872
     19 N5          1.7697    4.9660   -3.2399 N.pl3     1 <0>        -0.4852
     20 H3          1.7338    5.7357   -3.8291 H         1 <0>         0.4437
     21 Br1         2.2033    3.1052   -5.4126 Br        1 <0>         0.0565
     22 Br2         2.2104    1.0186   -2.5183 Br        1 <0>        -0.0176
     23 H4         -0.9001    1.9600    0.0252 H         1 <0>         0.2216
     24 H5          2.6031   -1.9572   -0.0340 H         1 <0>         0.4394
     25 H6          0.9988   -2.4559   -0.0210 H         1 <0>         0.4406
     26 H7         -0.1761    4.1408    0.3382 H         1 <0>         0.0878
     27 H8          0.5788    3.4586    1.7852 H         1 <0>         0.1064
     28 H9          0.7446    5.7394    2.1029 H         1 <0>         0.1050
     29 H10         2.3447    5.2779    1.5131 H         1 <0>         0.0744
     30 H11         0.9630    7.2555    0.4787 H         1 <0>         0.4171
     31 H12        -0.7814   -0.5760    0.0064 H         1 <0>         0.4610
@<TRIPOS>BOND
     1    1    6 1
     2    1    2 2
     3    1   23 1
     4    2    3 1
     5    2    8 1
     6    3    4 1
     7    3    5 1
     8    5    6 2
     9    5    7 1
    10    6   31 1
    11    7   24 1
    12    7   25 1
    13    8    9 1
    14    8   16 1
    15    8   10 1
    16   10   11 1
    17   10   26 1
    18   10   27 1
    19   11   12 1
    20   11   28 1
    21   11   29 1
    22   12   13 am
    23   12   30 1
    24   13   14 2
    25   13   15 1
    26   15   19 1
    27   15   16 2
    28   16   17 1
    29   17   18 2
    30   17   22 1
    31   18   19 1
    32   18   21 1
    33   19   20 1
@<TRIPOS>MOLECULE
ZINC13472189
   30    32     0     0     0
SMALL
USER_CHARGES
(4R)-4-(2-amino-3H-imidazol-4-yl)-2,3-dibromo-4,5,6,7-tetrahydro-1H-pyrrolo[2,3-c]azepin-8-one
@<TRIPOS>ATOM
      1 C1          1.3969    5.3924   -2.2489 C.2       1 <0>        -0.0699
      2 C2          1.1870    5.2913   -0.9254 C.2       1 <0>         0.0192
      3 N1          1.4566    6.5266   -0.3808 N.2       1 <0>        -0.4945
      4 H1          1.9921    7.0081   -3.4307 H         1 <0>         0.4177
      5 C3          1.8195    7.3431   -1.4065 C.2       1 <0>         0.4447
      6 N2          1.7764    6.6526   -2.5212 N.pl3     1 <0>        -0.5540
      7 N3          2.1743    8.6771   -1.2932 N.pl3     1 <0>        -0.8458
      8 C4          0.7461    4.0588   -0.1788 C.3       1 <0>         0.0645
      9 H2          1.1121    4.1207    0.8461 H         1 <0>         0.1019
     10 C5          1.3545    2.8495   -0.8382 C.3       1 <0>        -0.1296
     11 C6          1.2791    1.6015   -0.0016 C.3       1 <0>         0.1048
     12 N4         -0.0111    0.9658    0.0074 N.am      1 <0>        -0.6910
     13 C7         -1.2039    1.5137    0.0165 C.2       1 <0>         0.5919
     14 O1         -2.1369    0.7366    0.0996 O.2       1 <0>        -0.5689
     15 C8         -1.5651    2.9192   -0.0520 C.2       1 <0>        -0.0030
     16 C9         -0.7493    4.0216   -0.1519 C.2       1 <0>        -0.0525
     17 C10        -1.5794    5.1504   -0.2259 C.2       1 <0>        -0.1310
     18 C11        -2.8642    4.7281   -0.1609 C.2       1 <0>         0.0664
     19 N5         -2.8734    3.3797   -0.0483 N.pl3     1 <0>        -0.4979
     20 H3         -3.6661    2.8254    0.0239 H         1 <0>         0.4337
     21 Br1        -4.3932    5.8392   -0.2181 Br        1 <0>         0.0331
     22 Br2        -1.0051    6.9447   -0.3884 Br        1 <0>         0.0259
     23 H4          1.2784    4.5977   -2.9705 H         1 <0>         0.1662
     24 H5          2.1775    9.1059   -0.4232 H         1 <0>         0.4186
     25 H6          2.4196    9.1825   -2.0840 H         1 <0>         0.4038
     26 H7          2.4016    3.0608   -1.0548 H         1 <0>         0.0980
     27 H8          0.8345    2.6698   -1.7792 H         1 <0>         0.0742
     28 H9          1.5456    1.8566    1.0241 H         1 <0>         0.0705
     29 H10         2.0128    0.8886   -0.3778 H         1 <0>         0.0936
     30 H11         0.0021   -0.0041    0.0020 H         1 <0>         0.4094
@<TRIPOS>BOND
     1    1    6 1
     2    1    2 2
     3    1   23 1
     4    2    3 1
     5    2    8 1
     6    3    5 2
     7    4    6 1
     8    5    7 1
     9    5    6 1
    10    7   24 1
    11    7   25 1
    12    8    9 1
    13    8   16 1
    14    8   10 1
    15   10   11 1
    16   10   26 1
    17   10   27 1
    18   11   12 1
    19   11   28 1
    20   11   29 1
    21   12   13 am
    22   12   30 1
    23   13   14 2
    24   13   15 1
    25   15   19 1
    26   15   16 2
    27   16   17 1
    28   17   18 2
    29   17   22 1
    30   18   19 1
    31   18   21 1
    32   19   20 1
@<TRIPOS>MOLECULE
ZINC13472190
   31    33     0     0     0
SMALL
USER_CHARGES

@<TRIPOS>ATOM
      1 C1         -0.0161    1.3397    0.0094 C.2       1 <0>         0.0269
      2 C2          1.2536    1.7794   -0.0004 C.2       1 <0>         0.0614
      3 N1          2.0636    0.6663   -0.0141 N.pl3     1 <0>        -0.5418
      4 H1          3.0335    0.6587   -0.0231 H         1 <0>         0.4599
      5 C3          1.2460   -0.4209   -0.0121 C.cat     1 <0>         0.5896
      6 N2          0.0021   -0.0041    0.0020 N.pl3     1 <0>        -0.5135
      7 N3          1.6570   -1.7434   -0.0235 N.pl3     1 <0>        -0.8050
      8 C4          1.7050    3.2172    0.0026 C.3       1 <0>         0.0538
      9 H2          2.6981    3.2731   -0.4432 H         1 <0>         0.1181
     10 C5          0.7514    4.0259   -0.8364 C.3       1 <0>        -0.1369
     11 C6          1.2716    5.3901   -1.1989 C.3       1 <0>         0.1042
     12 N4          1.1896    6.3608   -0.1404 N.am      1 <0>        -0.6907
     13 C7          1.3883    6.2008    1.1471 C.2       1 <0>         0.5834
     14 O1          1.3384    7.2170    1.8151 O.2       1 <0>        -0.5490
     15 C8          1.6589    4.9793    1.8860 C.2       1 <0>         0.0312
     16 C9          1.7857    3.6932    1.4185 C.2       1 <0>        -0.0853
     17 C10         2.0169    2.8678    2.5291 C.2       1 <0>        -0.1443
     18 C11         2.0362    3.6507    3.6337 C.2       1 <0>         0.0871
     19 N5          1.8337    4.9325    3.2611 N.pl3     1 <0>        -0.4852
     20 H3          1.8100    5.6961    3.8587 H         1 <0>         0.4437
     21 Br1         2.3097    3.0494    5.4055 Br        1 <0>         0.0565
     22 Br2         2.2578    0.9926    2.4905 Br        1 <0>        -0.0176
     23 H4         -0.9001    1.9600    0.0252 H         1 <0>         0.2216
     24 H5          2.6031   -1.9572   -0.0340 H         1 <0>         0.4394
     25 H6          0.9988   -2.4559   -0.0210 H         1 <0>         0.4406
     26 H7          0.5440    3.4769   -1.7549 H         1 <0>         0.1064
     27 H8         -0.1822    4.1440   -0.2864 H         1 <0>         0.0878
     28 H9          2.3150    5.2934   -1.4989 H         1 <0>         0.0744
     29 H10         0.7037    5.7608   -2.0522 H         1 <0>         0.1050
     30 H11         0.9548    7.2603   -0.4173 H         1 <0>         0.4171
     31 H12        -0.7814   -0.5760    0.0064 H         1 <0>         0.4610
@<TRIPOS>BOND
     1    1    6 1
     2    1    2 2
     3    1   23 1
     4    2    3 1
     5    2    8 1
     6    3    4 1
     7    3    5 1
     8    5    6 2
     9    5    7 1
    10    6   31 1
    11    7   24 1
    12    7   25 1
    13    8    9 1
    14    8   16 1
    15    8   10 1
    16   10   11 1
    17   10   26 1
    18   10   27 1
    19   11   12 1
    20   11   28 1
    21   11   29 1
    22   12   13 am
    23   12   30 1
    24   13   14 2
    25   13   15 1
    26   15   19 1
    27   15   16 2
    28   16   17 1
    29   17   18 2
    30   17   22 1
    31   18   19 1
    32   18   21 1
    33   19   20 1
@<TRIPOS>MOLECULE
ZINC13472190
   30    32     0     0     0
SMALL
USER_CHARGES
(4S)-4-(2-amino-3H-imidazol-4-yl)-2,3-dibromo-4,5,6,7-tetrahydro-1H-pyrrolo[2,3-c]azepin-8-one
@<TRIPOS>ATOM
      1 C1         -2.1843    2.2778   -3.6422 C.2       1 <0>        -0.0696
      2 C2         -2.3260    1.0991   -3.0129 C.2       1 <0>         0.0190
      3 N1         -2.8953    0.2286   -3.9147 N.2       1 <0>        -0.4944
      4 H1         -2.6515    2.8650   -5.5911 H         1 <0>         0.4177
      5 C3         -3.0756    0.9178   -5.0736 C.2       1 <0>         0.4447
      6 N2         -2.6423    2.1437   -4.8985 N.pl3     1 <0>        -0.5540
      7 N3         -3.6236    0.4112   -6.2403 N.pl3     1 <0>        -0.8458
      8 C4         -1.9404    0.7903   -1.5891 C.3       1 <0>         0.0646
      9 H2         -1.7282   -0.2757   -1.5073 H         1 <0>         0.1019
     10 C5         -0.6922    1.5603   -1.2475 C.3       1 <0>        -0.1297
     11 C6         -0.0127    1.0858    0.0080 C.3       1 <0>         0.1051
     12 N4         -0.6393    1.5264    1.2254 N.am      1 <0>        -0.6901
     13 C7         -1.9125    1.6572    1.5039 C.2       1 <0>         0.5921
     14 O1         -2.1703    1.9748    2.6503 O.2       1 <0>        -0.5695
     15 C8         -3.0604    1.4757    0.6317 C.2       1 <0>        -0.0034
     16 C9         -3.0947    1.1189   -0.6959 C.2       1 <0>        -0.0529
     17 C10        -4.4407    1.1110   -1.0918 C.2       1 <0>        -0.1309
     18 C11        -5.1933    1.4470   -0.0176 C.2       1 <0>         0.0663
     19 N5         -4.3735    1.6645    1.0366 N.pl3     1 <0>        -0.4979
     20 H3         -4.6578    1.9122    1.9303 H         1 <0>         0.4336
     21 Br1        -7.0787    1.5894    0.0054 Br        1 <0>         0.0330
     22 Br2        -5.0892    0.7027   -2.8206 Br        1 <0>         0.0258
     23 H4         -1.7706    3.1783   -3.2127 H         1 <0>         0.1661
     24 H5         -3.9179   -0.5123   -6.2768 H         1 <0>         0.4185
     25 H6         -3.7132    0.9800   -7.0209 H         1 <0>         0.4038
     26 H7         -0.9537    2.6114   -1.1260 H         1 <0>         0.0743
     27 H8          0.0091    1.4727   -2.0774 H         1 <0>         0.0978
     28 H9          0.0021   -0.0041    0.0020 H         1 <0>         0.0709
     29 H10         1.0167    1.4440    0.0001 H         1 <0>         0.0941
     30 H11        -0.0328    1.7592    1.9457 H         1 <0>         0.4091
@<TRIPOS>BOND
     1    1    6 1
     2    1    2 2
     3    1   23 1
     4    2    3 1
     5    2    8 1
     6    3    5 2
     7    4    6 1
     8    5    7 1
     9    5    6 1
    10    7   24 1
    11    7   25 1
    12    8    9 1
    13    8   16 1
    14    8   10 1
    15   10   11 1
    16   10   26 1
    17   10   27 1
    18   11   12 1
    19   11   28 1
    20   11   29 1
    21   12   13 am
    22   12   30 1
    23   13   14 2
    24   13   15 1
    25   15   19 1
    26   15   16 2
    27   16   17 1
    28   17   18 2
    29   17   22 1
    30   18   19 1
    31   18   21 1
    32   19   20 1
@<TRIPOS>MOLECULE
ZINC03814434
   62    69     0     0     0
SMALL
USER_CHARGES

@<TRIPOS>ATOM
      1 C1         -0.1295    1.5952   -0.2973 C.3       1 <0>        -0.1687
      2 C2         -0.0862    0.0696   -0.1900 C.3       1 <0>         0.3342
      3 C3          0.5692   -0.4501   -1.4637 C.3       1 <0>         0.0405
      4 H1          1.4796    0.1159   -1.6612 H         1 <0>         0.1372
      5 C4          0.9167   -1.9328   -1.2889 C.3       1 <0>        -0.0061
      6 H2          1.3963   -2.3075   -2.1932 H         1 <0>         0.1555
      7 C5          1.8785   -2.0596   -0.1021 C.3       1 <0>        -0.1827
      8 C6          1.2061   -1.5198    1.1541 C.3       1 <0>         0.2999
      9 H3          1.9797   -1.4243    1.9161 H         1 <0>         0.1550
     10 O1          0.6555   -0.2442    0.9666 O.3       1 <0>        -0.3234
     11 N1          0.2189   -2.4746    1.6600 N.pl3     1 <0>        -0.5366
     12 C7          0.4705   -3.5508    2.4739 C.ar      1 <0>         0.1469
     13 C8          1.6649   -4.0152    3.0240 C.ar      1 <0>        -0.1522
     14 C9          1.5948   -5.1456    3.8201 C.ar      1 <0>        -0.0582
     15 C10         0.4006   -5.7997    4.0696 C.ar      1 <0>        -0.1457
     16 C11        -0.7984   -5.3597    3.5358 C.ar      1 <0>        -0.0280
     17 C12        -0.7487   -4.2198    2.7307 C.ar      1 <0>        -0.1131
     18 C13        -1.7893   -3.4830    2.0197 C.ar      1 <0>         0.0276
     19 C14        -1.1442   -2.4197    1.3841 C.ar      1 <0>         0.0376
     20 C15        -1.8806   -1.5095    0.6175 C.ar      1 <0>         0.0894
     21 N2         -1.4718   -0.3951   -0.1095 N.pl3     1 <0>        -0.5183
     22 C16        -2.5611    0.1913   -0.7090 C.ar      1 <0>         0.1618
     23 C17        -2.6521    1.3277   -1.5118 C.ar      1 <0>        -0.1305
     24 C18        -3.9109    1.6745   -1.9733 C.ar      1 <0>        -0.0737
     25 C19        -5.0393    0.9368   -1.6616 C.ar      1 <0>        -0.1358
     26 C20        -4.9745   -0.1955   -0.8662 C.ar      1 <0>        -0.0503
     27 C21        -3.7147   -0.5596   -0.3919 C.ar      1 <0>        -0.1042
     28 C22        -3.2693   -1.6660    0.4845 C.ar      1 <0>        -0.0360
     29 C23        -3.9084   -2.7313    1.1102 C.ar      1 <0>        -0.0288
     30 C24        -3.1873   -3.6421    1.8754 C.ar      1 <0>        -0.1255
     31 C25        -4.1221   -4.6480    2.4030 C.2       1 <0>         0.5632
     32 O2         -3.8062   -5.5851    3.1110 O.2       1 <0>        -0.5106
     33 N3         -5.3744   -4.3851    1.9926 N.am      1 <0>        -0.7162
     34 C26        -5.3495   -3.1771    1.1601 C.3       1 <0>         0.1358
     35 N4         -0.3067   -2.7008   -1.0216 N.4       1 <0>        -0.5252
     36 C27         0.0145   -4.1336   -0.9773 C.3       1 <0>        -0.0497
     37 O3         -0.3340   -0.2979   -2.5607 O.3       1 <0>        -0.3614
     38 C28         0.3101   -0.0933   -3.8198 C.3       1 <0>         0.0162
     39 H4          0.8261    2.0094    0.0240 H         1 <0>         0.0984
     40 H5         -0.3202    1.8814   -1.3317 H         1 <0>         0.1036
     41 H6         -0.9255    1.9818    0.3392 H         1 <0>         0.0921
     42 H7          2.1370   -3.1081    0.0458 H         1 <0>         0.1233
     43 H8          2.7835   -1.4869   -0.3048 H         1 <0>         0.1455
     44 H9          2.6036   -3.5149    2.8368 H         1 <0>         0.1365
     45 H10         2.5026   -5.5304    4.2610 H         1 <0>         0.1359
     46 H11         0.4045   -6.6780    4.6980 H         1 <0>         0.1352
     47 H12        -1.7278   -5.8736    3.7323 H         1 <0>         0.1600
     48 H13        -1.7792    1.9122   -1.7624 H         1 <0>         0.1440
     49 H14        -4.0153    2.5500   -2.5970 H         1 <0>         0.1336
     50 H15        -5.9967    1.2527   -2.0488 H         1 <0>         0.1332
     51 H16        -5.8575   -0.7687   -0.6249 H         1 <0>         0.1415
     52 H17        -6.1628   -4.9065    2.2103 H         1 <0>         0.4348
     53 H18        -5.9671   -2.3994    1.6094 H         1 <0>         0.1115
     54 H19        -5.7060   -3.4063    0.1559 H         1 <0>         0.1103
     55 H20        -0.6958   -2.4158   -0.1353 H         1 <0>         0.4186
     56 H21         0.4349   -4.4415   -1.9347 H         1 <0>         0.1256
     57 H22         0.7403   -4.3189   -0.1854 H         1 <0>         0.1191
     58 H23        -0.8932   -4.7035   -0.7789 H         1 <0>         0.1256
     59 H24         0.9168    0.8112   -3.7748 H         1 <0>         0.0633
     60 H25         0.9482   -0.9479   -4.0446 H         1 <0>         0.0514
     61 H26        -0.4433    0.0130   -4.6003 H         1 <0>         0.1100
     62 H27        -0.9785   -2.5293   -1.7546 H         1 <0>         0.4274
@<TRIPOS>BOND
     1    1    2 1
     2    1   39 1
     3    1   40 1
     4    1   41 1
     5    2   10 1
     6    2   21 1
     7    2    3 1
     8    3    4 1
     9    3    5 1
    10    3   37 1
    11    5    6 1
    12    5    7 1
    13    5   35 1
    14    7    8 1
    15    7   42 1
    16    7   43 1
    17    8    9 1
    18    8   10 1
    19    8   11 1
    20   11   19 1
    21   11   12 1
    22   12   17 ar
    23   12   13 ar
    24   13   14 ar
    25   13   44 1
    26   14   15 ar
    27   14   45 1
    28   15   16 ar
    29   15   46 1
    30   16   17 ar
    31   16   47 1
    32   17   18 1
    33   18   30 ar
    34   18   19 ar
    35   19   20 ar
    36   20   28 ar
    37   20   21 1
    38   21   22 1
    39   22   27 ar
    40   22   23 ar
    41   23   24 ar
    42   23   48 1
    43   24   25 ar
    44   24   49 1
    45   25   26 ar
    46   25   50 1
    47   26   27 ar
    48   26   51 1
    49   27   28 1
    50   28   29 ar
    51   29   34 1
    52   29   30 ar
    53   30   31 1
    54   31   32 2
    55   31   33 am
    56   33   34 1
    57   33   52 1
    58   34   53 1
    59   34   54 1
    60   35   36 1
    61   35   55 1
    62   35   62 1
    63   36   56 1
    64   36   57 1
    65   36   58 1
    66   37   38 1
    67   38   59 1
    68   38   60 1
    69   38   61 1
@<TRIPOS>MOLECULE
ZINC14852066
   48    49     0     0     0
SMALL
USER_CHARGES

@<TRIPOS>ATOM
      1 C1         -0.0187    1.5258    0.0104 C.3       1 <0>        -0.1902
      2 C2          0.0021   -0.0041    0.0020 C.3       1 <0>         0.1099
      3 H1         -1.0213   -0.3792    0.0098 H         1 <0>         0.1225
      4 C3          0.7117   -0.4941   -1.2603 C.3       1 <0>        -0.1315
      5 C4          1.3803    0.6570   -1.9583 C.2       1 <0>        -0.0692
      6 C5          2.7017    0.8181   -1.8493 C.2       1 <0>        -0.2242
      7 C6          3.3680    1.9252   -2.5435 C.2       1 <0>         0.3696
      8 O1          2.7115    2.7060   -3.2003 O.2       1 <0>        -0.4479
      9 C7          4.8559    2.0998   -2.4470 C.3       1 <0>         0.0704
     10 H2          5.3262    1.1283   -2.2950 H         1 <0>         0.0907
     11 C8          5.1895    3.0179   -1.2680 C.3       1 <0>         0.1256
     12 H3          5.7479    3.8823   -1.6273 H         1 <0>         0.0798
     13 C9          6.0360    2.2514   -0.2480 C.3       1 <0>        -0.1248
     14 C10         5.2825    2.1507    1.0538 C.2       1 <0>        -0.1283
     15 C11         4.6042    1.0526    1.3362 C.2       1 <0>        -0.1087
     16 C12         3.8388    0.8902    2.5804 C.ar      1 <0>         0.0721
     17 C13         4.3861    1.3164    3.7898 C.ar      1 <0>        -0.1728
     18 C14         3.6817    1.1455    4.9738 C.ar      1 <0>         0.1859
     19 C15         2.4255    0.5534    4.9682 C.ar      1 <0>        -0.2571
     20 C16         1.8630    0.1324    3.7761 C.ar      1 <0>         0.2113
     21 C17         2.5606    0.2946    2.5690 C.ar      1 <0>        -0.2000
     22 C18         1.9781   -0.1421    1.2956 C.2       1 <0>         0.5268
     23 O2          2.6973   -0.2041    0.3174 O.2       1 <0>        -0.4835
     24 O3          0.6878   -0.4748    1.1642 O.3       1 <0>        -0.3491
     25 O4          0.6328   -0.4392    3.7740 O.3       1 <0>        -0.4807
     26 O5          4.2252    1.5601    6.1463 O.3       1 <0>        -0.3078
     27 C19         3.4497    1.3557    7.3291 C.3       1 <0>         0.0221
     28 O6          3.9788    3.4568   -0.6486 O.3       1 <0>        -0.5534
     29 O7          5.3461    2.6819   -3.6565 O.3       1 <0>        -0.5470
     30 H4          1.0039    1.9031    0.0027 H         1 <0>         0.0708
     31 H5         -0.5459    1.8868   -0.8726 H         1 <0>         0.0797
     32 H6         -0.5289    1.8773    0.9072 H         1 <0>         0.0648
     33 H7          1.4619   -1.2365   -0.9879 H         1 <0>         0.1008
     34 H8         -0.0172   -0.9492   -1.9309 H         1 <0>         0.0831
     35 H9          0.7985    1.3591   -2.5388 H         1 <0>         0.1164
     36 H10         3.2734    0.1369   -1.2412 H         1 <0>         0.1643
     37 H11         6.2432    1.2504   -0.6265 H         1 <0>         0.0830
     38 H12         6.9752    2.7800   -0.0845 H         1 <0>         0.0857
     39 H13         5.2989    2.9862    1.7379 H         1 <0>         0.1128
     40 H14         4.6552    0.2260    0.6308 H         1 <0>         0.1420
     41 H15         5.3612    1.7805    3.8056 H         1 <0>         0.1441
     42 H16         1.8873    0.4210    5.8951 H         1 <0>         0.1447
     43 H17        -0.0933    0.1904    3.6668 H         1 <0>         0.4007
     44 H18         2.5035    1.8894    7.2399 H         1 <0>         0.0607
     45 H19         3.2556    0.2907    7.4566 H         1 <0>         0.0615
     46 H20         3.9986    1.7309    8.1928 H         1 <0>         0.1065
     47 H21         4.1144    4.0435    0.1081 H         1 <0>         0.3819
     48 H22         5.1714    2.1527   -4.4467 H         1 <0>         0.3861
@<TRIPOS>BOND
     1    1    2 1
     2    1   30 1
     3    1   31 1
     4    1   32 1
     5    2    3 1
     6    2   24 1
     7    2    4 1
     8    4    5 1
     9    4   33 1
    10    4   34 1
    11    5    6 2
    12    5   35 1
    13    6    7 1
    14    6   36 1
    15    7    8 2
    16    7    9 1
    17    9   10 1
    18    9   11 1
    19    9   29 1
    20   11   12 1
    21   11   13 1
    22   11   28 1
    23   13   14 1
    24   13   37 1
    25   13   38 1
    26   14   15 2
    27   14   39 1
    28   15   16 1
    29   15   40 1
    30   16   21 ar
    31   16   17 ar
    32   17   18 ar
    33   17   41 1
    34   18   19 ar
    35   18   26 1
    36   19   20 ar
    37   19   42 1
    38   20   21 ar
    39   20   25 1
    40   21   22 1
    41   22   23 2
    42   22   24 1
    43   25   43 1
    44   26   27 1
    45   27   44 1
    46   27   45 1
    47   27   46 1
    48   28   47 1
    49   29   48 1
@<TRIPOS>MOLECULE
ZINC14852066
   48    49     0     0     0
SMALL
USER_CHARGES

@<TRIPOS>ATOM
      1 C1         -0.0187    1.5258    0.0104 C.3       1 <0>        -0.1782
      2 C2          0.0021   -0.0041    0.0020 C.3       1 <0>         0.1059
      3 H1         -1.0202   -0.3821    0.0097 H         1 <0>         0.1065
      4 C3          0.7214   -0.4993   -1.2571 C.3       1 <0>        -0.2337
      5 C4          0.9926    0.6676   -2.1719 C.2       1 <0>        -0.0239
      6 C5          2.2327    0.8804   -2.6274 C.2       1 <0>        -0.2524
      7 C6          3.3216   -0.0106   -2.2391 C.2       1 <0>         0.3565
      8 O1          3.0972   -0.9579   -1.5151 O.2       1 <0>        -0.3921
      9 C7          4.7243    0.2403   -2.7329 C.3       1 <0>         0.0775
     10 H2          4.6903    0.5739   -3.7700 H         1 <0>         0.0902
     11 C8          5.5353   -1.0528   -2.6394 C.3       1 <0>         0.1183
     12 H3          4.8562   -1.9036   -2.5842 H         1 <0>         0.0767
     13 C9          6.4150   -1.0217   -1.3875 C.3       1 <0>        -0.1211
     14 C10         5.7492   -1.8245   -0.2972 C.2       1 <0>        -0.1407
     15 C11         4.7118   -1.3199    0.3472 C.2       1 <0>        -0.1201
     16 C12         4.0408   -2.0709    1.4214 C.ar      1 <0>         0.0738
     17 C13         4.7005   -3.0796    2.1095 C.ar      1 <0>        -0.1758
     18 C14         4.0463   -3.7677    3.1229 C.ar      1 <0>         0.1867
     19 C15         2.7421   -3.4458    3.4552 C.ar      1 <0>        -0.2633
     20 C16         2.0660   -2.4427    2.7907 C.ar      1 <0>         0.2133
     21 C17         2.7063   -1.7502    1.7571 C.ar      1 <0>        -0.2009
     22 C18         2.0150   -0.7034    1.0028 C.2       1 <0>         0.5163
     23 O2          2.6441   -0.0218    0.2169 O.2       1 <0>        -0.4694
     24 O3          0.6975   -0.4800    1.1622 O.3       1 <0>        -0.3396
     25 O4          0.7918   -2.1312    3.1363 O.3       1 <0>        -0.4793
     26 O5          4.6885   -4.7601    3.7898 O.3       1 <0>        -0.3082
     27 C19         3.9578   -5.4273    4.8208 C.3       1 <0>         0.0226
     28 O6          6.3629   -1.1796   -3.7975 O.3       1 <0>        -0.5677
     29 O7          5.3395    1.2482   -1.9281 O.3       1 <0>        -0.5329
     30 H4          1.0039    1.9031    0.0027 H         1 <0>         0.0702
     31 H5         -0.5459    1.8868   -0.8726 H         1 <0>         0.0718
     32 H6         -0.5289    1.8773    0.9072 H         1 <0>         0.0632
     33 H7          1.6646   -0.9678   -0.9763 H         1 <0>         0.1854
     34 H8          0.0935   -1.2264   -1.7721 H         1 <0>         0.0805
     35 H9          0.1918    1.3244   -2.4742 H         1 <0>         0.1212
     36 H10         2.4263    1.7062   -3.2931 H         1 <0>         0.1283
     37 H11         7.3892   -1.4544   -1.6156 H         1 <0>         0.0742
     38 H12         6.5412    0.0090   -1.0560 H         1 <0>         0.1072
     39 H13         6.1067   -2.8144   -0.0623 H         1 <0>         0.1057
     40 H14         4.3547   -0.3298    0.0969 H         1 <0>         0.1711
     41 H15         5.7205   -3.3292    1.8570 H         1 <0>         0.1430
     42 H16         2.2456   -3.9881    4.2463 H         1 <0>         0.1411
     43 H17         0.7249   -1.4505    3.8198 H         1 <0>         0.3997
     44 H18         3.6630   -4.7055    5.5826 H         1 <0>         0.0602
     45 H19         3.0675   -5.8894    4.3943 H         1 <0>         0.0606
     46 H20         4.5854   -6.1958    5.2719 H         1 <0>         0.1057
     47 H21         6.9070   -1.9789   -3.8064 H         1 <0>         0.3845
     48 H22         4.8770    2.0973   -1.9394 H         1 <0>         0.3814
@<TRIPOS>BOND
     1    1    2 1
     2    1   30 1
     3    1   31 1
     4    1   32 1
     5    2    3 1
     6    2   24 1
     7    2    4 1
     8    4    5 1
     9    4   33 1
    10    4   34 1
    11    5    6 2
    12    5   35 1
    13    6    7 1
    14    6   36 1
    15    7    8 2
    16    7    9 1
    17    9   10 1
    18    9   11 1
    19    9   29 1
    20   11   12 1
    21   11   13 1
    22   11   28 1
    23   13   14 1
    24   13   37 1
    25   13   38 1
    26   14   15 2
    27   14   39 1
    28   15   16 1
    29   15   40 1
    30   16   21 ar
    31   16   17 ar
    32   17   18 ar
    33   17   41 1
    34   18   19 ar
    35   18   26 1
    36   19   20 ar
    37   19   42 1
    38   20   21 ar
    39   20   25 1
    40   21   22 1
    41   22   23 2
    42   22   24 1
    43   25   43 1
    44   26   27 1
    45   27   44 1
    46   27   45 1
    47   27   46 1
    48   28   47 1
    49   29   48 1
@<TRIPOS>MOLECULE
ZINC14959960
   46    47     0     0     0
SMALL
USER_CHARGES

@<TRIPOS>ATOM
      1 C1          2.8824   -6.4072    4.7168 C.3       1 <0>        -0.1552
      2 C2          2.1528   -5.8740    3.4821 C.3       1 <0>         0.0698
      3 O1          2.1422   -4.4455    3.5150 O.3       1 <0>        -0.2974
      4 C3          1.5303   -3.8111    2.4862 C.ar      1 <0>         0.4422
      5 C4          1.4912   -2.4091    2.4579 C.ar      1 <0>        -0.2167
      6 C5          0.8492   -1.7688    1.3776 C.ar      1 <0>         0.3538
      7 C6          0.2819   -2.5616    0.3859 C.ar      1 <0>        -0.3271
      8 C7          0.3649   -3.9424    0.4899 C.ar      1 <0>         0.4673
      9 N1          0.9799   -4.5179    1.5150 N.ar      1 <0>        -0.5640
     10 N2         -0.2018   -4.7376   -0.5010 N.am      1 <0>        -0.6596
     11 C8         -0.0402   -6.0752   -0.4661 C.2       1 <0>         0.5088
     12 O2          0.5194   -6.5939    0.4765 O.2       1 <0>        -0.4507
     13 C9         -0.5549   -6.9261   -1.5983 C.3       1 <0>        -0.0901
     14 C10        -0.2496   -8.3748   -1.3169 C.ar      1 <0>        -0.0653
     15 C11         0.8944   -8.9525   -1.8328 C.ar      1 <0>        -0.0983
     16 C12         1.1756  -10.2855   -1.5735 C.ar      1 <0>         0.0937
     17 C13         0.3082  -11.0388   -0.7960 C.ar      1 <0>        -0.1638
     18 C14        -0.8354  -10.4613   -0.2803 C.ar      1 <0>        -0.1672
     19 C15        -1.1140   -9.1265   -0.5354 C.ar      1 <0>         0.1111
     20 O3         -2.2372   -8.5563   -0.0229 O.3       1 <0>        -0.3149
     21 C16        -3.0823   -9.3894    0.7732 C.3       1 <0>         0.0284
     22 O4          2.3014  -10.8542   -2.0817 O.3       1 <0>        -0.3174
     23 C17         2.5280  -12.2313   -1.7744 C.3       1 <0>         0.0276
     24 N3          0.7849   -0.3856    1.3065 N.pl3     1 <0>        -0.8432
     25 C18         2.0920   -1.6418    3.5072 C.1       1 <0>         0.2733
     26 N4          2.5686   -1.0332    4.3395 N.1       1 <0>        -0.4293
     27 H1          2.3690   -6.0683    5.6167 H         1 <0>         0.0639
     28 H2          2.8905   -7.4969    4.6917 H         1 <0>         0.0806
     29 H3          3.9073   -6.0362    4.7217 H         1 <0>         0.0643
     30 H4          2.6662   -6.2129    2.5823 H         1 <0>         0.0746
     31 H5          1.1279   -6.2450    3.4773 H         1 <0>         0.0734
     32 H6         -0.2184   -2.1070   -0.4564 H         1 <0>         0.1464
     33 H7         -0.7132   -4.3294   -1.2170 H         1 <0>         0.4216
     34 H8         -1.6327   -6.7935   -1.6917 H         1 <0>         0.1130
     35 H9         -0.0701   -6.6265   -2.5275 H         1 <0>         0.1091
     36 H10         1.5696   -8.3661   -2.4384 H         1 <0>         0.1371
     37 H11         0.5270  -12.0770   -0.5944 H         1 <0>         0.1309
     38 H12        -1.5111  -11.0479    0.3244 H         1 <0>         0.1316
     39 H13        -3.4285  -10.2326    0.1754 H         1 <0>         0.0547
     40 H14        -2.5230   -9.7587    1.6327 H         1 <0>         0.0549
     41 H15        -3.9401   -8.8124    1.1185 H         1 <0>         0.0997
     42 H16         3.4575  -12.5592   -2.2399 H         1 <0>         0.1005
     43 H17         2.5992  -12.3555   -0.6939 H         1 <0>         0.0547
     44 H18         1.7002  -12.8295   -2.1552 H         1 <0>         0.0545
     45 H19         1.1847    0.1551    2.0056 H         1 <0>         0.4070
     46 H20         0.3401    0.0415    0.5577 H         1 <0>         0.4117
@<TRIPOS>BOND
     1    1    2 1
     2    1   27 1
     3    1   28 1
     4    1   29 1
     5    2    3 1
     6    2   30 1
     7    2   31 1
     8    3    4 1
     9    4    9 ar
    10    4    5 ar
    11    5    6 ar
    12    5   25 1
    13    6    7 ar
    14    6   24 1
    15    7    8 ar
    16    7   32 1
    17    8    9 ar
    18    8   10 1
    19   10   11 am
    20   10   33 1
    21   11   12 2
    22   11   13 1
    23   13   14 1
    24   13   34 1
    25   13   35 1
    26   14   19 ar
    27   14   15 ar
    28   15   16 ar
    29   15   36 1
    30   16   17 ar
    31   16   22 1
    32   17   18 ar
    33   17   37 1
    34   18   19 ar
    35   18   38 1
    36   19   20 1
    37   20   21 1
    38   21   39 1
    39   21   40 1
    40   21   41 1
    41   22   23 1
    42   23   42 1
    43   23   43 1
    44   23   44 1
    45   24   45 1
    46   24   46 1
    47   25   26 3
@<TRIPOS>MOLECULE
ZINC14960076
   52    53     0     0     0
SMALL
USER_CHARGES

@<TRIPOS>ATOM
      1 C1         -5.4208   -6.4939    0.0106 C.3       1 <0>        -0.1557
      2 C2         -3.9952   -5.9383    0.0069 C.3       1 <0>         0.0698
      3 O1         -4.0406   -4.5100    0.0098 O.3       1 <0>        -0.2967
      4 C3         -2.8538   -3.8570    0.0071 C.ar      1 <0>         0.4427
      5 C4         -2.8315   -2.4543    0.0154 C.ar      1 <0>        -0.2150
      6 C5         -1.5851   -1.7943    0.0124 C.ar      1 <0>         0.3541
      7 C6         -0.4304   -2.5691    0.0013 C.ar      1 <0>        -0.3262
      8 C7         -0.5404   -3.9520   -0.0065 C.ar      1 <0>         0.4657
      9 N1         -1.7265   -4.5463    0.0020 N.ar      1 <0>        -0.5647
     10 N2          0.6133   -4.7292   -0.0176 N.am      1 <0>        -0.6585
     11 C8          0.5231   -6.0705    0.0781 C.2       1 <0>         0.5096
     12 O2         -0.5647   -6.6065    0.0809 O.2       1 <0>        -0.4490
     13 C9          1.7742   -6.9043    0.1815 C.3       1 <0>        -0.1005
     14 C10         1.4005   -8.3612    0.2762 C.ar      1 <0>        -0.0097
     15 C11         1.2846   -8.9656    1.5131 C.ar      1 <0>        -0.1732
     16 C12         0.9402  -10.3061    1.6002 C.ar      1 <0>         0.1867
     17 C13         0.7121  -11.0401    0.4454 C.ar      1 <0>        -0.6495
     18 C14         0.8280  -10.4359   -0.7910 C.ar      1 <0>        -0.0768
     19 C15         1.1673   -9.0936   -0.8780 C.ar      1 <0>         0.0953
     20 O3          1.2759   -8.4973   -2.0953 O.3       1 <0>        -0.3118
     21 C16         1.0218   -9.3117   -3.2417 C.3       1 <0>         0.0217
     22 S1          0.2752  -12.7435    0.5561 S.o2      1 <0>         2.5043
     23 O4         -0.8080  -12.7810    1.4752 O.2       1 <0>        -0.9229
     24 O5          0.0973  -13.1605   -0.7906 O.2       1 <0>        -0.9428
     25 C17         1.7316  -13.5527    1.2736 C.3       1 <0>        -0.6470
     26 O6          0.8266  -10.9012    2.8177 O.3       1 <0>        -0.3136
     27 C18         1.0761  -10.0856    3.9642 C.3       1 <0>         0.0242
     28 N3         -1.5129   -0.4096    0.0200 N.pl3     1 <0>        -0.8428
     29 C19        -4.0524   -1.7060    0.0263 C.1       1 <0>         0.2721
     30 N4         -5.0209   -1.1124    0.0350 N.1       1 <0>        -0.4271
     31 H1         -5.3861   -7.5834    0.0084 H         1 <0>         0.0821
     32 H2         -5.9429   -6.1488    0.9030 H         1 <0>         0.0644
     33 H3         -5.9488   -6.1454   -0.8769 H         1 <0>         0.0644
     34 H4         -3.4671   -6.2868    0.8945 H         1 <0>         0.0741
     35 H5         -3.4730   -6.2834   -0.8854 H         1 <0>         0.0737
     36 H6          0.5420   -2.0992   -0.0017 H         1 <0>         0.1465
     37 H7          1.4826   -4.3058   -0.0943 H         1 <0>         0.4220
     38 H8          2.3916   -6.7443   -0.7024 H         1 <0>         0.1190
     39 H9          2.3319   -6.6137    1.0718 H         1 <0>         0.1121
     40 H10         1.4625   -8.3942    2.4121 H         1 <0>         0.1445
     41 H11         0.6511  -11.0075   -1.6901 H         1 <0>         0.1580
     42 H12         1.7256  -10.1438   -3.2594 H         1 <0>         0.0597
     43 H13         0.0036   -9.6979   -3.1945 H         1 <0>         0.0602
     44 H14         1.1424   -8.7145   -4.1455 H         1 <0>         0.1043
     45 H15         1.9385  -13.1250    2.2545 H         1 <0>         0.1355
     46 H16         1.5402  -14.6209    1.3760 H         1 <0>         0.1332
     47 H17         2.5911  -13.3985    0.6213 H         1 <0>         0.1298
     48 H18         0.9517  -10.6818    4.8682 H         1 <0>         0.1097
     49 H19         2.0945   -9.6995    3.9208 H         1 <0>         0.0613
     50 H20         0.3723   -9.2533    3.9782 H         1 <0>         0.0633
     51 H21        -2.3266    0.1184    0.0274 H         1 <0>         0.4074
     52 H22        -0.6488    0.0310    0.0178 H         1 <0>         0.4118
@<TRIPOS>BOND
     1    1    2 1
     2    1   31 1
     3    1   32 1
     4    1   33 1
     5    2    3 1
     6    2   34 1
     7    2   35 1
     8    3    4 1
     9    4    9 ar
    10    4    5 ar
    11    5    6 ar
    12    5   29 1
    13    6    7 ar
    14    6   28 1
    15    7    8 ar
    16    7   36 1
    17    8    9 ar
    18    8   10 1
    19   10   11 am
    20   10   37 1
    21   11   12 2
    22   11   13 1
    23   13   14 1
    24   13   38 1
    25   13   39 1
    26   14   19 ar
    27   14   15 ar
    28   15   16 ar
    29   15   40 1
    30   16   17 ar
    31   16   26 1
    32   17   18 ar
    33   17   22 1
    34   18   19 ar
    35   18   41 1
    36   19   20 1
    37   20   21 1
    38   21   42 1
    39   21   43 1
    40   21   44 1
    41   22   23 2
    42   22   24 2
    43   22   25 1
    44   25   45 1
    45   25   46 1
    46   25   47 1
    47   26   27 1
    48   27   48 1
    49   27   49 1
    50   27   50 1
    51   28   51 1
    52   28   52 1
    53   29   30 3
@<TRIPOS>MOLECULE
ZINC20149026
   37    39     0     0     0
SMALL
USER_CHARGES

@<TRIPOS>ATOM
      1 C1         -0.0147    1.4264    0.1346 C.3       1 <0>         0.0858
      2 N1         -0.0046   -0.0308   -0.0158 N.am      1 <0>        -0.6250
      3 C2         -0.0164   -0.8897    1.1709 C.3       1 <0>         0.0635
      4 C3          0.0155   -0.5812   -1.2459 C.2       1 <0>         0.5896
      5 O1          0.1073    0.1298   -2.2292 O.2       1 <0>        -0.5217
      6 C4         -0.0734   -2.0376   -1.3994 C.2       1 <0>        -0.0578
      7 C5          0.0347   -2.7302   -2.5728 C.2       1 <0>        -0.0688
      8 C6         -0.1109   -4.0959   -2.2614 C.2       1 <0>        -0.1160
      9 C7         -0.3024   -4.1897   -0.9121 C.2       1 <0>         0.0660
     10 N2         -0.2745   -2.9477   -0.3862 N.pl3     1 <0>        -0.5408
     11 H1         -0.3813   -2.7309    0.5532 H         1 <0>         0.4222
     12 C8         -0.0651   -5.2257   -3.2227 C.2       1 <0>         0.1727
     13 C9          0.4631   -6.5163   -2.9695 C.2       1 <0>        -0.1990
     14 C10         0.3121   -7.2510   -4.1076 C.2       1 <0>         0.0766
     15 N3         -0.2800   -6.4659   -5.0304 N.pl3     1 <0>        -0.4717
     16 H2         -0.5095   -6.7285   -5.9355 H         1 <0>         0.4434
     17 N4         -0.5124   -5.2093   -4.4587 N.2       1 <0>        -0.2823
     18 C11         1.0698   -6.9823   -1.6983 C.ar      1 <0>         0.0002
     19 C12         2.0551   -6.2206   -1.0732 C.ar      1 <0>        -0.1041
     20 C13         2.6158   -6.6586    0.1094 C.ar      1 <0>        -0.1193
     21 C14         2.2016   -7.8514    0.6741 C.ar      1 <0>        -0.1249
     22 C15         1.2242   -8.6118    0.0577 C.ar      1 <0>        -0.1185
     23 C16         0.6523   -8.1803   -1.1220 C.ar      1 <0>        -0.1148
     24 H3          1.0104    1.7935    0.1861 H         1 <0>         0.0585
     25 H4         -0.5192    1.8765   -0.7205 H         1 <0>         0.0799
     26 H5         -0.5428    1.6936    1.0499 H         1 <0>         0.0725
     27 H6          0.0705   -0.2739    2.0661 H         1 <0>         0.0926
     28 H7         -0.9508   -1.4499    1.2047 H         1 <0>         0.0609
     29 H8          0.8222   -1.5844    1.1250 H         1 <0>         0.0692
     30 H9          0.2002   -2.3095   -3.5536 H         1 <0>         0.1520
     31 H10        -0.4477   -5.1054   -0.3583 H         1 <0>         0.1756
     32 H11         0.6136   -8.2788   -4.2459 H         1 <0>         0.1798
     33 H12         2.3798   -5.2894   -1.5136 H         1 <0>         0.1218
     34 H13         3.3795   -6.0690    0.5947 H         1 <0>         0.1202
     35 H14         2.6432   -8.1906    1.5994 H         1 <0>         0.1194
     36 H15         0.9050   -9.5427    0.5026 H         1 <0>         0.1213
     37 H16        -0.1140   -8.7725   -1.6001 H         1 <0>         0.1208
@<TRIPOS>BOND
     1    1    2 1
     2    1   24 1
     3    1   25 1
     4    1   26 1
     5    2    3 1
     6    2    4 am
     7    3   27 1
     8    3   28 1
     9    3   29 1
    10    4    5 2
    11    4    6 1
    12    6   10 1
    13    6    7 2
    14    7    8 1
    15    7   30 1
    16    8    9 2
    17    8   12 1
    18    9   10 1
    19    9   31 1
    20   10   11 1
    21   12   17 2
    22   12   13 1
    23   13   14 2
    24   13   18 1
    25   14   15 1
    26   14   32 1
    27   15   16 1
    28   15   17 1
    29   18   23 ar
    30   18   19 ar
    31   19   20 ar
    32   19   33 1
    33   20   21 ar
    34   20   34 1
    35   21   22 ar
    36   21   35 1
    37   22   23 ar
    38   22   36 1
    39   23   37 1
@<TRIPOS>MOLECULE
ZINC14959283
   48    51     0     0     0
SMALL
USER_CHARGES

@<TRIPOS>ATOM
      1 C1          0.4585    0.4884    0.9561 C.ar      1 <0>        -0.1053
      2 C2          1.6076    1.2518    1.0011 C.ar      1 <0>        -0.0998
      3 C3          2.4549    1.2978   -0.1049 C.ar      1 <0>         0.0179
      4 C4          2.1363    0.5716   -1.2514 C.ar      1 <0>        -0.1040
      5 C5          0.9840   -0.1888   -1.2854 C.ar      1 <0>        -0.0323
      6 C6          0.1465   -0.2303   -0.1835 C.ar      1 <0>        -0.1157
      7 Cl1         0.5845   -1.0937   -2.7121 Cl        1 <0>        -0.0709
      8 C7          3.6902    2.1165   -0.0621 C.2       1 <0>        -0.2042
      9 C8          4.0508    3.1299   -0.9685 C.2       1 <0>         0.0722
     10 N1          5.2047    3.6215   -0.6039 N.2       1 <0>        -0.2870
     11 N2          5.6429    2.9556    0.5466 N.pl3     1 <0>        -0.4647
     12 H1          6.4701    3.1267    1.0233 H         1 <0>         0.4423
     13 C9          4.7029    2.0294    0.8832 C.2       1 <0>         0.1920
     14 C10         4.7529    1.1045    2.0356 C.2       1 <0>        -0.1450
     15 C11         5.0814    1.4409    3.3654 C.2       1 <0>        -0.0772
     16 C12         5.0056    0.2925    4.1007 C.2       1 <0>        -0.0519
     17 N3          4.6408   -0.7344    3.2595 N.pl3     1 <0>        -0.5281
     18 H2          4.5146   -1.6594    3.5227 H         1 <0>         0.4216
     19 C13         4.4814   -0.2472    2.0125 C.2       1 <0>         0.0829
     20 C14         5.2686    0.1735    5.5394 C.2       1 <0>         0.5932
     21 O1          5.5864    1.1561    6.1831 O.2       1 <0>        -0.5224
     22 N4          5.1581   -1.0240    6.1478 N.am      1 <0>        -0.7201
     23 C15         5.4207   -1.1428    7.5842 C.3       1 <0>         0.1954
     24 H3          6.2206   -0.4578    7.8652 H         1 <0>         0.1177
     25 C16         4.1522   -0.7935    8.3651 C.3       1 <0>         0.0664
     26 O2          3.1386   -1.7610    8.0848 O.3       1 <0>        -0.5688
     27 C17         5.8343   -2.5562    7.9041 C.ar      1 <0>        -0.0920
     28 C18         5.2054   -3.6178    7.2801 C.ar      1 <0>        -0.0587
     29 C19         5.5837   -4.9146    7.5718 C.ar      1 <0>        -0.1405
     30 C20         6.5930   -5.1512    8.4895 C.ar      1 <0>         0.1156
     31 C21         7.2227   -4.0870    9.1144 C.ar      1 <0>        -0.0734
     32 C22         6.8457   -2.7899    8.8166 C.ar      1 <0>        -0.0703
     33 Cl2         8.4886   -4.3811   10.2654 Cl        1 <0>        -0.0420
     34 F1          6.9631   -6.4186    8.7757 F         1 <0>        -0.1235
     35 H4         -0.1960    0.4488    1.8142 H         1 <0>         0.1305
     36 H5          1.8497    1.8128    1.8916 H         1 <0>         0.1269
     37 H6          2.7889    0.6038   -2.1113 H         1 <0>         0.1339
     38 H7         -0.7536   -0.8264   -0.2139 H         1 <0>         0.1311
     39 H8          3.4713    3.4477   -1.8226 H         1 <0>         0.1869
     40 H9          5.3438    2.4220    3.7330 H         1 <0>         0.1533
     41 H10         4.1925   -0.8188    1.1429 H         1 <0>         0.1806
     42 H11         4.9048   -1.8072    5.6347 H         1 <0>         0.3970
     43 H12         4.3709   -0.7953    9.4330 H         1 <0>         0.0614
     44 H13         3.8030    0.1952    8.0675 H         1 <0>         0.0614
     45 H14         2.3044   -1.6019    8.5471 H         1 <0>         0.3842
     46 H15         4.4178   -3.4335    6.5645 H         1 <0>         0.1388
     47 H16         5.0918   -5.7433    7.0843 H         1 <0>         0.1481
     48 H17         7.3392   -1.9597    9.3000 H         1 <0>         0.1467
@<TRIPOS>BOND
     1    1    6 ar
     2    1    2 ar
     3    1   35 1
     4    2    3 ar
     5    2   36 1
     6    3    4 ar
     7    3    8 1
     8    4    5 ar
     9    4   37 1
    10    5    6 ar
    11    5    7 1
    12    6   38 1
    13    8   13 2
    14    8    9 1
    15    9   10 2
    16    9   39 1
    17   10   11 1
    18   11   12 1
    19   11   13 1
    20   13   14 1
    21   14   19 2
    22   14   15 1
    23   15   16 2
    24   15   40 1
    25   16   17 1
    26   16   20 1
    27   17   18 1
    28   17   19 1
    29   19   41 1
    30   20   21 2
    31   20   22 am
    32   22   23 1
    33   22   42 1
    34   23   24 1
    35   23   25 1
    36   23   27 1
    37   25   26 1
    38   25   43 1
    39   25   44 1
    40   26   45 1
    41   27   32 ar
    42   27   28 ar
    43   28   29 ar
    44   28   46 1
    45   29   30 ar
    46   29   47 1
    47   30   31 ar
    48   30   34 1
    49   31   32 ar
    50   31   33 1
    51   32   48 1
@<TRIPOS>MOLECULE
ZINC14959283
   49    52     0     0     0
SMALL
USER_CHARGES

@<TRIPOS>ATOM
      1 C1         -0.0167    1.3786    0.0096 C.ar      1 <0>        -0.0967
      2 C2          1.1675    2.0879    0.0021 C.ar      1 <0>        -0.0879
      3 C3          2.3842    1.4084   -0.0131 C.ar      1 <0>        -0.0333
      4 C4          2.3983    0.0147   -0.0207 C.ar      1 <0>        -0.1010
      5 C5          1.2076   -0.6850   -0.0131 C.ar      1 <0>        -0.0379
      6 C6          0.0021   -0.0041    0.0020 C.ar      1 <0>        -0.0890
      7 Cl1         1.2224   -2.4210   -0.0230 Cl        1 <0>        -0.0476
      8 C7          3.6594    2.1656   -0.0217 C.2       1 <0>        -0.1688
      9 C8          4.1313    2.9757    0.9893 C.2       1 <0>         0.2175
     10 N1          5.3272    3.4891    0.6048 N.pl3     1 <0>        -0.4156
     11 N2          5.6312    3.0031   -0.6729 N.pl3     1 <0>        -0.4178
     12 C9          4.6115    2.1818   -1.0640 C.2       1 <0>         0.3543
     13 C10         4.5214    1.4565   -2.3298 C.2       1 <0>        -0.2069
     14 C11         5.4636    1.4581   -3.3749 C.2       1 <0>        -0.0583
     15 C12         4.9457    0.6289   -4.3604 C.2       1 <0>        -0.0530
     16 N3          3.7607    0.1510   -3.9424 N.pl3     1 <0>        -0.4675
     17 C13         3.4755    0.6084   -2.7487 C.2       1 <0>         0.1152
     18 C14         5.5863    0.3244   -5.6475 C.2       1 <0>         0.5876
     19 O1          6.6648    0.8163   -5.9216 O.2       1 <0>        -0.5126
     20 N4          4.9791   -0.4997   -6.5241 N.am      1 <0>        -0.7149
     21 C15         5.6177   -0.8032   -7.8072 C.3       1 <0>         0.1966
     22 H1          6.1531    0.0767   -8.1638 H         1 <0>         0.1200
     23 C16         6.6021   -1.9604   -7.6258 C.3       1 <0>         0.0658
     24 O2          5.8851   -3.1445   -7.2709 O.3       1 <0>        -0.5697
     25 C17         4.5648   -1.1923   -8.8128 C.ar      1 <0>        -0.0981
     26 C18         3.5001   -1.9853   -8.4262 C.ar      1 <0>        -0.0608
     27 C19         2.5334   -2.3427   -9.3469 C.ar      1 <0>        -0.1403
     28 C20         2.6309   -1.9066  -10.6572 C.ar      1 <0>         0.1198
     29 C21         3.6980   -1.1121  -11.0440 C.ar      1 <0>        -0.0732
     30 C22         4.6614   -0.7515  -10.1192 C.ar      1 <0>        -0.0690
     31 Cl2         3.8225   -0.5640  -12.6865 Cl        1 <0>        -0.0363
     32 F1          1.6866   -2.2559  -11.5581 F         1 <0>        -0.1206
     33 H2         -0.9598    1.9047    0.0260 H         1 <0>         0.1450
     34 H3          1.1512    3.1677    0.0077 H         1 <0>         0.1379
     35 H4          3.3383   -0.5169   -0.0328 H         1 <0>         0.1411
     36 H5         -0.9269   -0.5548    0.0079 H         1 <0>         0.1440
     37 H6          3.6336    3.1689    1.9281 H         1 <0>         0.2395
     38 H7          5.8788    4.0921    1.1273 H         1 <0>         0.4775
     39 H8          6.4270    3.2098   -1.1876 H         1 <0>         0.4750
     40 H9          6.3998    1.9957   -3.4044 H         1 <0>         0.1661
     41 H10         2.5861    0.3772   -2.1813 H         1 <0>         0.1968
     42 H11         4.1192   -0.8919   -6.3056 H         1 <0>         0.3972
     43 H12         7.1416   -2.1280   -8.5580 H         1 <0>         0.0654
     44 H13         7.3107   -1.7140   -6.8352 H         1 <0>         0.0601
     45 H14         6.4473   -3.9202   -7.1397 H         1 <0>         0.3870
     46 H15         3.4241   -2.3258   -7.4042 H         1 <0>         0.1368
     47 H16         1.7023   -2.9624   -9.0443 H         1 <0>         0.1492
     48 H17         5.4911   -0.1285  -10.4188 H         1 <0>         0.1472
     49 H18         3.1973   -0.4520   -4.4521 H         1 <0>         0.4341
@<TRIPOS>BOND
     1    1    6 ar
     2    1    2 ar
     3    1   33 1
     4    2    3 ar
     5    2   34 1
     6    3    4 ar
     7    3    8 1
     8    4    5 ar
     9    4   35 1
    10    5    6 ar
    11    5    7 1
    12    6   36 1
    13    8   12 1
    14    8    9 2
    15    9   10 1
    16    9   37 1
    17   10   11 1
    18   10   38 1
    19   11   12 1
    20   11   39 1
    21   12   13 2
    22   13   17 1
    23   13   14 1
    24   14   15 2
    25   14   40 1
    26   15   16 1
    27   15   18 1
    28   16   17 2
    29   16   49 1
    30   17   41 1
    31   18   19 2
    32   18   20 am
    33   20   21 1
    34   20   42 1
    35   21   22 1
    36   21   23 1
    37   21   25 1
    38   23   24 1
    39   23   43 1
    40   23   44 1
    41   24   45 1
    42   25   30 ar
    43   25   26 ar
    44   26   27 ar
    45   26   46 1
    46   27   28 ar
    47   27   47 1
    48   28   29 ar
    49   28   32 1
    50   29   30 ar
    51   29   31 1
    52   30   48 1
@<TRIPOS>MOLECULE
ZINC14959283
   48    51     0     0     0
SMALL
USER_CHARGES

@<TRIPOS>ATOM
      1 C1         -0.0167    1.3786    0.0096 C.ar      1 <0>        -0.1038
      2 C2          1.1676    2.0878    0.0021 C.ar      1 <0>        -0.1107
      3 C3          2.3840    1.4085   -0.0131 C.ar      1 <0>         0.0145
      4 C4          2.3983    0.0151   -0.0207 C.ar      1 <0>        -0.0967
      5 C5          1.2076   -0.6849   -0.0131 C.ar      1 <0>        -0.0327
      6 C6          0.0021   -0.0041    0.0020 C.ar      1 <0>        -0.1162
      7 Cl1         1.2227   -2.4208   -0.0230 Cl        1 <0>        -0.0703
      8 C7          3.6597    2.1660   -0.0217 C.2       1 <0>        -0.2031
      9 C8          3.9817    3.1931   -0.8578 C.2       1 <0>         0.0825
     10 N1          5.2257    3.6075   -0.5427 N.pl3     1 <0>        -0.4698
     11 N2          5.6983    2.8234    0.5164 N.2       1 <0>        -0.2802
     12 H1          5.7109    4.3266   -0.9767 H         1 <0>         0.4445
     13 C9          4.7639    1.9580    0.8421 C.2       1 <0>         0.1754
     14 C10         4.8515    0.9411    1.9196 C.2       1 <0>        -0.1178
     15 C11         6.0090    0.2429    2.3146 C.2       1 <0>        -0.0657
     16 C12         5.6459   -0.5903    3.3354 C.2       1 <0>        -0.0577
     17 N3          4.3004   -0.4148    3.5685 N.pl3     1 <0>        -0.5321
     18 H2          3.7794   -0.8811    4.2408 H         1 <0>         0.4194
     19 C13         3.8255    0.5150    2.7144 C.2       1 <0>         0.0728
     20 C14         6.5335   -1.5100    4.0557 C.2       1 <0>         0.5950
     21 O1          7.7114   -1.5775    3.7574 O.2       1 <0>        -0.5234
     22 N4          6.0445   -2.2801    5.0478 N.am      1 <0>        -0.7213
     23 C15         6.9308   -3.1985    5.7669 C.3       1 <0>         0.1953
     24 H3          7.6743   -3.5999    5.0783 H         1 <0>         0.1175
     25 C16         7.6362   -2.4462    6.8972 C.3       1 <0>         0.0663
     26 O2          6.6708   -2.0202    7.8608 O.3       1 <0>        -0.5688
     27 C17         6.1199   -4.3293    6.3456 C.ar      1 <0>        -0.0906
     28 C18         4.8782   -4.0763    6.8987 C.ar      1 <0>        -0.0583
     29 C19         4.1331   -5.1121    7.4294 C.ar      1 <0>        -0.1406
     30 C20         4.6300   -6.4041    7.4074 C.ar      1 <0>         0.1148
     31 C21         5.8743   -6.6570    6.8531 C.ar      1 <0>        -0.0734
     32 C22         6.6157   -5.6191    6.3179 C.ar      1 <0>        -0.0705
     33 Cl2         6.4996   -8.2762    6.8244 Cl        1 <0>        -0.0430
     34 F1          3.9024   -7.4172    7.9264 F         1 <0>        -0.1241
     35 H4         -0.9598    1.9047    0.0260 H         1 <0>         0.1327
     36 H5          1.1513    3.1677    0.0077 H         1 <0>         0.1287
     37 H6          3.3383   -0.5164   -0.0328 H         1 <0>         0.1338
     38 H7         -0.9269   -0.5549    0.0079 H         1 <0>         0.1317
     39 H8          3.3526    3.6020   -1.6347 H         1 <0>         0.1815
     40 H9          6.9969    0.3459    1.8906 H         1 <0>         0.1533
     41 H10         2.8041    0.8626    2.6654 H         1 <0>         0.1753
     42 H11         5.1056   -2.2264    5.2856 H         1 <0>         0.3967
     43 H12         8.3607   -3.1052    7.3756 H         1 <0>         0.0607
     44 H13         8.1505   -1.5762    6.4890 H         1 <0>         0.0617
     45 H14         7.0481   -1.5353    8.6076 H         1 <0>         0.3835
     46 H15         4.4906   -3.0684    6.9162 H         1 <0>         0.1390
     47 H16         3.1634   -4.9136    7.8615 H         1 <0>         0.1478
     48 H17         7.5838   -5.8162    5.8816 H         1 <0>         0.1466
@<TRIPOS>BOND
     1    1    6 ar
     2    1    2 ar
     3    1   35 1
     4    2    3 ar
     5    2   36 1
     6    3    4 ar
     7    3    8 1
     8    4    5 ar
     9    4   37 1
    10    5    6 ar
    11    5    7 1
    12    6   38 1
    13    8   13 1
    14    8    9 2
    15    9   39 1
    16    9   10 1
    17   10   11 1
    18   10   12 1
    19   11   13 2
    20   13   14 1
    21   14   19 2
    22   14   15 1
    23   15   16 2
    24   15   40 1
    25   16   17 1
    26   16   20 1
    27   17   18 1
    28   17   19 1
    29   19   41 1
    30   20   21 2
    31   20   22 am
    32   22   23 1
    33   22   42 1
    34   23   24 1
    35   23   25 1
    36   23   27 1
    37   25   26 1
    38   25   43 1
    39   25   44 1
    40   26   45 1
    41   27   32 ar
    42   27   28 ar
    43   28   29 ar
    44   28   46 1
    45   29   30 ar
    46   29   47 1
    47   30   31 ar
    48   30   34 1
    49   31   32 ar
    50   31   33 1
    51   32   48 1
@<TRIPOS>MOLECULE
ZINC20149028
   48    51     0     0     0
SMALL
USER_CHARGES

@<TRIPOS>ATOM
      1 C1          0.4585    0.4884    0.9561 C.ar      1 <0>        -0.1053
      2 C2          1.6076    1.2518    1.0011 C.ar      1 <0>        -0.0998
      3 C3          2.4549    1.2978   -0.1049 C.ar      1 <0>         0.0176
      4 C4          2.1363    0.5716   -1.2514 C.ar      1 <0>        -0.1040
      5 C5          0.9840   -0.1888   -1.2854 C.ar      1 <0>        -0.0324
      6 C6          0.1465   -0.2303   -0.1835 C.ar      1 <0>        -0.1156
      7 Cl1         0.5845   -1.0937   -2.7121 Cl        1 <0>        -0.0710
      8 C7          3.6902    2.1165   -0.0621 C.2       1 <0>        -0.2037
      9 C8          4.0508    3.1299   -0.9685 C.2       1 <0>         0.0722
     10 N1          5.2047    3.6215   -0.6039 N.2       1 <0>        -0.2871
     11 N2          5.6429    2.9556    0.5466 N.pl3     1 <0>        -0.4647
     12 H1          6.4701    3.1267    1.0233 H         1 <0>         0.4422
     13 C9          4.7029    2.0294    0.8832 C.2       1 <0>         0.1918
     14 C10         4.7529    1.1045    2.0356 C.2       1 <0>        -0.1449
     15 C11         5.0814    1.4409    3.3654 C.2       1 <0>        -0.0773
     16 C12         5.0056    0.2925    4.1007 C.2       1 <0>        -0.0519
     17 N3          4.6408   -0.7344    3.2595 N.pl3     1 <0>        -0.5281
     18 H2          4.5146   -1.6594    3.5227 H         1 <0>         0.4216
     19 C13         4.4814   -0.2472    2.0125 C.2       1 <0>         0.0829
     20 C14         5.2686    0.1735    5.5394 C.2       1 <0>         0.5932
     21 O1          5.5864    1.1561    6.1831 O.2       1 <0>        -0.5224
     22 N4          5.1581   -1.0240    6.1478 N.am      1 <0>        -0.7200
     23 C15         5.4207   -1.1428    7.5842 C.3       1 <0>         0.1955
     24 H3          5.0845   -0.2383    8.0910 H         1 <0>         0.1178
     25 C16         6.9218   -1.3287    7.8146 C.3       1 <0>         0.0662
     26 O2          7.3400   -2.5728    7.2497 O.3       1 <0>        -0.5690
     27 C17         4.6770   -2.3326    8.1341 C.ar      1 <0>        -0.0923
     28 C18         4.6144   -3.5055    7.4046 C.ar      1 <0>        -0.0584
     29 C19         3.9333   -4.5977    7.9074 C.ar      1 <0>        -0.1407
     30 C20         3.3129   -4.5177    9.1426 C.ar      1 <0>         0.1157
     31 C21         3.3759   -3.3421    9.8731 C.ar      1 <0>        -0.0735
     32 C22         4.0629   -2.2522    9.3697 C.ar      1 <0>        -0.0701
     33 Cl2         2.5989   -3.2394   11.4221 Cl        1 <0>        -0.0419
     34 F1          2.6464   -5.5848    9.6348 F         1 <0>        -0.1235
     35 H4         -0.1960    0.4488    1.8142 H         1 <0>         0.1306
     36 H5          1.8497    1.8128    1.8916 H         1 <0>         0.1270
     37 H6          2.7889    0.6038   -2.1113 H         1 <0>         0.1339
     38 H7         -0.7536   -0.8264   -0.2139 H         1 <0>         0.1311
     39 H8          3.4713    3.4477   -1.8226 H         1 <0>         0.1869
     40 H9          5.3438    2.4220    3.7330 H         1 <0>         0.1533
     41 H10         4.1925   -0.8188    1.1429 H         1 <0>         0.1806
     42 H11         4.9048   -1.8072    5.6347 H         1 <0>         0.3970
     43 H12         7.4661   -0.5126    7.3394 H         1 <0>         0.0611
     44 H13         7.1279   -1.3281    8.8850 H         1 <0>         0.0615
     45 H14         8.2829   -2.7572    7.3588 H         1 <0>         0.3842
     46 H15         5.0980   -3.5680    6.4409 H         1 <0>         0.1389
     47 H16         3.8845   -5.5134    7.3369 H         1 <0>         0.1481
     48 H17         4.1162   -1.3370    9.9406 H         1 <0>         0.1467
@<TRIPOS>BOND
     1    1    6 ar
     2    1    2 ar
     3    1   35 1
     4    2    3 ar
     5    2   36 1
     6    3    4 ar
     7    3    8 1
     8    4    5 ar
     9    4   37 1
    10    5    6 ar
    11    5    7 1
    12    6   38 1
    13    8   13 2
    14    8    9 1
    15    9   10 2
    16    9   39 1
    17   10   11 1
    18   11   12 1
    19   11   13 1
    20   13   14 1
    21   14   19 2
    22   14   15 1
    23   15   16 2
    24   15   40 1
    25   16   17 1
    26   16   20 1
    27   17   18 1
    28   17   19 1
    29   19   41 1
    30   20   21 2
    31   20   22 am
    32   22   23 1
    33   22   42 1
    34   23   24 1
    35   23   25 1
    36   23   27 1
    37   25   26 1
    38   25   43 1
    39   25   44 1
    40   26   45 1
    41   27   32 ar
    42   27   28 ar
    43   28   29 ar
    44   28   46 1
    45   29   30 ar
    46   29   47 1
    47   30   31 ar
    48   30   34 1
    49   31   32 ar
    50   31   33 1
    51   32   48 1
@<TRIPOS>MOLECULE
ZINC20149028
   48    51     0     0     0
SMALL
USER_CHARGES

@<TRIPOS>ATOM
      1 C1         -0.0167    1.3786    0.0096 C.ar      1 <0>        -0.1038
      2 C2          1.1676    2.0878    0.0021 C.ar      1 <0>        -0.1106
      3 C3          2.3840    1.4085   -0.0131 C.ar      1 <0>         0.0145
      4 C4          2.3983    0.0151   -0.0207 C.ar      1 <0>        -0.0965
      5 C5          1.2076   -0.6849   -0.0131 C.ar      1 <0>        -0.0326
      6 C6          0.0021   -0.0041    0.0020 C.ar      1 <0>        -0.1163
      7 Cl1         1.2227   -2.4208   -0.0230 Cl        1 <0>        -0.0706
      8 C7          3.6597    2.1660   -0.0217 C.2       1 <0>        -0.2032
      9 C8          3.9817    3.1931   -0.8578 C.2       1 <0>         0.0825
     10 N1          5.2257    3.6075   -0.5427 N.pl3     1 <0>        -0.4697
     11 N2          5.6983    2.8234    0.5164 N.2       1 <0>        -0.2800
     12 H1          5.7109    4.3266   -0.9767 H         1 <0>         0.4446
     13 C9          4.7639    1.9580    0.8421 C.2       1 <0>         0.1753
     14 C10         4.8515    0.9411    1.9196 C.2       1 <0>        -0.1178
     15 C11         6.0090    0.2429    2.3146 C.2       1 <0>        -0.0657
     16 C12         5.6459   -0.5903    3.3354 C.2       1 <0>        -0.0577
     17 N3          4.3004   -0.4148    3.5685 N.pl3     1 <0>        -0.5321
     18 H2          3.7794   -0.8811    4.2408 H         1 <0>         0.4194
     19 C13         3.8255    0.5150    2.7144 C.2       1 <0>         0.0728
     20 C14         6.5335   -1.5100    4.0557 C.2       1 <0>         0.5950
     21 O1          7.7114   -1.5775    3.7574 O.2       1 <0>        -0.5234
     22 N4          6.0445   -2.2801    5.0478 N.am      1 <0>        -0.7212
     23 C15         6.9308   -3.1985    5.7669 C.3       1 <0>         0.1953
     24 H3          7.9206   -2.7511    5.8585 H         1 <0>         0.1174
     25 C16         7.0358   -4.5153    4.9950 C.3       1 <0>         0.0663
     26 O2          5.7601   -5.1589    4.9753 O.3       1 <0>        -0.5686
     27 C17         6.3708   -3.4647    7.1405 C.ar      1 <0>        -0.0909
     28 C18         5.0096   -3.6389    7.3095 C.ar      1 <0>        -0.0580
     29 C19         4.4944   -3.8835    8.5683 C.ar      1 <0>        -0.1408
     30 C20         5.3415   -3.9543    9.6610 C.ar      1 <0>         0.1147
     31 C21         6.7054   -3.7797    9.4910 C.ar      1 <0>        -0.0736
     32 C22         7.2190   -3.5401    8.2292 C.ar      1 <0>        -0.0704
     33 Cl2         7.7697   -3.8679   10.8597 Cl        1 <0>        -0.0431
     34 F1          4.8387   -4.1930   10.8920 F         1 <0>        -0.1241
     35 H4         -0.9598    1.9047    0.0260 H         1 <0>         0.1327
     36 H5          1.1513    3.1677    0.0077 H         1 <0>         0.1287
     37 H6          3.3383   -0.5164   -0.0328 H         1 <0>         0.1337
     38 H7         -0.9269   -0.5549    0.0079 H         1 <0>         0.1317
     39 H8          3.3526    3.6020   -1.6347 H         1 <0>         0.1815
     40 H9          6.9969    0.3459    1.8906 H         1 <0>         0.1533
     41 H10         2.8041    0.8626    2.6654 H         1 <0>         0.1753
     42 H11         5.1056   -2.2264    5.2856 H         1 <0>         0.3967
     43 H12         7.3564   -4.3128    3.9731 H         1 <0>         0.0616
     44 H13         7.7630   -5.1650    5.4820 H         1 <0>         0.0605
     45 H14         5.7521   -6.0018    4.5014 H         1 <0>         0.3836
     46 H15         4.3486   -3.5834    6.4573 H         1 <0>         0.1395
     47 H16         3.4310   -4.0191    8.6996 H         1 <0>         0.1478
     48 H17         8.2825   -3.4083    8.0952 H         1 <0>         0.1466
@<TRIPOS>BOND
     1    1    6 ar
     2    1    2 ar
     3    1   35 1
     4    2    3 ar
     5    2   36 1
     6    3    4 ar
     7    3    8 1
     8    4    5 ar
     9    4   37 1
    10    5    6 ar
    11    5    7 1
    12    6   38 1
    13    8   13 1
    14    8    9 2
    15    9   39 1
    16    9   10 1
    17   10   11 1
    18   10   12 1
    19   11   13 2
    20   13   14 1
    21   14   19 2
    22   14   15 1
    23   15   16 2
    24   15   40 1
    25   16   17 1
    26   16   20 1
    27   17   18 1
    28   17   19 1
    29   19   41 1
    30   20   21 2
    31   20   22 am
    32   22   23 1
    33   22   42 1
    34   23   24 1
    35   23   25 1
    36   23   27 1
    37   25   26 1
    38   25   43 1
    39   25   44 1
    40   26   45 1
    41   27   32 ar
    42   27   28 ar
    43   28   29 ar
    44   28   46 1
    45   29   30 ar
    46   29   47 1
    47   30   31 ar
    48   30   34 1
    49   31   32 ar
    50   31   33 1
    51   32   48 1
@<TRIPOS>MOLECULE
ZINC16052855
   42    46     0     0     0
SMALL
USER_CHARGES
2-[2-(3-quinolyl)-4-pyridyl]-1,5,6,7-tetrahydropyrrolo[3,2-c]pyridin-4-one
@<TRIPOS>ATOM
      1 C1         10.7572   -3.7819    0.0510 C.ar      1 <0>        -0.1174
      2 C2         10.0826   -4.9965   -0.0578 C.ar      1 <0>        -0.0943
      3 C3          8.7251   -5.0411   -0.1432 C.ar      1 <0>        -0.0961
      4 C4          7.9840   -3.8467   -0.1220 C.ar      1 <0>         0.1332
      5 C5          8.6723   -2.6122   -0.0112 C.ar      1 <0>        -0.1086
      6 C6         10.0749   -2.6042    0.0749 C.ar      1 <0>        -0.0904
      7 C7          7.9341   -1.4163    0.0035 C.ar      1 <0>        -0.0086
      8 C8          6.5519   -1.5034   -0.0804 C.ar      1 <0>        -0.1129
      9 C9          5.9436   -2.7641   -0.1873 C.ar      1 <0>         0.1529
     10 N1          6.6494   -3.8661   -0.2050 N.ar      1 <0>        -0.4708
     11 C10         5.7235   -0.2733   -0.0635 C.ar      1 <0>         0.1881
     12 C11         4.3369   -0.3774   -0.0487 C.ar      1 <0>        -0.1516
     13 C12         3.5718    0.7923   -0.0329 C.ar      1 <0>         0.0469
     14 C13         4.2419    2.0230   -0.0385 C.ar      1 <0>        -0.1854
     15 C14         5.6209    2.0383   -0.0474 C.ar      1 <0>         0.1223
     16 N2          6.3134    0.9162   -0.0622 N.ar      1 <0>        -0.4852
     17 C15         2.0948    0.7326   -0.0168 C.2       1 <0>         0.0138
     18 C16         1.3438   -0.4057   -0.0160 C.2       1 <0>        -0.0761
     19 C17         0.0021   -0.0041    0.0020 C.2       1 <0>        -0.2322
     20 C18        -0.0168    1.3870    0.0097 C.2       1 <0>         0.0794
     21 N3          1.2455    1.8183   -0.0001 N.pl3     1 <0>        -0.5112
     22 H1          1.5219    2.7481    0.0040 H         1 <0>         0.4196
     23 C19        -1.3188    2.1462    0.0206 C.3       1 <0>        -0.0709
     24 C20        -2.3876    1.3047   -0.6747 C.3       1 <0>         0.1238
     25 N4         -2.3915   -0.0842   -0.2366 N.am      1 <0>        -0.7361
     26 C21        -1.2539   -0.7742    0.0148 C.2       1 <0>         0.5971
     27 O1         -1.2683   -1.9693    0.2403 O.2       1 <0>        -0.5312
     28 H2         11.8351   -3.7749    0.1176 H         1 <0>         0.1302
     29 H3         10.6464   -5.9175   -0.0746 H         1 <0>         0.1323
     30 H4          8.2186   -5.9913   -0.2267 H         1 <0>         0.1378
     31 H5         10.6085   -1.6690    0.1592 H         1 <0>         0.1329
     32 H6          8.4274   -0.4588    0.0820 H         1 <0>         0.1521
     33 H7          4.8676   -2.8260   -0.2568 H         1 <0>         0.1632
     34 H8          3.8591   -1.3460   -0.0498 H         1 <0>         0.1448
     35 H9          3.6851    2.9484   -0.0315 H         1 <0>         0.1299
     36 H10         6.1419    2.9843   -0.0466 H         1 <0>         0.1625
     37 H11         1.7124   -1.4208   -0.0268 H         1 <0>         0.1545
     38 H12        -1.6218    2.3370    1.0501 H         1 <0>         0.0965
     39 H13        -1.1947    3.0919   -0.5070 H         1 <0>         0.0988
     40 H14        -2.2101    1.3333   -1.7498 H         1 <0>         0.0674
     41 H15        -3.3652    1.7406   -0.4691 H         1 <0>         0.0947
     42 H16        -3.2435   -0.5330   -0.1199 H         1 <0>         0.4042
@<TRIPOS>BOND
     1    1    6 ar
     2    1    2 ar
     3    1   28 1
     4    2    3 ar
     5    2   29 1
     6    3    4 ar
     7    3   30 1
     8    4   10 ar
     9    4    5 ar
    10    5    6 ar
    11    5    7 ar
    12    6   31 1
    13    7    8 ar
    14    7   32 1
    15    8    9 ar
    16    8   11 1
    17    9   10 ar
    18    9   33 1
    19   11   16 ar
    20   11   12 ar
    21   12   13 ar
    22   12   34 1
    23   13   14 ar
    24   13   17 1
    25   14   15 ar
    26   14   35 1
    27   15   16 ar
    28   15   36 1
    29   17   21 1
    30   17   18 2
    31   18   19 1
    32   18   37 1
    33   19   26 1
    34   19   20 2
    35   20   21 1
    36   20   23 1
    37   21   22 1
    38   23   24 1
    39   23   38 1
    40   23   39 1
    41   24   25 1
    42   24   40 1
    43   24   41 1
    44   25   26 am
    45   25   42 1
    46   26   27 2
@<TRIPOS>MOLECULE
ZINC17836932
   28    30     0     0     0
SMALL
USER_CHARGES

@<TRIPOS>ATOM
      1 C1         -0.0169    1.3979    0.0097 C.2       1 <0>        -0.1853
      2 C2          1.2697    1.8211   -0.0003 C.2       1 <0>         0.0002
      3 N1          2.1027    0.7421   -0.0039 N.pl3     1 <0>        -0.5131
      4 H1          3.0718    0.7768   -0.0265 H         1 <0>         0.4179
      5 C3          1.3532   -0.3880    0.0293 C.2       1 <0>        -0.0595
      6 C4          0.0021   -0.0041    0.0020 C.2       1 <0>        -0.0520
      7 C5         -1.0943   -0.9739   -0.0791 C.2       1 <0>        -0.1071
      8 C6         -1.9967   -1.1126    0.9290 C.2       1 <0>         0.0917
      9 C7         -3.1333   -2.0409    0.9857 C.2       1 <0>         0.4671
     10 O1         -3.4883   -2.9333    0.0339 O.3       1 <0>        -0.6411
     11 N2         -3.7419   -1.8425    2.1354 N.2       1 <0>        -0.6216
     12 C8         -3.1225   -0.8813    2.8371 C.2       1 <0>         0.5790
     13 N3         -2.0365   -0.4063    2.1342 N.pl3     1 <0>        -0.7300
     14 N4         -3.4935   -0.4588    4.0222 N.2       1 <0>        -0.7933
     15 C9         -1.1768   -1.8152   -1.3382 C.3       1 <0>        -0.0886
     16 C10         0.2355   -2.2351   -1.7564 C.3       1 <0>         0.1190
     17 N5          1.0531   -2.6907   -0.6424 N.am      1 <0>        -0.7102
     18 C11         1.7353   -1.8032    0.1271 C.2       1 <0>         0.6046
     19 O2          2.6289   -2.1665    0.8693 O.2       1 <0>        -0.5478
     20 H2         -0.8960    2.0251    0.0255 H         1 <0>         0.1414
     21 H3          1.5865    2.8536   -0.0047 H         1 <0>         0.1693
     22 H4         -1.4202    0.2861    2.4198 H         1 <0>         0.4015
     23 H5         -2.9917    0.2428    4.4660 H         1 <0>         0.3149
     24 H6         -1.7784   -2.7032   -1.1441 H         1 <0>         0.1113
     25 H7         -1.6347   -1.2315   -2.1368 H         1 <0>         0.0784
     26 H8          0.1592   -3.0406   -2.4868 H         1 <0>         0.0824
     27 H9          0.7284   -1.3847   -2.2274 H         1 <0>         0.0658
     28 H10         1.1115   -3.6389   -0.4469 H         1 <0>         0.4052
@<TRIPOS>BOND
     1    1    6 1
     2    1    2 2
     3    1   20 1
     4    2    3 1
     5    2   21 1
     6    3    4 1
     7    3    5 1
     8    5   18 1
     9    5    6 2
    10    6    7 1
    11    7    8 2
    12    7   15 1
    13    8   13 1
    14    8    9 1
    15    9   10 1
    16    9   11 2
    17   11   12 1
    18   12   13 1
    19   12   14 2
    20   13   22 1
    21   14   23 1
    22   15   16 1
    23   15   24 1
    24   15   25 1
    25   16   17 1
    26   16   26 1
    27   16   27 1
    28   17   18 am
    29   17   28 1
    30   18   19 2
@<TRIPOS>MOLECULE
ZINC17836932
   29    31     0     0     0
SMALL
USER_CHARGES

@<TRIPOS>ATOM
      1 C1         -0.0169    1.3974    0.0097 C.2       1 <0>        -0.1750
      2 C2          1.2702    1.8202   -0.0003 C.2       1 <0>         0.0117
      3 N1          2.1021    0.7407   -0.0039 N.pl3     1 <0>        -0.5030
      4 H1          3.0712    0.7746   -0.0262 H         1 <0>         0.4262
      5 C3          1.3523   -0.3881    0.0294 C.2       1 <0>        -0.0307
      6 C4          0.0021   -0.0041    0.0020 C.2       1 <0>        -0.1099
      7 C5         -1.0954   -0.9746   -0.0792 C.2       1 <0>         0.0238
      8 C6         -1.9958   -1.1127    0.9263 C.2       1 <0>        -0.0099
      9 C7         -3.1409   -2.0437    0.9898 C.2       1 <0>         0.5395
     10 O1         -3.4737   -2.8538    0.1403 O.2       1 <0>        -0.4718
     11 N2         -3.7411   -1.8205    2.1670 N.2       1 <0>        -0.6438
     12 C8         -3.1131   -0.8750    2.8320 C.2       1 <0>         0.6555
     13 N3         -2.0413   -0.4096    2.1336 N.pl3     1 <0>        -0.6639
     14 N4         -3.4857   -0.4219    4.0677 N.pl3     1 <0>        -0.8053
     15 C9         -1.1779   -1.8161   -1.3382 C.3       1 <0>        -0.1059
     16 C10         0.2344   -2.2364   -1.7561 C.3       1 <0>         0.1151
     17 N5          1.0518   -2.6919   -0.6420 N.am      1 <0>        -0.7155
     18 C11         1.7342   -1.8045    0.1274 C.2       1 <0>         0.5968
     19 O2          2.6276   -2.1680    0.8695 O.2       1 <0>        -0.5284
     20 H2         -0.8959    2.0248    0.0255 H         1 <0>         0.1476
     21 H3          1.5877    2.8525   -0.0051 H         1 <0>         0.1779
     22 H4         -1.4251    0.2828    2.4195 H         1 <0>         0.4256
     23 H5         -4.2600   -0.8028    4.5107 H         1 <0>         0.4329
     24 H6         -1.7797   -2.7039   -1.1440 H         1 <0>         0.1072
     25 H7         -1.6356   -1.2324   -2.1370 H         1 <0>         0.1042
     26 H8          0.1580   -3.0419   -2.4864 H         1 <0>         0.0956
     27 H9          0.7275   -1.3860   -2.2271 H         1 <0>         0.0765
     28 H10         1.1098   -3.6401   -0.4462 H         1 <0>         0.4103
     29 H11        -2.9756    0.2802    4.5009 H         1 <0>         0.4166
@<TRIPOS>BOND
     1    1    6 1
     2    1    2 2
     3    1   20 1
     4    2    3 1
     5    2   21 1
     6    3    4 1
     7    3    5 1
     8    5   18 1
     9    5    6 2
    10    6    7 1
    11    7    8 2
    12    7   15 1
    13    8   13 1
    14    8    9 1
    15    9   10 2
    16    9   11 1
    17   11   12 2
    18   12   13 1
    19   12   14 1
    20   13   22 1
    21   14   23 1
    22   14   29 1
    23   15   16 1
    24   15   24 1
    25   15   25 1
    26   16   17 1
    27   16   26 1
    28   16   27 1
    29   17   18 am
    30   17   28 1
    31   18   19 2
@<TRIPOS>MOLECULE
ZINC17836932
   28    30     0     0     0
SMALL
USER_CHARGES

@<TRIPOS>ATOM
      1 C1         -0.0169    1.3974    0.0097 C.2       1 <0>        -0.1837
      2 C2          1.2702    1.8202   -0.0003 C.2       1 <0>         0.0004
      3 N1          2.1021    0.7407   -0.0039 N.pl3     1 <0>        -0.5128
      4 H1          3.0712    0.7746   -0.0262 H         1 <0>         0.4175
      5 C3          1.3523   -0.3881    0.0294 C.2       1 <0>        -0.0610
      6 C4          0.0021   -0.0041    0.0020 C.2       1 <0>        -0.0505
      7 C5         -1.0954   -0.9746   -0.0792 C.2       1 <0>        -0.1179
      8 C6         -1.9958   -1.1127    0.9263 C.2       1 <0>         0.0730
      9 C7         -3.1409   -2.0437    0.9898 C.2       1 <0>         0.5128
     10 O1         -3.4737   -2.8538    0.1403 O.2       1 <0>        -0.5599
     11 N2         -3.7411   -1.8205    2.1670 N.2       1 <0>        -0.7181
     12 C8         -3.1131   -0.8750    2.8320 C.2       1 <0>         0.5699
     13 N3         -2.0413   -0.4096    2.1336 N.pl3     1 <0>        -0.6706
     14 N4         -3.4857   -0.4219    4.0677 N.2       1 <0>        -0.8565
     15 C9         -1.1779   -1.8161   -1.3382 C.3       1 <0>        -0.0822
     16 C10         0.2344   -2.2364   -1.7561 C.3       1 <0>         0.1194
     17 N5          1.0518   -2.6919   -0.6420 N.am      1 <0>        -0.7119
     18 C11         1.7342   -1.8045    0.1274 C.2       1 <0>         0.6056
     19 O2          2.6276   -2.1680    0.8695 O.2       1 <0>        -0.5464
     20 H2         -0.8959    2.0248    0.0255 H         1 <0>         0.1421
     21 H3          1.5877    2.8525   -0.0051 H         1 <0>         0.1694
     22 H4         -1.4251    0.2828    2.4195 H         1 <0>         0.4081
     23 H5         -1.7797   -2.7039   -1.1440 H         1 <0>         0.0999
     24 H6         -1.6356   -1.2324   -2.1370 H         1 <0>         0.0788
     25 H7          0.1580   -3.0419   -2.4864 H         1 <0>         0.0818
     26 H8          0.7275   -1.3860   -2.2271 H         1 <0>         0.0677
     27 H9          1.1098   -3.6401   -0.4462 H         1 <0>         0.4045
     28 H10        -4.2600   -0.8028    4.5107 H         1 <0>         0.3206
@<TRIPOS>BOND
     1    1    6 1
     2    1    2 2
     3    1   20 1
     4    2    3 1
     5    2   21 1
     6    3    4 1
     7    3    5 1
     8    5   18 1
     9    5    6 2
    10    6    7 1
    11    7    8 2
    12    7   15 1
    13    8   13 1
    14    8    9 1
    15    9   10 2
    16    9   11 1
    17   11   12 2
    18   12   13 1
    19   12   14 1
    20   13   22 1
    21   14   28 1
    22   15   16 1
    23   15   23 1
    24   15   24 1
    25   16   17 1
    26   16   25 1
    27   16   26 1
    28   17   18 am
    29   17   27 1
    30   18   19 2
@<TRIPOS>MOLECULE
ZINC17836932
   29    31     0     0     0
SMALL
USER_CHARGES

@<TRIPOS>ATOM
      1 C1         -0.0169    1.3974    0.0097 C.2       1 <0>        -0.1473
      2 C2          1.2702    1.8202   -0.0003 C.2       1 <0>         0.0092
      3 N1          2.1021    0.7407   -0.0039 N.pl3     1 <0>        -0.5042
      4 H1          3.0712    0.7746   -0.0262 H         1 <0>         0.4240
      5 C3          1.3523   -0.3881    0.0294 C.2       1 <0>        -0.0387
      6 C4          0.0021   -0.0041    0.0020 C.2       1 <0>        -0.0851
      7 C5         -1.0954   -0.9746   -0.0792 C.2       1 <0>         0.0169
      8 C6         -1.9958   -1.1127    0.9263 C.2       1 <0>        -0.0073
      9 C7         -2.0476   -0.3653    2.1993 C.2       1 <0>         0.5339
     10 O1         -1.2818    0.5113    2.5652 O.2       1 <0>        -0.4536
     11 N2         -3.1040   -0.8424    2.8719 N.2       1 <0>        -0.6434
     12 C8         -3.7052   -1.7839    2.1771 C.2       1 <0>         0.6538
     13 N3         -3.0830   -1.9895    0.9838 N.pl3     1 <0>        -0.6697
     14 N4         -4.8150   -2.4643    2.5968 N.pl3     1 <0>        -0.8063
     15 C9         -1.1779   -1.8161   -1.3382 C.3       1 <0>        -0.1035
     16 C10         0.2344   -2.2364   -1.7561 C.3       1 <0>         0.1166
     17 N5          1.0518   -2.6919   -0.6420 N.am      1 <0>        -0.7221
     18 C11         1.7342   -1.8045    0.1274 C.2       1 <0>         0.6004
     19 O2          2.6276   -2.1680    0.8695 O.2       1 <0>        -0.5251
     20 H2         -0.8959    2.0248    0.0255 H         1 <0>         0.1450
     21 H3          1.5877    2.8525   -0.0051 H         1 <0>         0.1764
     22 H4         -3.3442   -2.6274    0.3014 H         1 <0>         0.4230
     23 H5         -5.2100   -2.2627    3.4595 H         1 <0>         0.4328
     24 H6         -1.7797   -2.7039   -1.1440 H         1 <0>         0.0732
     25 H7         -1.6356   -1.2324   -2.1370 H         1 <0>         0.1044
     26 H8          0.1580   -3.0419   -2.4864 H         1 <0>         0.0919
     27 H9          0.7275   -1.3860   -2.2271 H         1 <0>         0.0817
     28 H10         1.1098   -3.6401   -0.4462 H         1 <0>         0.4070
     29 H11        -5.2071   -3.1483    2.0318 H         1 <0>         0.4159
@<TRIPOS>BOND
     1    1    6 1
     2    1    2 2
     3    1   20 1
     4    2    3 1
     5    2   21 1
     6    3    4 1
     7    3    5 1
     8    5   18 1
     9    5    6 2
    10    6    7 1
    11    7    8 2
    12    7   15 1
    13    8   13 1
    14    8    9 1
    15    9   10 2
    16    9   11 1
    17   11   12 2
    18   12   13 1
    19   12   14 1
    20   13   22 1
    21   14   23 1
    22   14   29 1
    23   15   16 1
    24   15   24 1
    25   15   25 1
    26   16   17 1
    27   16   26 1
    28   16   27 1
    29   17   18 am
    30   17   28 1
    31   18   19 2
@<TRIPOS>MOLECULE
ZINC17836932
   28    30     0     0     0
SMALL
USER_CHARGES

@<TRIPOS>ATOM
      1 C1         -0.0169    1.3974    0.0097 C.2       1 <0>        -0.1537
      2 C2          1.2702    1.8202   -0.0003 C.2       1 <0>        -0.0035
      3 N1          2.1021    0.7407   -0.0039 N.pl3     1 <0>        -0.5151
      4 H1          3.0712    0.7746   -0.0262 H         1 <0>         0.4151
      5 C3          1.3523   -0.3881    0.0294 C.2       1 <0>        -0.0685
      6 C4          0.0021   -0.0041    0.0020 C.2       1 <0>        -0.0220
      7 C5         -1.0954   -0.9746   -0.0792 C.2       1 <0>        -0.1234
      8 C6         -1.9958   -1.1127    0.9263 C.2       1 <0>         0.0745
      9 C7         -2.0476   -0.3653    2.1993 C.2       1 <0>         0.5098
     10 O1         -1.2818    0.5113    2.5652 O.2       1 <0>        -0.5436
     11 N2         -3.1040   -0.8424    2.8719 N.2       1 <0>        -0.7219
     12 C8         -3.7052   -1.7839    2.1771 C.2       1 <0>         0.5705
     13 N3         -3.0830   -1.9895    0.9838 N.pl3     1 <0>        -0.6745
     14 N4         -4.8150   -2.4643    2.5968 N.2       1 <0>        -0.8610
     15 C9         -1.1779   -1.8161   -1.3382 C.3       1 <0>        -0.0821
     16 C10         0.2344   -2.2364   -1.7561 C.3       1 <0>         0.1213
     17 N5          1.0518   -2.6919   -0.6420 N.am      1 <0>        -0.7182
     18 C11         1.7342   -1.8045    0.1274 C.2       1 <0>         0.6089
     19 O2          2.6276   -2.1680    0.8695 O.2       1 <0>        -0.5443
     20 H2         -0.8959    2.0248    0.0255 H         1 <0>         0.1386
     21 H3          1.5877    2.8525   -0.0051 H         1 <0>         0.1669
     22 H4         -3.3442   -2.6274    0.3014 H         1 <0>         0.4055
     23 H5         -1.7797   -2.7039   -1.1440 H         1 <0>         0.0640
     24 H6         -1.6356   -1.2324   -2.1370 H         1 <0>         0.0817
     25 H7          0.1580   -3.0419   -2.4864 H         1 <0>         0.0793
     26 H8          0.7275   -1.3860   -2.2271 H         1 <0>         0.0735
     27 H9          1.1098   -3.6401   -0.4462 H         1 <0>         0.4020
     28 H10        -5.2100   -2.2627    3.4595 H         1 <0>         0.3204
@<TRIPOS>BOND
     1    1    6 1
     2    1    2 2
     3    1   20 1
     4    2    3 1
     5    2   21 1
     6    3    4 1
     7    3    5 1
     8    5   18 1
     9    5    6 2
    10    6    7 1
    11    7    8 2
    12    7   15 1
    13    8   13 1
    14    8    9 1
    15    9   10 2
    16    9   11 1
    17   11   12 2
    18   12   13 1
    19   12   14 1
    20   13   22 1
    21   14   28 1
    22   15   16 1
    23   15   23 1
    24   15   24 1
    25   16   17 1
    26   16   25 1
    27   16   26 1
    28   17   18 am
    29   17   27 1
    30   18   19 2
@<TRIPOS>MOLECULE
ZINC28565323
   38    42     0     0     0
SMALL
USER_CHARGES

@<TRIPOS>ATOM
      1 C1         -0.0902    1.2402   -0.1765 C.ar      1 <0>        -0.1048
      2 C2          0.4224    0.7916    1.0274 C.ar      1 <0>        -0.1183
      3 C3          1.6463    0.1550    1.0650 C.ar      1 <0>        -0.0805
      4 C4          2.3660   -0.0359   -0.1132 C.ar      1 <0>        -0.0162
      5 C5          1.8444    0.4178   -1.3235 C.ar      1 <0>        -0.0839
      6 C6          0.6197    1.0535   -1.3490 C.ar      1 <0>        -0.1198
      7 C7          3.6819   -0.7188   -0.0793 C.2       1 <0>         0.1864
      8 C8          3.9962   -1.8600    0.6828 C.2       1 <0>        -0.1993
      9 C9          5.3358   -2.1727    0.4215 C.2       1 <0>         0.1317
     10 C10         6.1858   -3.1894    0.8872 C.2       1 <0>        -0.1233
     11 C11         7.4726   -3.2375    0.4421 C.2       1 <0>        -0.0680
     12 C12         7.9250   -2.2726   -0.4716 C.2       1 <0>        -0.1627
     13 C13         7.0938   -1.3023   -0.9081 C.2       1 <0>         0.1193
     14 N1          5.8020   -1.2425   -0.4707 N.pl3     1 <0>        -0.2666
     15 N2          4.7531   -0.3619   -0.7629 N.2       1 <0>        -0.3037
     16 C14         3.0835   -2.5907    1.5888 C.ar      1 <0>         0.1041
     17 C15         3.5041   -2.9380    2.8729 C.ar      1 <0>        -0.0230
     18 C16         2.5977   -3.6264    3.6812 C.ar      1 <0>        -0.1857
     19 C17         2.6234   -4.1621    5.0402 C.2       1 <0>         0.3698
     20 N3          1.4623   -4.7186    5.2659 N.2       1 <0>        -0.2878
     21 N4          0.6426   -4.5949    4.1396 N.pl3     1 <0>        -0.4823
     22 H1         -0.2651   -4.9293    4.0671 H         1 <0>         0.4510
     23 C18         1.3208   -3.9275    3.1558 C.ar      1 <0>         0.2677
     24 N5          1.0216   -3.5509    1.9199 N.ar      1 <0>        -0.2413
     25 N6          1.8567   -2.9133    1.1816 N.ar      1 <0>        -0.1573
     26 N7          3.6942   -4.0930    5.9352 N.pl3     1 <0>        -0.8260
     27 H2         -1.0503    1.7341   -0.2018 H         1 <0>         0.1250
     28 H3         -0.1361    0.9401    1.9398 H         1 <0>         0.1241
     29 H4          2.0459   -0.1942    2.0056 H         1 <0>         0.1141
     30 H5          2.3979    0.2729   -2.2395 H         1 <0>         0.1262
     31 H6          0.2147    1.4058   -2.2861 H         1 <0>         0.1274
     32 H7          5.8235   -3.9245    1.5905 H         1 <0>         0.1458
     33 H8          8.1398   -4.0121    0.7901 H         1 <0>         0.1458
     34 H9          8.9442   -2.3065   -0.8273 H         1 <0>         0.1598
     35 H10         7.4546   -0.5659   -1.6108 H         1 <0>         0.1735
     36 H11         4.4922   -2.6845    3.2275 H         1 <0>         0.1500
     37 H12         4.5194   -3.6566    5.6714 H         1 <0>         0.4150
     38 H13         3.6124   -4.4814    6.8203 H         1 <0>         0.4138
@<TRIPOS>BOND
     1    1    6 ar
     2    1    2 ar
     3    1   27 1
     4    2    3 ar
     5    2   28 1
     6    3    4 ar
     7    3   29 1
     8    4    5 ar
     9    4    7 1
    10    5    6 ar
    11    5   30 1
    12    6   31 1
    13    7   15 2
    14    7    8 1
    15    8    9 2
    16    8   16 1
    17    9   14 1
    18    9   10 1
    19   10   11 2
    20   10   32 1
    21   11   12 1
    22   11   33 1
    23   12   13 2
    24   12   34 1
    25   13   14 1
    26   13   35 1
    27   14   15 1
    28   16   25 ar
    29   16   17 ar
    30   17   18 ar
    31   17   36 1
    32   18   23 ar
    33   18   19 1
    34   19   20 2
    35   19   26 1
    36   20   21 1
    37   21   22 1
    38   21   23 1
    39   23   24 ar
    40   24   25 ar
    41   26   37 1
    42   26   38 1
@<TRIPOS>MOLECULE
ZINC28565323
   38    42     0     0     0
SMALL
USER_CHARGES

@<TRIPOS>ATOM
      1 C1         -0.0886    1.2433   -0.1724 C.ar      1 <0>        -0.1057
      2 C2          0.4240    0.7938    1.0312 C.ar      1 <0>        -0.1183
      3 C3          1.6475    0.1564    1.0681 C.ar      1 <0>        -0.0793
      4 C4          2.3669   -0.0342   -0.1105 C.ar      1 <0>        -0.0139
      5 C5          1.8453    0.4209   -1.3204 C.ar      1 <0>        -0.0850
      6 C6          0.6209    1.0570   -1.3452 C.ar      1 <0>        -0.1204
      7 C7          3.6823   -0.7179   -0.0773 C.2       1 <0>         0.1806
      8 C8          3.9958   -1.8597    0.6838 C.2       1 <0>        -0.1843
      9 C9          5.3350   -2.1733    0.4226 C.2       1 <0>         0.1231
     10 C10         6.1843   -3.1908    0.8875 C.2       1 <0>        -0.1199
     11 C11         7.4710   -3.2394    0.4426 C.2       1 <0>        -0.0733
     12 C12         7.9246   -2.2742   -0.4705 C.2       1 <0>        -0.1646
     13 C13         7.0946   -1.3029   -0.9066 C.2       1 <0>         0.1188
     14 N1          5.8022   -1.2423   -0.4693 N.pl3     1 <0>        -0.2687
     15 N2          4.7539   -0.3611   -0.7612 N.2       1 <0>        -0.3047
     16 C14         3.0825   -2.5901    1.5898 C.ar      1 <0>         0.0549
     17 C15         3.5124   -2.9304    2.8660 C.ar      1 <0>         0.0093
     18 C16         2.6090   -3.6233    3.6886 C.ar      1 <0>        -0.2747
     19 C17         2.6288   -4.1358    4.9826 C.2       1 <0>         0.4219
     20 N3          1.4342   -4.7069    5.2102 N.pl3     1 <0>        -0.4345
     21 H1          1.1748   -5.1434    6.0366 H         1 <0>         0.4475
     22 N4          0.6193   -4.5794    4.0800 N.2       1 <0>        -0.2867
     23 C18         1.2778   -3.9354    3.1358 C.ar      1 <0>         0.2289
     24 N5          0.9977   -3.5440    1.8832 N.ar      1 <0>        -0.2003
     25 N6          1.8555   -2.9077    1.1707 N.ar      1 <0>        -0.1332
     26 N7          3.6873   -4.0698    5.8729 N.pl3     1 <0>        -0.8273
     27 H2         -1.0486    1.7376   -0.1972 H         1 <0>         0.1243
     28 H3         -0.1340    0.9423    1.9438 H         1 <0>         0.1236
     29 H4          2.0470   -0.1938    2.0084 H         1 <0>         0.1148
     30 H5          2.3985    0.2763   -2.2366 H         1 <0>         0.1255
     31 H6          0.2156    1.4097   -2.2821 H         1 <0>         0.1266
     32 H7          5.8214   -3.9262    1.5903 H         1 <0>         0.1441
     33 H8          8.1376   -4.0149    0.7901 H         1 <0>         0.1435
     34 H9          8.9438   -2.3088   -0.8260 H         1 <0>         0.1580
     35 H10         7.4563   -0.5664   -1.6088 H         1 <0>         0.1720
     36 H11         4.5024   -2.6726    3.2121 H         1 <0>         0.1405
     37 H12         4.5138   -3.6339    5.6123 H         1 <0>         0.4247
     38 H13         3.6024   -4.4595    6.7571 H         1 <0>         0.4122
@<TRIPOS>BOND
     1    1    6 ar
     2    1    2 ar
     3    1   27 1
     4    2    3 ar
     5    2   28 1
     6    3    4 ar
     7    3   29 1
     8    4    5 ar
     9    4    7 1
    10    5    6 ar
    11    5   30 1
    12    6   31 1
    13    7   15 2
    14    7    8 1
    15    8    9 2
    16    8   16 1
    17    9   14 1
    18    9   10 1
    19   10   11 2
    20   10   32 1
    21   11   12 1
    22   11   33 1
    23   12   13 2
    24   12   34 1
    25   13   14 1
    26   13   35 1
    27   14   15 1
    28   16   25 ar
    29   16   17 ar
    30   17   18 ar
    31   17   36 1
    32   18   23 ar
    33   18   19 2
    34   19   20 1
    35   19   26 1
    36   20   21 1
    37   20   22 1
    38   22   23 2
    39   23   24 ar
    40   24   25 ar
    41   26   37 1
    42   26   38 1
@<TRIPOS>MOLECULE
ZINC02349480
   37    38     0     0     0
SMALL
USER_CHARGES

@<TRIPOS>ATOM
      1 C1          0.4370    1.5940   -0.0484 C.3       1 <0>        -0.1553
      2 C2          0.6805    0.0842   -0.0055 C.3       1 <0>         0.0515
      3 O1          0.4113   -0.4785   -1.2911 O.3       1 <0>        -0.3102
      4 C3          0.5800   -1.8190   -1.4248 C.ar      1 <0>         0.1707
      5 C4          0.9917   -2.5773   -0.3349 C.ar      1 <0>        -0.2228
      6 C5          1.1643   -3.9369   -0.4648 C.ar      1 <0>        -0.0291
      7 C6          0.9243   -4.5558   -1.6978 C.ar      1 <0>        -0.1579
      8 C7          0.5098   -3.7870   -2.7925 C.ar      1 <0>        -0.0017
      9 C8          0.3349   -2.4290   -2.6497 C.ar      1 <0>        -0.1652
     10 C9          1.1072   -6.0056   -1.8426 C.2       1 <0>         0.1230
     11 C10         1.6446   -6.5114   -2.9816 C.2       1 <0>        -0.2520
     12 C11         2.2694   -5.8091   -4.1201 C.2       1 <0>         0.5539
     13 O2          2.3707   -4.5966   -4.1456 O.2       1 <0>        -0.4576
     14 N1          2.7138   -6.5643   -5.1106 N.am      1 <0>        -0.5771
     15 C12         2.5995   -7.9076   -5.0783 C.2       1 <0>         0.5411
     16 O3          2.9609   -8.7167   -5.9116 O.2       1 <0>        -0.4121
     17 S1          1.7975   -8.2116   -3.5122 S.3       1 <0>        -0.0134
     18 C13         3.3441   -5.9270   -6.2694 C.3       1 <0>         0.0659
     19 C14         4.8489   -5.7985   -6.0250 C.3       1 <0>        -0.0254
     20 N2          5.4810   -5.1596   -7.1869 N.4       1 <0>        -0.6291
     21 H1          1.0962    2.0475   -0.7887 H         1 <0>         0.0675
     22 H2         -0.6010    1.7871   -0.3194 H         1 <0>         0.0693
     23 H3          0.6424    2.0232    0.9323 H         1 <0>         0.0835
     24 H4          1.7185   -0.1089    0.2655 H         1 <0>         0.0660
     25 H5          0.0214   -0.3692    0.7348 H         1 <0>         0.0680
     26 H6          1.1768   -2.0988    0.6155 H         1 <0>         0.1371
     27 H7          1.4845   -4.5250    0.3825 H         1 <0>         0.1357
     28 H8          0.3233   -4.2593   -3.7457 H         1 <0>         0.1271
     29 H9          0.0109   -1.8358   -3.4921 H         1 <0>         0.1357
     30 H10         0.8141   -6.6694   -1.0427 H         1 <0>         0.1614
     31 H11         3.1708   -6.5351   -7.1573 H         1 <0>         0.1211
     32 H12         2.9142   -4.9364   -6.4178 H         1 <0>         0.1248
     33 H13         5.0222   -5.1905   -5.1370 H         1 <0>         0.1418
     34 H14         5.2788   -6.7891   -5.8765 H         1 <0>         0.1404
     35 H15         5.0831   -4.2426   -7.3243 H         1 <0>         0.4394
     36 H16         6.4734   -5.0748   -7.0257 H         1 <0>         0.4452
     37 H17         5.3206   -5.7224   -8.0089 H         1 <0>         0.4391
@<TRIPOS>BOND
     1    1    2 1
     2    1   21 1
     3    1   22 1
     4    1   23 1
     5    2    3 1
     6    2   24 1
     7    2   25 1
     8    3    4 1
     9    4    9 ar
    10    4    5 ar
    11    5    6 ar
    12    5   26 1
    13    6    7 ar
    14    6   27 1
    15    7    8 ar
    16    7   10 1
    17    8    9 ar
    18    8   28 1
    19    9   29 1
    20   10   11 2
    21   10   30 1
    22   11   17 1
    23   11   12 1
    24   12   13 2
    25   12   14 am
    26   14   15 am
    27   14   18 1
    28   15   16 2
    29   15   17 1
    30   18   19 1
    31   18   31 1
    32   18   32 1
    33   19   20 1
    34   19   33 1
    35   19   34 1
    36   20   35 1
    37   20   36 1
    38   20   37 1
@<TRIPOS>MOLECULE
ZINC01641925
   40    42     0     0     0
SMALL
USER_CHARGES

@<TRIPOS>ATOM
      1 C1         -0.0178    1.4608    0.0101 C.3       1 <0>         0.0831
      2 N1          0.0021   -0.0041    0.0020 N.pl3     1 <0>        -0.4808
      3 C2          0.0085   -0.8054   -1.1023 C.2       1 <0>         0.2308
      4 N2          0.0274   -2.0557   -0.7436 N.2       1 <0>        -0.4545
      5 C3          0.0343   -2.1368    0.6098 C.ar      1 <0>        -0.1554
      6 C4          0.0236   -0.8217    1.1034 C.ar      1 <0>         0.3460
      7 N3          0.0327   -0.6231    2.4177 N.ar      1 <0>        -0.6159
      8 C5          0.0544   -1.6488    3.2534 C.ar      1 <0>         0.6298
      9 N4          0.0680   -2.9065    2.8307 N.ar      1 <0>        -0.6237
     10 C6          0.0525   -3.1954    1.5342 C.ar      1 <0>         0.5415
     11 N5          0.0685   -4.5100    1.1029 N.pl3     1 <0>        -0.6890
     12 C7          0.0874   -5.6013    2.0801 C.3       1 <0>         0.1707
     13 C8          0.1022   -6.9232    1.3567 C.ar      1 <0>        -0.1135
     14 C9         -1.0881   -7.5430    1.0249 C.ar      1 <0>        -0.0983
     15 C10        -1.0745   -8.7555    0.3613 C.ar      1 <0>        -0.1220
     16 C11         0.1294   -9.3482    0.0290 C.ar      1 <0>        -0.1103
     17 C12         1.3196   -8.7280    0.3600 C.ar      1 <0>        -0.1222
     18 C13         1.3060   -7.5133    1.0198 C.ar      1 <0>        -0.0984
     19 N6          0.0637   -1.4010    4.6162 N.pl3     1 <0>        -0.6906
     20 C14         0.0877   -2.5182    5.5636 C.3       1 <0>         0.1417
     21 C15         0.0936   -1.9741    6.9936 C.3       1 <0>         0.0611
     22 O1         -1.1346   -1.2892    7.2477 O.3       1 <0>        -0.5709
     23 H1          1.0048    1.8381    0.0023 H         1 <0>         0.0748
     24 H2         -0.5450    1.8219   -0.8730 H         1 <0>         0.0893
     25 H3         -0.5280    1.8123    0.9069 H         1 <0>         0.0882
     26 H4         -0.0013   -0.4536   -2.1234 H         1 <0>         0.2190
     27 H5          0.0672   -4.7091    0.1536 H         1 <0>         0.4197
     28 H6          0.9790   -5.5172    2.7015 H         1 <0>         0.0778
     29 H7         -0.8008   -5.5413    2.7091 H         1 <0>         0.0779
     30 H8         -2.0286   -7.0800    1.2846 H         1 <0>         0.1238
     31 H9         -2.0044   -9.2401    0.1028 H         1 <0>         0.1245
     32 H10         0.1400  -10.2958   -0.4888 H         1 <0>         0.1237
     33 H11         2.2602   -9.1911    0.1006 H         1 <0>         0.1244
     34 H12         2.2359   -7.0270    1.2750 H         1 <0>         0.1237
     35 H13         0.0543   -0.4879    4.9432 H         1 <0>         0.4161
     36 H14        -0.7954   -3.1397    5.4150 H         1 <0>         0.0745
     37 H15         0.9844   -3.1155    5.3984 H         1 <0>         0.0812
     38 H16         0.2009   -2.8004    7.6963 H         1 <0>         0.0659
     39 H17         0.9273   -1.2826    7.1158 H         1 <0>         0.0536
     40 H18        -1.2006   -0.9172    8.1379 H         1 <0>         0.3829
@<TRIPOS>BOND
     1    1    2 1
     2    1   23 1
     3    1   24 1
     4    1   25 1
     5    2    6 1
     6    2    3 1
     7    3    4 2
     8    3   26 1
     9    4    5 1
    10    5   10 ar
    11    5    6 ar
    12    6    7 ar
    13    7    8 ar
    14    8    9 ar
    15    8   19 1
    16    9   10 ar
    17   10   11 1
    18   11   12 1
    19   11   27 1
    20   12   13 1
    21   12   28 1
    22   12   29 1
    23   13   18 ar
    24   13   14 ar
    25   14   15 ar
    26   14   30 1
    27   15   16 ar
    28   15   31 1
    29   16   17 ar
    30   16   32 1
    31   17   18 ar
    32   17   33 1
    33   18   34 1
    34   19   20 1
    35   19   35 1
    36   20   21 1
    37   20   36 1
    38   20   37 1
    39   21   22 1
    40   21   38 1
    41   21   39 1
    42   22   40 1
@<TRIPOS>MOLECULE
ZINC01639355
   31    34     0     0     0
SMALL
USER_CHARGES

@<TRIPOS>ATOM
      1 C1         -0.0166    1.3732    0.0096 C.ar      1 <0>        -0.1257
      2 C2          1.1748    2.0786    0.0020 C.ar      1 <0>        -0.0832
      3 C3          2.3792    1.4098    0.0056 C.ar      1 <0>        -0.1400
      4 C4          2.4210    0.0136    0.0061 C.ar      1 <0>         0.1789
      5 C5          1.2194   -0.6945   -0.0178 C.ar      1 <0>        -0.0582
      6 C6          0.0021   -0.0041    0.0020 C.ar      1 <0>        -0.0848
      7 C7          1.1765   -2.1700   -0.1110 C.2       1 <0>         0.1249
      8 C8          2.0458   -2.9289   -0.8258 C.2       1 <0>        -0.1473
      9 C9          1.6305   -4.3071   -0.6826 C.ar      1 <0>        -0.0956
     10 C10         2.1330   -5.5059   -1.2017 C.ar      1 <0>        -0.0291
     11 C11         1.4744   -6.6587   -0.8492 C.ar      1 <0>        -0.1144
     12 C12         0.3640   -6.6479   -0.0195 C.ar      1 <0>        -0.0709
     13 C13        -0.1535   -5.4768    0.5077 C.ar      1 <0>        -0.1209
     14 C14         0.4938   -4.2910    0.1676 C.ar      1 <0>         0.1207
     15 N1          0.2503   -2.9898    0.5038 N.pl3     1 <0>        -0.5782
     16 H1         -0.4640   -2.6874    1.0863 H         1 <0>         0.4210
     17 Br1         2.1020   -8.3126   -1.5175 Br        1 <0>        -0.0539
     18 C15         3.2306   -2.3907   -1.5888 C.3       1 <0>        -0.0636
     19 C16         4.1060   -1.6483   -0.6094 C.2       1 <0>         0.5307
     20 O1          5.2428   -2.0303   -0.4280 O.2       1 <0>        -0.5234
     21 N2          3.6660   -0.5863    0.0608 N.am      1 <0>        -0.6636
     22 H2         -0.9584    1.9016    0.0259 H         1 <0>         0.1335
     23 H3          1.1598    3.1584   -0.0064 H         1 <0>         0.1345
     24 H4          3.3016    1.9714    0.0076 H         1 <0>         0.1356
     25 H5         -0.9274   -0.5540    0.0114 H         1 <0>         0.1274
     26 H6          2.9973   -5.5236   -1.8490 H         1 <0>         0.1433
     27 H7         -0.1141   -7.5852    0.2239 H         1 <0>         0.1348
     28 H8         -1.0196   -5.4824    1.1528 H         1 <0>         0.1402
     29 H9          3.7892   -3.2143   -2.0334 H         1 <0>         0.1154
     30 H10         2.8897   -1.7104   -2.3693 H         1 <0>         0.1052
     31 H11         4.3030   -0.1787    0.6682 H         1 <0>         0.4064
@<TRIPOS>BOND
     1    1    6 ar
     2    1    2 ar
     3    1   22 1
     4    2    3 ar
     5    2   23 1
     6    3    4 ar
     7    3   24 1
     8    4   21 1
     9    4    5 ar
    10    5    6 ar
    11    5    7 1
    12    6   25 1
    13    7   15 1
    14    7    8 2
    15    8    9 1
    16    8   18 1
    17    9   14 ar
    18    9   10 ar
    19   10   11 ar
    20   10   26 1
    21   11   12 ar
    22   11   17 1
    23   12   13 ar
    24   12   27 1
    25   13   14 ar
    26   13   28 1
    27   14   15 1
    28   15   16 1
    29   18   19 1
    30   18   29 1
    31   18   30 1
    32   19   20 2
    33   19   21 am
    34   21   31 1
@<TRIPOS>MOLECULE
ZINC13580862
   34    37     0     0     0
SMALL
USER_CHARGES

@<TRIPOS>ATOM
      1 C1         -0.0164    1.3616    0.0095 C.ar      1 <0>        -0.1568
      2 C2          1.1701    2.0826    0.0021 C.ar      1 <0>        -0.0943
      3 C3          2.3839    1.4335   -0.0114 C.ar      1 <0>        -0.1397
      4 C4          2.4279    0.0416   -0.0160 C.ar      1 <0>         0.1068
      5 C5          1.2201   -0.6857   -0.0118 C.ar      1 <0>        -0.0636
      6 C6          0.0021   -0.0041    0.0020 C.ar      1 <0>        -0.0311
      7 C7          1.5998   -2.0957   -0.0246 C.2       1 <0>        -0.0103
      8 C8          2.9976   -2.1314    0.0009 C.2       1 <0>        -0.0027
      9 N1          3.4750   -0.8572   -0.0263 N.pl3     1 <0>        -0.5583
     10 H1          4.4143   -0.6161   -0.0496 H         1 <0>         0.4147
     11 C9          3.7166   -3.4155    0.1011 C.2       1 <0>         0.6050
     12 O1          4.6730   -3.5468    0.8418 O.2       1 <0>        -0.5339
     13 N2          3.2717   -4.4452   -0.6632 N.am      1 <0>        -0.7165
     14 C10         2.3631   -4.2092   -1.7752 C.3       1 <0>         0.1179
     15 C11         0.8937   -4.1436   -1.3483 C.3       1 <0>        -0.0809
     16 C12         0.7762   -3.3011   -0.0939 C.2       1 <0>        -0.1249
     17 C13        -0.0591   -3.6520    0.9234 C.2       1 <0>         0.1038
     18 C14        -0.2770   -2.9332    2.1846 C.2       1 <0>         0.4611
     19 O2          0.3200   -1.7809    2.5644 O.3       1 <0>        -0.6166
     20 N3         -1.1620   -3.6190    2.8767 N.2       1 <0>        -0.6256
     21 C15        -1.5457   -4.7115    2.1993 C.2       1 <0>         0.5794
     22 N4         -0.8952   -4.7692    0.9859 N.pl3     1 <0>        -0.7326
     23 N5         -2.4175   -5.5935    2.6273 N.2       1 <0>        -0.7934
     24 H2         -0.9612    1.8845    0.0259 H         1 <0>         0.1183
     25 H3          1.1404    3.1622    0.0065 H         1 <0>         0.1205
     26 H4          3.3013    2.0033   -0.0188 H         1 <0>         0.1156
     27 H5         -0.9258   -0.5566    0.0071 H         1 <0>         0.1160
     28 H6          3.5626   -5.3493   -0.4656 H         1 <0>         0.4040
     29 H7          2.6315   -3.2670   -2.2531 H         1 <0>         0.0751
     30 H8          2.4814   -5.0136   -2.5012 H         1 <0>         0.0826
     31 H9          0.3026   -3.6934   -2.1458 H         1 <0>         0.0832
     32 H10         0.5278   -5.1503   -1.1465 H         1 <0>         0.0637
     33 H11        -0.9968   -5.4546    0.3070 H         1 <0>         0.3993
     34 H12        -2.6425   -6.3597    2.0767 H         1 <0>         0.3141
@<TRIPOS>BOND
     1    1    6 ar
     2    1    2 ar
     3    1   24 1
     4    2    3 ar
     5    2   25 1
     6    3    4 ar
     7    3   26 1
     8    4    9 1
     9    4    5 ar
    10    5    6 ar
    11    5    7 1
    12    6   27 1
    13    7   16 1
    14    7    8 2
    15    8    9 1
    16    8   11 1
    17    9   10 1
    18   11   12 2
    19   11   13 am
    20   13   14 1
    21   13   28 1
    22   14   15 1
    23   14   29 1
    24   14   30 1
    25   15   16 1
    26   15   31 1
    27   15   32 1
    28   16   17 2
    29   17   22 1
    30   17   18 1
    31   18   19 1
    32   18   20 2
    33   20   21 1
    34   21   22 1
    35   21   23 2
    36   22   33 1
    37   23   34 1
@<TRIPOS>MOLECULE
ZINC13580862
   35    38     0     0     0
SMALL
USER_CHARGES

@<TRIPOS>ATOM
      1 C1         -0.0164    1.3616    0.0095 C.ar      1 <0>        -0.1343
      2 C2          1.1701    2.0828    0.0021 C.ar      1 <0>        -0.0896
      3 C3          2.3839    1.4337   -0.0123 C.ar      1 <0>        -0.1230
      4 C4          2.4280    0.0419   -0.0181 C.ar      1 <0>         0.1037
      5 C5          1.2200   -0.6856   -0.0124 C.ar      1 <0>        -0.0867
      6 C6          0.0021   -0.0041    0.0020 C.ar      1 <0>        -0.0711
      7 C7          1.6004   -2.0952   -0.0247 C.2       1 <0>        -0.1173
      8 C8          2.9975   -2.1301   -0.0021 C.2       1 <0>         0.0496
      9 N1          3.4746   -0.8574   -0.0312 N.pl3     1 <0>        -0.5456
     10 H1          4.4138   -0.6165   -0.0576 H         1 <0>         0.4254
     11 C9          3.7172   -3.4156    0.0981 C.2       1 <0>         0.5915
     12 O1          4.6750   -3.5459    0.8367 O.2       1 <0>        -0.5186
     13 N2          3.2708   -4.4465   -0.6635 N.am      1 <0>        -0.7114
     14 C10         2.3605   -4.2128   -1.7747 C.3       1 <0>         0.1119
     15 C11         0.8920   -4.1471   -1.3455 C.3       1 <0>        -0.1049
     16 C12         0.7767   -3.3024   -0.0905 C.2       1 <0>         0.0208
     17 C13        -0.0540   -3.6515    0.9268 C.2       1 <0>        -0.0037
     18 C14        -0.9343   -4.8342    1.0059 C.2       1 <0>         0.5400
     19 O2         -1.0659   -5.7065    0.1629 O.2       1 <0>        -0.4699
     20 N3         -1.5593   -4.7585    2.1891 N.2       1 <0>        -0.6424
     21 C15        -1.1761   -3.6839    2.8438 C.2       1 <0>         0.6564
     22 N4         -0.2590   -2.9736    2.1312 N.pl3     1 <0>        -0.6643
     23 N5         -1.6360   -3.3285    4.0823 N.pl3     1 <0>        -0.8045
     24 H2         -0.9612    1.8845    0.0259 H         1 <0>         0.1279
     25 H3          1.1404    3.1624    0.0072 H         1 <0>         0.1316
     26 H4          3.3013    2.0035   -0.0195 H         1 <0>         0.1265
     27 H5         -0.9258   -0.5567    0.0073 H         1 <0>         0.1227
     28 H6          3.5624   -5.3500   -0.4649 H         1 <0>         0.4132
     29 H7          2.6277   -3.2713   -2.2546 H         1 <0>         0.0772
     30 H8          2.4781   -5.0184   -2.4994 H         1 <0>         0.0992
     31 H9          0.2993   -3.6983   -2.1426 H         1 <0>         0.1051
     32 H10         0.5268   -5.1537   -1.1417 H         1 <0>         0.1090
     33 H11         0.1708   -2.1491    2.4074 H         1 <0>         0.4254
     34 H12        -2.2886   -3.8851    4.5354 H         1 <0>         0.4332
     35 H13        -1.3094   -2.5201    4.5073 H         1 <0>         0.4168
@<TRIPOS>BOND
     1    1    6 ar
     2    1    2 ar
     3    1   24 1
     4    2    3 ar
     5    2   25 1
     6    3    4 ar
     7    3   26 1
     8    4    9 1
     9    4    5 ar
    10    5    6 ar
    11    5    7 1
    12    6   27 1
    13    7   16 1
    14    7    8 2
    15    8    9 1
    16    8   11 1
    17    9   10 1
    18   11   12 2
    19   11   13 am
    20   13   14 1
    21   13   28 1
    22   14   15 1
    23   14   29 1
    24   14   30 1
    25   15   16 1
    26   15   31 1
    27   15   32 1
    28   16   17 2
    29   17   22 1
    30   17   18 1
    31   18   19 2
    32   18   20 1
    33   20   21 2
    34   21   22 1
    35   21   23 1
    36   22   33 1
    37   23   34 1
    38   23   35 1
@<TRIPOS>MOLECULE
ZINC13580862
   34    37     0     0     0
SMALL
USER_CHARGES

@<TRIPOS>ATOM
      1 C1         -0.0164    1.3616    0.0095 C.ar      1 <0>        -0.1495
      2 C2          1.1701    2.0828    0.0021 C.ar      1 <0>        -0.0925
      3 C3          2.3839    1.4337   -0.0123 C.ar      1 <0>        -0.1344
      4 C4          2.4280    0.0419   -0.0181 C.ar      1 <0>         0.1053
      5 C5          1.2200   -0.6856   -0.0124 C.ar      1 <0>        -0.0962
      6 C6          0.0021   -0.0041    0.0020 C.ar      1 <0>        -0.0532
      7 C7          1.6004   -2.0952   -0.0247 C.2       1 <0>        -0.0481
      8 C8          2.9975   -2.1301   -0.0021 C.2       1 <0>         0.0087
      9 N1          3.4746   -0.8574   -0.0312 N.pl3     1 <0>        -0.5549
     10 H1          4.4138   -0.6165   -0.0576 H         1 <0>         0.4175
     11 C9          3.7172   -3.4156    0.0981 C.2       1 <0>         0.6012
     12 O1          4.6750   -3.5459    0.8367 O.2       1 <0>        -0.5370
     13 N2          3.2708   -4.4465   -0.6635 N.am      1 <0>        -0.7082
     14 C10         2.3605   -4.2128   -1.7747 C.3       1 <0>         0.1160
     15 C11         0.8920   -4.1471   -1.3455 C.3       1 <0>        -0.0808
     16 C12         0.7767   -3.3024   -0.0905 C.2       1 <0>        -0.1251
     17 C13        -0.0540   -3.6515    0.9268 C.2       1 <0>         0.0825
     18 C14        -0.9343   -4.8342    1.0059 C.2       1 <0>         0.5128
     19 O2         -1.0659   -5.7065    0.1629 O.2       1 <0>        -0.5579
     20 N3         -1.5593   -4.7585    2.1891 N.2       1 <0>        -0.7159
     21 C15        -1.1761   -3.6839    2.8438 C.2       1 <0>         0.5690
     22 N4         -0.2590   -2.9736    2.1312 N.pl3     1 <0>        -0.6693
     23 N5         -1.6360   -3.3285    4.0823 N.2       1 <0>        -0.8523
     24 H2         -0.9612    1.8845    0.0259 H         1 <0>         0.1227
     25 H3          1.1404    3.1624    0.0072 H         1 <0>         0.1245
     26 H4          3.3013    2.0035   -0.0195 H         1 <0>         0.1193
     27 H5         -0.9258   -0.5567    0.0073 H         1 <0>         0.1234
     28 H6          3.5624   -5.3500   -0.4649 H         1 <0>         0.4073
     29 H7          2.6277   -3.2713   -2.2546 H         1 <0>         0.0683
     30 H8          2.4781   -5.0184   -2.4994 H         1 <0>         0.0854
     31 H9          0.2993   -3.6983   -2.1426 H         1 <0>         0.0798
     32 H10         0.5268   -5.1537   -1.1417 H         1 <0>         0.1019
     33 H11         0.1708   -2.1491    2.4074 H         1 <0>         0.4080
     34 H12        -2.2886   -3.8851    4.5354 H         1 <0>         0.3215
@<TRIPOS>BOND
     1    1    6 ar
     2    1    2 ar
     3    1   24 1
     4    2    3 ar
     5    2   25 1
     6    3    4 ar
     7    3   26 1
     8    4    9 1
     9    4    5 ar
    10    5    6 ar
    11    5    7 1
    12    6   27 1
    13    7   16 1
    14    7    8 2
    15    8    9 1
    16    8   11 1
    17    9   10 1
    18   11   12 2
    19   11   13 am
    20   13   14 1
    21   13   28 1
    22   14   15 1
    23   14   29 1
    24   14   30 1
    25   15   16 1
    26   15   31 1
    27   15   32 1
    28   16   17 2
    29   17   22 1
    30   17   18 1
    31   18   19 2
    32   18   20 1
    33   20   21 2
    34   21   22 1
    35   21   23 1
    36   22   33 1
    37   23   34 1
@<TRIPOS>MOLECULE
ZINC13580862
   34    37     0     0     0
SMALL
USER_CHARGES

@<TRIPOS>ATOM
      1 C1         -0.0164    1.3616    0.0095 C.ar      1 <0>        -0.1551
      2 C2          1.1701    2.0828    0.0021 C.ar      1 <0>        -0.0941
      3 C3          2.3839    1.4337   -0.0123 C.ar      1 <0>        -0.1381
      4 C4          2.4280    0.0419   -0.0181 C.ar      1 <0>         0.1061
      5 C5          1.2200   -0.6856   -0.0124 C.ar      1 <0>        -0.0710
      6 C6          0.0021   -0.0041    0.0020 C.ar      1 <0>        -0.0369
      7 C7          1.6004   -2.0952   -0.0247 C.2       1 <0>        -0.0149
      8 C8          2.9975   -2.1301   -0.0021 C.2       1 <0>        -0.0003
      9 N1          3.4746   -0.8574   -0.0312 N.pl3     1 <0>        -0.5571
     10 H1          4.4138   -0.6165   -0.0576 H         1 <0>         0.4154
     11 C9          3.7172   -3.4156    0.0981 C.2       1 <0>         0.6044
     12 O1          4.6750   -3.5459    0.8367 O.2       1 <0>        -0.5344
     13 N2          3.2708   -4.4465   -0.6635 N.am      1 <0>        -0.7147
     14 C10         2.3605   -4.2128   -1.7747 C.3       1 <0>         0.1176
     15 C11         0.8920   -4.1471   -1.3455 C.3       1 <0>        -0.0808
     16 C12         0.7767   -3.3024   -0.0905 C.2       1 <0>        -0.1328
     17 C13        -0.0540   -3.6515    0.9268 C.2       1 <0>         0.0841
     18 C14        -0.2754   -2.9318    2.1968 C.2       1 <0>         0.5077
     19 O2          0.2554   -1.8917    2.5509 O.2       1 <0>        -0.5381
     20 N3         -1.1765   -3.6488    2.8826 N.2       1 <0>        -0.7200
     21 C15        -1.5350   -4.7131    2.1976 C.2       1 <0>         0.5694
     22 N4         -0.8916   -4.7675    0.9991 N.pl3     1 <0>        -0.6726
     23 N5         -2.4406   -5.6422    2.6314 N.2       1 <0>        -0.8579
     24 H2         -0.9612    1.8845    0.0259 H         1 <0>         0.1192
     25 H3          1.1404    3.1624    0.0072 H         1 <0>         0.1216
     26 H4          3.3013    2.0035   -0.0195 H         1 <0>         0.1166
     27 H5         -0.9258   -0.5567    0.0073 H         1 <0>         0.1172
     28 H6          3.5624   -5.3500   -0.4649 H         1 <0>         0.4049
     29 H7          2.6277   -3.2713   -2.2546 H         1 <0>         0.0741
     30 H8          2.4781   -5.0184   -2.4994 H         1 <0>         0.0833
     31 H9          0.2993   -3.6983   -2.1426 H         1 <0>         0.0830
     32 H10         0.5268   -5.1537   -1.1417 H         1 <0>         0.0664
     33 H11        -0.9940   -5.4545    0.3220 H         1 <0>         0.4063
     34 H12        -2.8651   -5.5383    3.4973 H         1 <0>         0.3213
@<TRIPOS>BOND
     1    1    6 ar
     2    1    2 ar
     3    1   24 1
     4    2    3 ar
     5    2   25 1
     6    3    4 ar
     7    3   26 1
     8    4    9 1
     9    4    5 ar
    10    5    6 ar
    11    5    7 1
    12    6   27 1
    13    7   16 1
    14    7    8 2
    15    8    9 1
    16    8   11 1
    17    9   10 1
    18   11   12 2
    19   11   13 am
    20   13   14 1
    21   13   28 1
    22   14   15 1
    23   14   29 1
    24   14   30 1
    25   15   16 1
    26   15   31 1
    27   15   32 1
    28   16   17 2
    29   17   22 1
    30   17   18 1
    31   18   19 2
    32   18   20 1
    33   20   21 2
    34   21   22 1
    35   21   23 1
    36   22   33 1
    37   23   34 1
@<TRIPOS>MOLECULE
ZINC13580862
   35    38     0     0     0
SMALL
USER_CHARGES

@<TRIPOS>ATOM
      1 C1         -0.0164    1.3616    0.0095 C.ar      1 <0>        -0.1383
      2 C2          1.1701    2.0828    0.0021 C.ar      1 <0>        -0.0901
      3 C3          2.3839    1.4337   -0.0123 C.ar      1 <0>        -0.1266
      4 C4          2.4280    0.0419   -0.0181 C.ar      1 <0>         0.1046
      5 C5          1.2200   -0.6856   -0.0124 C.ar      1 <0>        -0.0646
      6 C6          0.0021   -0.0041    0.0020 C.ar      1 <0>        -0.0552
      7 C7          1.6004   -2.0952   -0.0247 C.2       1 <0>        -0.0884
      8 C8          2.9975   -2.1301   -0.0021 C.2       1 <0>         0.0410
      9 N1          3.4746   -0.8574   -0.0312 N.pl3     1 <0>        -0.5469
     10 H1          4.4138   -0.6165   -0.0576 H         1 <0>         0.4234
     11 C9          3.7172   -3.4156    0.0981 C.2       1 <0>         0.5951
     12 O1          4.6750   -3.5459    0.8367 O.2       1 <0>        -0.5149
     13 N2          3.2708   -4.4465   -0.6635 N.am      1 <0>        -0.7182
     14 C10         2.3605   -4.2128   -1.7747 C.3       1 <0>         0.1131
     15 C11         0.8920   -4.1471   -1.3455 C.3       1 <0>        -0.1026
     16 C12         0.7767   -3.3024   -0.0905 C.2       1 <0>         0.0118
     17 C13        -0.0540   -3.6515    0.9268 C.2       1 <0>        -0.0010
     18 C14        -0.2754   -2.9318    2.1968 C.2       1 <0>         0.5312
     19 O2          0.2554   -1.8917    2.5509 O.2       1 <0>        -0.4476
     20 N3         -1.1765   -3.6488    2.8826 N.2       1 <0>        -0.6417
     21 C15        -1.5350   -4.7131    2.1976 C.2       1 <0>         0.6536
     22 N4         -0.8916   -4.7675    0.9991 N.pl3     1 <0>        -0.6693
     23 N5         -2.4406   -5.6422    2.6314 N.pl3     1 <0>        -0.8057
     24 H2         -0.9612    1.8845    0.0259 H         1 <0>         0.1253
     25 H3          1.1404    3.1624    0.0072 H         1 <0>         0.1293
     26 H4          3.3013    2.0035   -0.0195 H         1 <0>         0.1242
     27 H5         -0.9258   -0.5567    0.0073 H         1 <0>         0.1167
     28 H6          3.5624   -5.3500   -0.4649 H         1 <0>         0.4100
     29 H7          2.6277   -3.2713   -2.2546 H         1 <0>         0.0824
     30 H8          2.4781   -5.0184   -2.4994 H         1 <0>         0.0958
     31 H9          0.2993   -3.6983   -2.1426 H         1 <0>         0.1056
     32 H10         0.5268   -5.1537   -1.1417 H         1 <0>         0.0754
     33 H11        -0.9940   -5.4545    0.3220 H         1 <0>         0.4235
     34 H12        -2.8651   -5.5383    3.4973 H         1 <0>         0.4331
     35 H13        -2.6582   -6.4049    2.0729 H         1 <0>         0.4161
@<TRIPOS>BOND
     1    1    6 ar
     2    1    2 ar
     3    1   24 1
     4    2    3 ar
     5    2   25 1
     6    3    4 ar
     7    3   26 1
     8    4    9 1
     9    4    5 ar
    10    5    6 ar
    11    5    7 1
    12    6   27 1
    13    7   16 1
    14    7    8 2
    15    8    9 1
    16    8   11 1
    17    9   10 1
    18   11   12 2
    19   11   13 am
    20   13   14 1
    21   13   28 1
    22   14   15 1
    23   14   29 1
    24   14   30 1
    25   15   16 1
    26   15   31 1
    27   15   32 1
    28   16   17 2
    29   17   22 1
    30   17   18 1
    31   18   19 2
    32   18   20 1
    33   20   21 2
    34   21   22 1
    35   21   23 1
    36   22   33 1
    37   23   34 1
    38   23   35 1
@<TRIPOS>MOLECULE
ZINC01420826
   33    35     0     0     0
SMALL
USER_CHARGES

@<TRIPOS>ATOM
      1 C1         -0.2640    1.4582    0.2295 C.3       1 <0>         0.0301
      2 O1         -0.2493    0.0297    0.1969 O.3       1 <0>        -0.3207
      3 C2          0.4992   -0.6018    1.1409 C.ar      1 <0>         0.0490
      4 C3          1.1978    0.1379    2.0794 C.ar      1 <0>        -0.1382
      5 C4          1.9630   -0.4975    3.0440 C.ar      1 <0>        -0.1406
      6 C5          2.0373   -1.8727    3.0802 C.ar      1 <0>        -0.0639
      7 C6          1.3377   -2.6358    2.1402 C.ar      1 <0>        -0.1328
      8 C7          0.5583   -1.9932    1.1669 C.ar      1 <0>         0.2409
      9 N1         -0.1475   -2.7419    0.2283 N.pl3     1 <0>        -0.8573
     10 C8          1.4147   -4.1068    2.1749 C.2       1 <0>         0.2178
     11 C9          1.0618   -4.7544    3.3206 C.2       1 <0>        -0.3076
     12 C10         1.1294   -6.1644    3.3719 C.2       1 <0>         0.4204
     13 O2          0.8210   -6.7776    4.3806 O.2       1 <0>        -0.4693
     14 C11         1.5877   -6.8669    2.1564 C.ar      1 <0>        -0.2226
     15 C12         1.6848   -8.2567    2.1164 C.ar      1 <0>        -0.0314
     16 C13         2.1163   -8.8752    0.9631 C.ar      1 <0>        -0.1475
     17 C14         2.4521   -8.1209   -0.1515 C.ar      1 <0>        -0.0571
     18 C15         2.3601   -6.7455   -0.1239 C.ar      1 <0>        -0.1402
     19 C16         1.9272   -6.1026    1.0294 C.ar      1 <0>         0.1418
     20 O3          1.8245   -4.7578    1.0752 O.3       1 <0>        -0.2203
     21 H1          0.7504    1.8351    0.0993 H         1 <0>         0.0561
     22 H2         -0.8970    1.8335   -0.5746 H         1 <0>         0.1012
     23 H3         -0.6567    1.7957    1.1887 H         1 <0>         0.0563
     24 H4          1.1465    1.2165    2.0594 H         1 <0>         0.1344
     25 H5          2.5047    0.0887    3.7716 H         1 <0>         0.1330
     26 H6          2.6362   -2.3614    3.8344 H         1 <0>         0.1334
     27 H7         -0.6084   -2.2967   -0.4999 H         1 <0>         0.4092
     28 H8         -0.1781   -3.7086    0.3027 H         1 <0>         0.3993
     29 H9          0.7332   -4.1938    4.1832 H         1 <0>         0.1616
     30 H10         1.4240   -8.8450    2.9837 H         1 <0>         0.1428
     31 H11         2.1936   -9.9518    0.9270 H         1 <0>         0.1372
     32 H12         2.7895   -8.6160   -1.0501 H         1 <0>         0.1415
     33 H13         2.6246   -6.1683   -0.9976 H         1 <0>         0.1434
@<TRIPOS>BOND
     1    1    2 1
     2    1   21 1
     3    1   22 1
     4    1   23 1
     5    2    3 1
     6    3    8 ar
     7    3    4 ar
     8    4    5 ar
     9    4   24 1
    10    5    6 ar
    11    5   25 1
    12    6    7 ar
    13    6   26 1
    14    7    8 ar
    15    7   10 1
    16    8    9 1
    17    9   27 1
    18    9   28 1
    19   10   20 1
    20   10   11 2
    21   11   12 1
    22   11   29 1
    23   12   13 2
    24   12   14 1
    25   14   19 ar
    26   14   15 ar
    27   15   16 ar
    28   15   30 1
    29   16   17 ar
    30   16   31 1
    31   17   18 ar
    32   17   32 1
    33   18   19 ar
    34   18   33 1
    35   19   20 1
@<TRIPOS>MOLECULE
ZINC17175232
   28    30     0     0     0
SMALL
USER_CHARGES

@<TRIPOS>ATOM
      1 C1         -0.0163    1.3518    0.0095 C.2       1 <0>        -0.1320
      2 C2          1.3148    1.7902   -0.0009 C.2       1 <0>        -0.0473
      3 C3          2.1177    0.6382   -0.0541 C.2       1 <0>        -0.0284
      4 N1          1.2938   -0.4402   -0.0184 N.pl3     1 <0>        -0.4947
      5 H1          1.5772   -1.3679   -0.0093 H         1 <0>         0.4228
      6 C4          0.0021   -0.0041    0.0020 C.2       1 <0>         0.0135
      7 Br1        -1.5265   -1.1172    0.0181 Br        1 <0>         0.0029
      8 C5          3.5766    0.7389   -0.1870 C.2       1 <0>         0.6051
      9 O1          4.1929    0.0169   -0.9490 O.2       1 <0>        -0.5408
     10 N2          4.2121    1.6686    0.5723 N.am      1 <0>        -0.7065
     11 C6          3.5429    2.2863    1.7070 C.3       1 <0>         0.1163
     12 C7          2.6757    3.4872    1.3174 C.3       1 <0>        -0.0871
     13 C8          1.8765    3.1423    0.0746 C.2       1 <0>        -0.1143
     14 C9          1.6898    4.0463   -0.9242 C.2       1 <0>         0.1008
     15 C10         2.1957    5.4237   -0.9853 C.2       1 <0>         0.4669
     16 O2          2.9467    6.0446   -0.0478 O.3       1 <0>        -0.6390
     17 N3          1.7827    5.9409   -2.1226 N.2       1 <0>        -0.6194
     18 C11         1.0592    5.0459   -2.8124 C.2       1 <0>         0.5785
     19 N4          0.9806    3.8605   -2.1141 N.pl3     1 <0>        -0.7302
     20 N5          0.5113    5.2654   -3.9838 N.2       1 <0>        -0.7896
     21 H2         -0.8955    1.9789    0.0252 H         1 <0>         0.1528
     22 H3          5.1227    1.9234    0.3559 H         1 <0>         0.4078
     23 H4          2.9112    1.5403    2.1892 H         1 <0>         0.0663
     24 H5          4.2974    2.6164    2.4210 H         1 <0>         0.0851
     25 H6          1.9946    3.7249    2.1345 H         1 <0>         0.0799
     26 H7          3.3144    4.3465    1.1128 H         1 <0>         0.1130
     27 H8          0.5205    3.0537   -2.3935 H         1 <0>         0.4017
     28 H9          0.0011    4.5649   -4.4195 H         1 <0>         0.3159
@<TRIPOS>BOND
     1    1    6 2
     2    1    2 1
     3    1   21 1
     4    2   13 1
     5    2    3 2
     6    3    4 1
     7    3    8 1
     8    4    5 1
     9    4    6 1
    10    6    7 1
    11    8    9 2
    12    8   10 am
    13   10   11 1
    14   10   22 1
    15   11   12 1
    16   11   23 1
    17   11   24 1
    18   12   13 1
    19   12   25 1
    20   12   26 1
    21   13   14 2
    22   14   19 1
    23   14   15 1
    24   15   16 1
    25   15   17 2
    26   17   18 1
    27   18   19 1
    28   18   20 2
    29   19   27 1
    30   20   28 1
@<TRIPOS>MOLECULE
ZINC17175232
   28    30     0     0     0
SMALL
USER_CHARGES

@<TRIPOS>ATOM
      1 C1         -0.0163    1.3518    0.0095 C.2       1 <0>        -0.1303
      2 C2          1.3148    1.7902   -0.0009 C.2       1 <0>        -0.0482
      3 C3          2.1177    0.6382   -0.0541 C.2       1 <0>        -0.0280
      4 N1          1.2938   -0.4402   -0.0184 N.pl3     1 <0>        -0.4947
      5 H1          1.5772   -1.3679   -0.0093 H         1 <0>         0.4228
      6 C4          0.0021   -0.0041    0.0020 C.2       1 <0>         0.0141
      7 Br1        -1.5265   -1.1172    0.0181 Br        1 <0>         0.0028
      8 C5          3.5766    0.7389   -0.1870 C.2       1 <0>         0.6054
      9 O1          4.1929    0.0169   -0.9490 O.2       1 <0>        -0.5403
     10 N2          4.2121    1.6686    0.5723 N.am      1 <0>        -0.7071
     11 C6          3.5429    2.2863    1.7070 C.3       1 <0>         0.1165
     12 C7          2.6757    3.4872    1.3174 C.3       1 <0>        -0.0863
     13 C8          1.8765    3.1423    0.0746 C.2       1 <0>        -0.1135
     14 C9          1.6898    4.0463   -0.9242 C.2       1 <0>         0.1071
     15 C10         2.1957    5.4237   -0.9853 C.2       1 <0>         0.4664
     16 O2          2.9467    6.0446   -0.0478 O.3       1 <0>        -0.6433
     17 N3          1.7827    5.9409   -2.1226 N.2       1 <0>        -0.6748
     18 C11         1.0592    5.0459   -2.8124 C.2       1 <0>         0.5688
     19 N4          0.9806    3.8605   -2.1141 N.pl3     1 <0>        -0.6803
     20 N5          0.5113    5.2654   -3.9838 N.2       1 <0>        -0.8118
     21 H2         -0.8955    1.9789    0.0252 H         1 <0>         0.1537
     22 H3          5.1227    1.9234    0.3559 H         1 <0>         0.4075
     23 H4          2.9112    1.5403    2.1892 H         1 <0>         0.0668
     24 H5          4.2974    2.6164    2.4210 H         1 <0>         0.0848
     25 H6          1.9946    3.7249    2.1345 H         1 <0>         0.0802
     26 H7          3.3144    4.3465    1.1128 H         1 <0>         0.1125
     27 H8          0.6165    6.1282   -4.4144 H         1 <0>         0.3376
     28 H9          0.5205    3.0537   -2.3935 H         1 <0>         0.4116
@<TRIPOS>BOND
     1    1    6 2
     2    1    2 1
     3    1   21 1
     4    2   13 1
     5    2    3 2
     6    3    4 1
     7    3    8 1
     8    4    5 1
     9    4    6 1
    10    6    7 1
    11    8    9 2
    12    8   10 am
    13   10   11 1
    14   10   22 1
    15   11   12 1
    16   11   23 1
    17   11   24 1
    18   12   13 1
    19   12   25 1
    20   12   26 1
    21   13   14 2
    22   14   19 1
    23   14   15 1
    24   15   16 1
    25   15   17 2
    26   17   18 1
    27   18   19 1
    28   18   20 2
    29   19   28 1
    30   20   27 1
@<TRIPOS>MOLECULE
ZINC17175232
   28    30     0     0     0
SMALL
USER_CHARGES

@<TRIPOS>ATOM
      1 C1         -0.0163    1.3522    0.0095 C.2       1 <0>        -0.1304
      2 C2          1.3145    1.7899   -0.0009 C.2       1 <0>        -0.0459
      3 C3          2.1168    0.6384   -0.0541 C.2       1 <0>        -0.0300
      4 N1          1.2937   -0.4395   -0.0184 N.pl3     1 <0>        -0.4944
      5 H1          1.5775   -1.3670   -0.0089 H         1 <0>         0.4225
      6 C4          0.0021   -0.0041    0.0020 C.2       1 <0>         0.0140
      7 Br1        -1.5262   -1.1176    0.0181 Br        1 <0>         0.0029
      8 C5          3.5767    0.7391   -0.1874 C.2       1 <0>         0.6062
      9 O1          4.1928    0.0172   -0.9493 O.2       1 <0>        -0.5393
     10 N2          4.2125    1.6688    0.5718 N.am      1 <0>        -0.7083
     11 C6          3.5436    2.2865    1.7066 C.3       1 <0>         0.1168
     12 C7          2.6766    3.4877    1.3173 C.3       1 <0>        -0.0808
     13 C8          1.8770    3.1431    0.0747 C.2       1 <0>        -0.1250
     14 C9          1.6904    4.0451   -0.9215 C.2       1 <0>         0.0817
     15 C10         2.1965    5.4312   -0.9893 C.2       1 <0>         0.5130
     16 O2          2.8748    6.0047   -0.1528 O.2       1 <0>        -0.5579
     17 N3          1.7619    5.9328   -2.1536 N.2       1 <0>        -0.7162
     18 C11         1.0563    5.0350   -2.8068 C.2       1 <0>         0.5692
     19 N4          0.9819    3.8661   -2.1131 N.pl3     1 <0>        -0.6705
     20 N5          0.4771    5.2468   -4.0277 N.2       1 <0>        -0.8527
     21 H2         -0.8954    1.9794    0.0253 H         1 <0>         0.1535
     22 H3          5.1230    1.9236    0.3550 H         1 <0>         0.4071
     23 H4          2.9118    1.5406    2.1889 H         1 <0>         0.0681
     24 H5          4.2983    2.6165    2.4205 H         1 <0>         0.0845
     25 H6          1.9957    3.7255    2.1345 H         1 <0>         0.0803
     26 H7          3.3154    4.3469    1.1126 H         1 <0>         0.1016
     27 H8          0.5214    3.0596   -2.3928 H         1 <0>         0.4083
     28 H9          0.5746    6.1055   -4.4684 H         1 <0>         0.3216
@<TRIPOS>BOND
     1    1    6 2
     2    1    2 1
     3    1   21 1
     4    2   13 1
     5    2    3 2
     6    3    4 1
     7    3    8 1
     8    4    5 1
     9    4    6 1
    10    6    7 1
    11    8    9 2
    12    8   10 am
    13   10   11 1
    14   10   22 1
    15   11   12 1
    16   11   23 1
    17   11   24 1
    18   12   13 1
    19   12   25 1
    20   12   26 1
    21   13   14 2
    22   14   19 1
    23   14   15 1
    24   15   16 2
    25   15   17 1
    26   17   18 2
    27   18   19 1
    28   18   20 1
    29   19   27 1
    30   20   28 1
@<TRIPOS>MOLECULE
ZINC17175232
   29    31     0     0     0
SMALL
USER_CHARGES

@<TRIPOS>ATOM
      1 C1         -0.0163    1.3522    0.0095 C.2       1 <0>        -0.1233
      2 C2          1.3145    1.7899   -0.0009 C.2       1 <0>        -0.1048
      3 C3          2.1168    0.6384   -0.0541 C.2       1 <0>        -0.0013
      4 N1          1.2937   -0.4395   -0.0184 N.pl3     1 <0>        -0.4850
      5 H1          1.5775   -1.3670   -0.0089 H         1 <0>         0.4308
      6 C4          0.0021   -0.0041    0.0020 C.2       1 <0>         0.0189
      7 Br1        -1.5262   -1.1176    0.0181 Br        1 <0>         0.0227
      8 C5          3.5767    0.7391   -0.1874 C.2       1 <0>         0.5973
      9 O1          4.1928    0.0172   -0.9493 O.2       1 <0>        -0.5214
     10 N2          4.2125    1.6688    0.5718 N.am      1 <0>        -0.7121
     11 C6          3.5436    2.2865    1.7066 C.3       1 <0>         0.1126
     12 C7          2.6766    3.4877    1.3173 C.3       1 <0>        -0.1046
     13 C8          1.8770    3.1431    0.0747 C.2       1 <0>         0.0171
     14 C9          1.6904    4.0451   -0.9215 C.2       1 <0>        -0.0013
     15 C10         2.1965    5.4312   -0.9893 C.2       1 <0>         0.5402
     16 O2          2.8748    6.0047   -0.1528 O.2       1 <0>        -0.4687
     17 N3          1.7619    5.9328   -2.1536 N.2       1 <0>        -0.6424
     18 C11         1.0563    5.0350   -2.8068 C.2       1 <0>         0.6571
     19 N4          0.9819    3.8661   -2.1131 N.pl3     1 <0>        -0.6656
     20 N5          0.4771    5.2468   -4.0277 N.pl3     1 <0>        -0.8040
     21 H2         -0.8954    1.9794    0.0253 H         1 <0>         0.1589
     22 H3          5.1230    1.9236    0.3550 H         1 <0>         0.4127
     23 H4          2.9118    1.5406    2.1889 H         1 <0>         0.0771
     24 H5          4.2983    2.6165    2.4205 H         1 <0>         0.0983
     25 H6          1.9957    3.7255    2.1345 H         1 <0>         0.1057
     26 H7          3.3154    4.3469    1.1126 H         1 <0>         0.1089
     27 H8          0.5214    3.0596   -2.3928 H         1 <0>         0.4258
     28 H9          0.5746    6.1055   -4.4684 H         1 <0>         0.4334
     29 H10        -0.0311    4.5384   -4.4529 H         1 <0>         0.4171
@<TRIPOS>BOND
     1    1    6 2
     2    1    2 1
     3    1   21 1
     4    2   13 1
     5    2    3 2
     6    3    4 1
     7    3    8 1
     8    4    5 1
     9    4    6 1
    10    6    7 1
    11    8    9 2
    12    8   10 am
    13   10   11 1
    14   10   22 1
    15   11   12 1
    16   11   23 1
    17   11   24 1
    18   12   13 1
    19   12   25 1
    20   12   26 1
    21   13   14 2
    22   14   19 1
    23   14   15 1
    24   15   16 2
    25   15   17 1
    26   17   18 2
    27   18   19 1
    28   18   20 1
    29   19   27 1
    30   20   28 1
    31   20   29 1
@<TRIPOS>MOLECULE
ZINC17175232
   29    31     0     0     0
SMALL
USER_CHARGES

@<TRIPOS>ATOM
      1 C1         -0.0163    1.3522    0.0095 C.2       1 <0>        -0.0939
      2 C2          1.3145    1.7899   -0.0009 C.2       1 <0>        -0.0817
      3 C3          2.1168    0.6384   -0.0541 C.2       1 <0>        -0.0085
      4 N1          1.2937   -0.4395   -0.0184 N.pl3     1 <0>        -0.4867
      5 H1          1.5775   -1.3670   -0.0089 H         1 <0>         0.4287
      6 C4          0.0021   -0.0041    0.0020 C.2       1 <0>         0.0190
      7 Br1        -1.5262   -1.1176    0.0181 Br        1 <0>         0.0181
      8 C5          3.5767    0.7391   -0.1874 C.2       1 <0>         0.6011
      9 O1          4.1928    0.0172   -0.9493 O.2       1 <0>        -0.5178
     10 N2          4.2125    1.6688    0.5718 N.am      1 <0>        -0.7188
     11 C6          3.5436    2.2865    1.7066 C.3       1 <0>         0.1140
     12 C7          2.6766    3.4877    1.3173 C.3       1 <0>        -0.1023
     13 C8          1.8770    3.1431    0.0747 C.2       1 <0>         0.0104
     14 C9          1.6904    4.0451   -0.9215 C.2       1 <0>         0.0011
     15 C10         0.9363    3.8581   -2.1778 C.2       1 <0>         0.5331
     16 O2          0.3478    2.8508   -2.5352 O.2       1 <0>        -0.4515
     17 N3          1.0276    5.0160   -2.8462 N.2       1 <0>        -0.6417
     18 C11         1.7387    5.8869   -2.1633 C.2       1 <0>         0.6550
     19 N4          2.1642    5.3588   -0.9829 N.pl3     1 <0>        -0.6695
     20 N5          2.0107    7.1602   -2.5824 N.pl3     1 <0>        -0.8051
     21 H2         -0.8954    1.9794    0.0253 H         1 <0>         0.1559
     22 H3          5.1230    1.9236    0.3550 H         1 <0>         0.4096
     23 H4          2.9118    1.5406    2.1889 H         1 <0>         0.0822
     24 H5          4.2983    2.6165    2.4205 H         1 <0>         0.0947
     25 H6          1.9957    3.7255    2.1345 H         1 <0>         0.1060
     26 H7          3.3154    4.3469    1.1126 H         1 <0>         0.0753
     27 H8          2.6983    5.8097   -0.3104 H         1 <0>         0.4239
     28 H9          1.6708    7.4730   -3.4354 H         1 <0>         0.4333
     29 H10         2.5433    7.7504   -2.0267 H         1 <0>         0.4164
@<TRIPOS>BOND
     1    1    6 2
     2    1    2 1
     3    1   21 1
     4    2   13 1
     5    2    3 2
     6    3    4 1
     7    3    8 1
     8    4    5 1
     9    4    6 1
    10    6    7 1
    11    8    9 2
    12    8   10 am
    13   10   11 1
    14   10   22 1
    15   11   12 1
    16   11   23 1
    17   11   24 1
    18   12   13 1
    19   12   25 1
    20   12   26 1
    21   13   14 2
    22   14   19 1
    23   14   15 1
    24   15   16 2
    25   15   17 1
    26   17   18 2
    27   18   19 1
    28   18   20 1
    29   19   27 1
    30   20   28 1
    31   20   29 1
@<TRIPOS>MOLECULE
ZINC17175232
   28    30     0     0     0
SMALL
USER_CHARGES

@<TRIPOS>ATOM
      1 C1         -0.0163    1.3522    0.0095 C.2       1 <0>        -0.0983
      2 C2          1.3145    1.7899   -0.0009 C.2       1 <0>        -0.0189
      3 C3          2.1168    0.6384   -0.0541 C.2       1 <0>        -0.0368
      4 N1          1.2937   -0.4395   -0.0184 N.pl3     1 <0>        -0.4973
      5 H1          1.5775   -1.3670   -0.0089 H         1 <0>         0.4202
      6 C4          0.0021   -0.0041    0.0020 C.2       1 <0>         0.0129
      7 Br1        -1.5262   -1.1176    0.0181 Br        1 <0>        -0.0030
      8 C5          3.5767    0.7391   -0.1874 C.2       1 <0>         0.6096
      9 O1          4.1928    0.0172   -0.9493 O.2       1 <0>        -0.5369
     10 N2          4.2125    1.6688    0.5718 N.am      1 <0>        -0.7148
     11 C6          3.5436    2.2865    1.7066 C.3       1 <0>         0.1186
     12 C7          2.6766    3.4877    1.3173 C.3       1 <0>        -0.0808
     13 C8          1.8770    3.1431    0.0747 C.2       1 <0>        -0.1306
     14 C9          1.6904    4.0451   -0.9215 C.2       1 <0>         0.0830
     15 C10         0.9363    3.8581   -2.1778 C.2       1 <0>         0.5087
     16 O2          0.3478    2.8508   -2.5352 O.2       1 <0>        -0.5423
     17 N3          1.0276    5.0160   -2.8462 N.2       1 <0>        -0.7196
     18 C11         1.7387    5.8869   -2.1633 C.2       1 <0>         0.5696
     19 N4          2.1642    5.3588   -0.9829 N.pl3     1 <0>        -0.6730
     20 N5          2.0107    7.1602   -2.5824 N.2       1 <0>        -0.8577
     21 H2         -0.8954    1.9794    0.0253 H         1 <0>         0.1497
     22 H3          5.1230    1.9236    0.3550 H         1 <0>         0.4047
     23 H4          2.9118    1.5406    2.1889 H         1 <0>         0.0739
     24 H5          4.2983    2.6165    2.4205 H         1 <0>         0.0821
     25 H6          1.9957    3.7255    2.1345 H         1 <0>         0.0832
     26 H7          3.3154    4.3469    1.1126 H         1 <0>         0.0659
     27 H8          2.6983    5.8097   -0.3104 H         1 <0>         0.4064
     28 H9          1.6708    7.4730   -3.4354 H         1 <0>         0.3214
@<TRIPOS>BOND
     1    1    6 2
     2    1    2 1
     3    1   21 1
     4    2   13 1
     5    2    3 2
     6    3    4 1
     7    3    8 1
     8    4    5 1
     9    4    6 1
    10    6    7 1
    11    8    9 2
    12    8   10 am
    13   10   11 1
    14   10   22 1
    15   11   12 1
    16   11   23 1
    17   11   24 1
    18   12   13 1
    19   12   25 1
    20   12   26 1
    21   13   14 2
    22   14   19 1
    23   14   15 1
    24   15   16 2
    25   15   17 1
    26   17   18 2
    27   18   19 1
    28   18   20 1
    29   19   27 1
    30   20   28 1
@<TRIPOS>MOLECULE
ZINC13598663
   37    38     0     0     0
SMALL
USER_CHARGES

@<TRIPOS>ATOM
      1 C1          0.4698    1.8021   -2.0791 C.3       1 <0>        -0.1559
      2 C2          0.6956    0.3293   -2.4268 C.3       1 <0>         0.0499
      3 O1          0.4569   -0.4751   -1.2701 O.3       1 <0>        -0.3049
      4 C3          0.6147   -1.8164   -1.4089 C.ar      1 <0>         0.1778
      5 C4          0.9981   -2.3452   -2.6360 C.ar      1 <0>        -0.2132
      6 C5          1.1596   -3.7045   -2.7824 C.ar      1 <0>        -0.0326
      7 C6          0.9370   -4.5548   -1.6923 C.ar      1 <0>        -0.1594
      8 C7          0.5509   -4.0166   -0.4585 C.ar      1 <0>        -0.0246
      9 C8          0.3978   -2.6554   -0.3219 C.ar      1 <0>        -0.1575
     10 C9          1.1072   -6.0056   -1.8426 C.2       1 <0>         0.1213
     11 C10         1.6446   -6.5114   -2.9816 C.2       1 <0>        -0.2586
     12 C11         1.7650   -7.9152   -3.4228 C.2       1 <0>         0.5643
     13 O2          1.3546   -8.8368   -2.7420 O.2       1 <0>        -0.4728
     14 N1          2.3411   -8.1206   -4.5953 N.am      1 <0>        -0.5768
     15 C12         2.7946   -7.0965   -5.3465 C.2       1 <0>         0.5156
     16 O3          3.3390   -7.1401   -6.4333 O.2       1 <0>        -0.4182
     17 S1          2.3940   -5.6606   -4.3636 S.3       1 <0>        -0.0041
     18 C13         2.4904   -9.4918   -5.0891 C.3       1 <0>         0.0641
     19 C14         1.2570   -9.8758   -5.9089 C.3       1 <0>        -0.0250
     20 N2          1.4068  -11.2507   -6.4041 N.4       1 <0>        -0.6291
     21 H1         -0.5580    1.9430   -1.7443 H         1 <0>         0.0696
     22 H2          1.1545    2.0969   -1.2839 H         1 <0>         0.0698
     23 H3          0.6518    2.4157   -2.9614 H         1 <0>         0.0839
     24 H4          0.0108    0.0346   -3.2219 H         1 <0>         0.0680
     25 H5          1.7233    0.1885   -2.7615 H         1 <0>         0.0684
     26 H6          1.1692   -1.6885   -3.4762 H         1 <0>         0.1407
     27 H7          1.4572   -4.1143   -3.7363 H         1 <0>         0.1321
     28 H8          0.3779   -4.6679    0.3855 H         1 <0>         0.1458
     29 H9          0.1044   -2.2388    0.6304 H         1 <0>         0.1457
     30 H10         0.8048   -6.6701   -1.0467 H         1 <0>         0.1666
     31 H11         3.3789   -9.5570   -5.7172 H         1 <0>         0.1202
     32 H12         2.5918  -10.1732   -4.2444 H         1 <0>         0.1238
     33 H13         0.3685   -9.8106   -5.2808 H         1 <0>         0.1417
     34 H14         1.1556   -9.1944   -6.7536 H         1 <0>         0.1400
     35 H15         1.5006  -11.8814   -5.6222 H         1 <0>         0.4394
     36 H16         0.5933  -11.5039   -6.9448 H         1 <0>         0.4450
     37 H17         2.2292  -11.3110   -6.9855 H         1 <0>         0.4389
@<TRIPOS>BOND
     1    1    2 1
     2    1   21 1
     3    1   22 1
     4    1   23 1
     5    2    3 1
     6    2   24 1
     7    2   25 1
     8    3    4 1
     9    4    9 ar
    10    4    5 ar
    11    5    6 ar
    12    5   26 1
    13    6    7 ar
    14    6   27 1
    15    7    8 ar
    16    7   10 1
    17    8    9 ar
    18    8   28 1
    19    9   29 1
    20   10   11 2
    21   10   30 1
    22   11   17 1
    23   11   12 1
    24   12   13 2
    25   12   14 am
    26   14   15 am
    27   14   18 1
    28   15   16 2
    29   15   17 1
    30   18   19 1
    31   18   31 1
    32   18   32 1
    33   19   20 1
    34   19   33 1
    35   19   34 1
    36   20   35 1
    37   20   36 1
    38   20   37 1
@<TRIPOS>MOLECULE
ZINC05876711
   37    40     0     0     0
SMALL
USER_CHARGES
2-benzooxazol-2-ylsulfanyl-N-(4-tetrazol-1-ylphenyl)-acetamide
@<TRIPOS>ATOM
      1 C1        -10.6706    7.1365   -0.5765 C.ar      1 <0>        -0.1146
      2 C2        -11.5419    6.0607   -0.6511 C.ar      1 <0>        -0.0906
      3 C3        -11.0608    4.7672   -0.6218 C.ar      1 <0>        -0.0897
      4 C4         -9.6985    4.5393   -0.5173 C.ar      1 <0>         0.0108
      5 C5         -8.8132    5.6250   -0.4415 C.ar      1 <0>         0.0305
      6 C6         -9.3128    6.9278   -0.4726 C.ar      1 <0>        -0.0631
      7 N1         -7.5609    5.1011   -0.3417 N.2       1 <0>        -0.4840
      8 C7         -7.6497    3.7948   -0.3619 C.2       1 <0>         0.2019
      9 O1         -8.9378    3.4215   -0.4647 O.3       1 <0>        -0.1907
     10 S1         -6.2824    2.6880   -0.2613 S.3       1 <0>         0.1482
     11 C8         -4.9228    3.8774   -0.1482 C.3       1 <0>        -0.1629
     12 C9         -3.6141    3.1367   -0.0502 C.2       1 <0>         0.5387
     13 O2         -3.6018    1.9238   -0.0562 O.2       1 <0>        -0.4983
     14 N2         -2.4573    3.8218    0.0442 N.am      1 <0>        -0.6644
     15 C10        -1.2357    3.1388    0.0240 C.ar      1 <0>         0.1569
     16 C11        -0.1621    3.6136    0.7664 C.ar      1 <0>        -0.1188
     17 C12         1.0438    2.9426    0.7425 C.ar      1 <0>        -0.0785
     18 C13         1.1806    1.7872   -0.0153 C.ar      1 <0>         0.1154
     19 C14         0.1060    1.3095   -0.7534 C.ar      1 <0>        -0.0971
     20 C15        -1.0985    1.9830   -0.7340 C.ar      1 <0>        -0.0965
     21 N3          2.4053    1.1025   -0.0356 N.pl3     1 <0>        -0.3264
     22 C16         2.7025   -0.0263   -0.7147 C.2       1 <0>         0.2270
     23 N4          3.9493   -0.3201   -0.4528 N.2       1 <0>        -0.3273
     24 N5          4.4606    0.5462    0.3456 N.2       1 <0>        -0.0315
     25 N6          3.5879    1.4480    0.6420 N.2       1 <0>        -0.0769
     26 H1        -11.0586    8.1442   -0.6003 H         1 <0>         0.1405
     27 H2        -12.6045    6.2359   -0.7323 H         1 <0>         0.1439
     28 H3        -11.7456    3.9341   -0.6800 H         1 <0>         0.1384
     29 H4         -8.6377    7.7688   -0.4154 H         1 <0>         0.1374
     30 H5         -5.0561    4.4984    0.7377 H         1 <0>         0.1367
     31 H6         -4.9173    4.5086   -1.0369 H         1 <0>         0.1378
     32 H7         -2.4714    4.7882    0.1261 H         1 <0>         0.4203
     33 H8         -0.2697    4.5099    1.3592 H         1 <0>         0.1445
     34 H9          1.8797    3.3138    1.3168 H         1 <0>         0.1484
     35 H10         0.2126    0.4106   -1.3425 H         1 <0>         0.1418
     36 H11        -1.9345    1.6112   -1.3078 H         1 <0>         0.1520
     37 H12         2.0342   -0.5831   -1.3548 H         1 <0>         0.2402
@<TRIPOS>BOND
     1    1    6 ar
     2    1    2 ar
     3    1   26 1
     4    2    3 ar
     5    2   27 1
     6    3    4 ar
     7    3   28 1
     8    4    9 1
     9    4    5 ar
    10    5    6 ar
    11    5    7 1
    12    6   29 1
    13    7    8 2
    14    8    9 1
    15    8   10 1
    16   10   11 1
    17   11   12 1
    18   11   30 1
    19   11   31 1
    20   12   13 2
    21   12   14 am
    22   14   15 1
    23   14   32 1
    24   15   20 ar
    25   15   16 ar
    26   16   17 ar
    27   16   33 1
    28   17   18 ar
    29   17   34 1
    30   18   19 ar
    31   18   21 1
    32   19   20 ar
    33   19   35 1
    34   20   36 1
    35   21   25 1
    36   21   22 1
    37   22   23 2
    38   22   37 1
    39   23   24 1
    40   24   25 2
@<TRIPOS>MOLECULE
ZINC14960000
   43    44     0     0     0
SMALL
USER_CHARGES

@<TRIPOS>ATOM
      1 C1         -0.0187    1.5258    0.0104 C.3       1 <0>        -0.1552
      2 C2          0.0021   -0.0041    0.0020 C.3       1 <0>         0.0652
      3 O1          0.6932   -0.4774    1.1597 O.3       1 <0>        -0.2910
      4 C3          0.8018   -1.8222    1.3054 C.ar      1 <0>         0.3800
      5 C4          1.4590   -2.3416    2.4157 C.ar      1 <0>        -0.1786
      6 C5          1.5655   -3.7224    2.5576 C.ar      1 <0>         0.2924
      7 C6          1.0042   -4.5362    1.5726 C.ar      1 <0>        -0.2069
      8 C7          0.3629   -3.9442    0.4918 C.ar      1 <0>         0.1594
      9 N1          0.2777   -2.6207    0.3945 N.ar      1 <0>        -0.5477
     10 C8         -0.2370   -4.7963   -0.5606 C.2       1 <0>         0.5761
     11 O2         -0.1668   -6.0066   -0.4758 O.2       1 <0>        -0.5207
     12 N2         -0.8608   -4.2295   -1.6123 N.am      1 <0>        -0.7068
     13 C9         -1.4543   -5.0724   -2.6532 C.3       1 <0>         0.1517
     14 C10        -2.0848   -4.1995   -3.7075 C.ar      1 <0>        -0.0560
     15 C11        -3.4061   -3.8121   -3.5845 C.ar      1 <0>        -0.1188
     16 C12        -3.9845   -3.0114   -4.5516 C.ar      1 <0>        -0.0244
     17 C13        -3.2415   -2.5977   -5.6414 C.ar      1 <0>        -0.6522
     18 C14        -1.9200   -2.9843   -5.7639 C.ar      1 <0>        -0.0244
     19 C15        -1.3403   -3.7815   -4.7947 C.ar      1 <0>        -0.1188
     20 S1         -3.9791   -1.5780   -6.8747 S.o2      1 <0>         2.4986
     21 O3         -3.2380   -1.8456   -8.0572 O.2       1 <0>        -0.9353
     22 O4         -5.3673   -1.8740   -6.8072 O.2       1 <0>        -0.9353
     23 C16        -3.6748    0.1213   -6.3177 C.3       1 <0>        -0.6498
     24 N3          2.2170   -4.2783    3.6563 N.pl3     1 <0>        -0.8449
     25 Cl1         2.1389   -1.2807    3.6098 Cl        1 <0>        -0.0379
     26 H1          1.0039    1.9031    0.0027 H         1 <0>         0.0668
     27 H2         -0.5459    1.8868   -0.8726 H         1 <0>         0.0806
     28 H3         -0.5289    1.8773    0.9072 H         1 <0>         0.0668
     29 H4         -1.0205   -0.3814    0.0098 H         1 <0>         0.0685
     30 H5          0.5123   -0.3556   -0.8948 H         1 <0>         0.0685
     31 H6          1.0678   -5.6116    1.6494 H         1 <0>         0.1582
     32 H7         -0.9169   -3.2635   -1.6800 H         1 <0>         0.4133
     33 H8         -0.6786   -5.6885   -3.1080 H         1 <0>         0.0871
     34 H9         -2.2155   -5.7148   -2.2105 H         1 <0>         0.0872
     35 H10        -3.9866   -4.1354   -2.7331 H         1 <0>         0.1367
     36 H11        -5.0170   -2.7094   -4.4559 H         1 <0>         0.1456
     37 H12        -1.3396   -2.6613   -6.6155 H         1 <0>         0.1456
     38 H13        -0.3068   -4.0804   -4.8885 H         1 <0>         0.1367
     39 H14        -2.6009    0.2922   -6.2426 H         1 <0>         0.1319
     40 H15        -4.1048    0.8210   -7.0343 H         1 <0>         0.1344
     41 H16        -4.1358    0.2718   -5.3415 H         1 <0>         0.1319
     42 H17         2.6033   -3.7017    4.3339 H         1 <0>         0.4093
     43 H18         2.2845   -5.2420    3.7436 H         1 <0>         0.4123
@<TRIPOS>BOND
     1    1    2 1
     2    1   26 1
     3    1   27 1
     4    1   28 1
     5    2    3 1
     6    2   29 1
     7    2   30 1
     8    3    4 1
     9    4    9 ar
    10    4    5 ar
    11    5    6 ar
    12    5   25 1
    13    6    7 ar
    14    6   24 1
    15    7    8 ar
    16    7   31 1
    17    8    9 ar
    18    8   10 1
    19   10   11 2
    20   10   12 am
    21   12   13 1
    22   12   32 1
    23   13   14 1
    24   13   33 1
    25   13   34 1
    26   14   19 ar
    27   14   15 ar
    28   15   16 ar
    29   15   35 1
    30   16   17 ar
    31   16   36 1
    32   17   18 ar
    33   17   20 1
    34   18   19 ar
    35   18   37 1
    36   19   38 1
    37   20   21 2
    38   20   22 2
    39   20   23 1
    40   23   39 1
    41   23   40 1
    42   23   41 1
    43   24   42 1
    44   24   43 1
@<TRIPOS>MOLECULE
ZINC16052569
   50    53     0     0     0
SMALL
USER_CHARGES

@<TRIPOS>ATOM
      1 C1         -0.0184    1.5028    0.0103 C.3       1 <0>        -0.0807
      2 C2          0.0021   -0.0041    0.0020 C.2       1 <0>         0.1088
      3 C3          0.0083   -0.8581   -1.1820 C.ar      1 <0>        -0.1763
      4 C4         -0.0019   -0.6082   -2.5573 C.ar      1 <0>        -0.0083
      5 C5          0.0079   -1.6738   -3.4431 C.ar      1 <0>        -0.1061
      6 C6          0.0279   -2.9891   -2.9631 C.ar      1 <0>        -0.0534
      7 C7          0.0380   -3.2410   -1.6234 C.ar      1 <0>        -0.1371
      8 C8          0.0285   -2.1860   -0.7124 C.ar      1 <0>         0.1440
      9 N1          0.0337   -2.1193    0.6566 N.pl3     1 <0>        -0.5045
     10 H1          0.0468   -2.8812    1.2569 H         1 <0>         0.4444
     11 N2          0.0230   -0.7772    1.0497 N.2       1 <0>        -0.2435
     12 C9         -0.0034   -1.4202   -4.9053 C.ar      1 <0>        -0.0271
     13 C10         0.0004   -2.4846   -5.8096 C.ar      1 <0>        -0.1014
     14 C11        -0.0110   -2.1940   -7.1677 C.ar      1 <0>         0.0698
     15 C12        -0.0257   -0.8671   -7.5756 C.ar      1 <0>         0.0161
     16 N3         -0.0289    0.1132   -6.6940 N.ar      1 <0>        -0.4368
     17 C13        -0.0238   -0.1167   -5.3969 C.ar      1 <0>         0.0812
     18 O1         -0.0074   -3.1961   -8.0859 O.3       1 <0>        -0.3231
     19 C14        -0.0198   -2.8144   -9.4629 C.3       1 <0>         0.0274
     20 C15        -0.0136   -4.0682  -10.3397 C.3       1 <0>         0.0437
     21 H2          0.8359   -4.6958  -10.0703 H         1 <0>         0.1553
     22 C16         0.0989   -3.6615  -11.8104 C.3       1 <0>        -0.0972
     23 C17         0.2286   -4.8962  -12.6646 C.ar      1 <0>        -0.1303
     24 C18         1.4792   -5.4136  -12.9461 C.ar      1 <0>        -0.1030
     25 C19         1.5982   -6.5462  -13.7296 C.ar      1 <0>        -0.1053
     26 C20         0.4666   -7.1617  -14.2312 C.ar      1 <0>        -0.1014
     27 C21        -0.7840   -6.6448  -13.9490 C.ar      1 <0>        -0.1075
     28 C22        -0.9032   -5.5147  -13.1619 C.ar      1 <0>        -0.1401
     29 N4         -1.2605   -4.8167  -10.1327 N.4       1 <0>        -0.6365
     30 H3          1.0042    1.8801    0.0026 H         1 <0>         0.0878
     31 H4         -0.5455    1.8639   -0.8728 H         1 <0>         0.0842
     32 H5         -0.5286    1.8543    0.9071 H         1 <0>         0.0843
     33 H6         -0.0177    0.4067   -2.9264 H         1 <0>         0.1366
     34 H7          0.0350   -3.8127   -3.6617 H         1 <0>         0.1316
     35 H8          0.0531   -4.2604   -1.2670 H         1 <0>         0.1332
     36 H9          0.0123   -3.5071   -5.4619 H         1 <0>         0.1476
     37 H10        -0.0343   -0.6345   -8.6302 H         1 <0>         0.1565
     38 H11        -0.0314    0.7142   -4.7071 H         1 <0>         0.1670
     39 H12        -0.9167   -2.2306   -9.6700 H         1 <0>         0.0927
     40 H13         0.8631   -2.2138   -9.6814 H         1 <0>         0.1143
     41 H14        -0.7936   -3.1088  -12.1038 H         1 <0>         0.1038
     42 H15         0.9777   -3.0313  -11.9469 H         1 <0>         0.1255
     43 H16         2.3632   -4.9328  -12.5542 H         1 <0>         0.1308
     44 H17         2.5752   -6.9501  -13.9502 H         1 <0>         0.1335
     45 H18         0.5596   -8.0462  -14.8440 H         1 <0>         0.1330
     46 H19        -1.6681   -7.1255  -14.3411 H         1 <0>         0.1326
     47 H20        -1.8805   -5.1130  -12.9382 H         1 <0>         0.1228
     48 H21        -1.2564   -5.6436  -10.7110 H         1 <0>         0.4365
     49 H22        -1.3347   -5.0850   -9.1628 H         1 <0>         0.4422
     50 H23        -2.0469   -4.2358  -10.3821 H         1 <0>         0.4324
@<TRIPOS>BOND
     1    1    2 1
     2    1   30 1
     3    1   31 1
     4    1   32 1
     5    2   11 2
     6    2    3 1
     7    3    8 ar
     8    3    4 ar
     9    4    5 ar
    10    4   33 1
    11    5    6 ar
    12    5   12 1
    13    6    7 ar
    14    6   34 1
    15    7    8 ar
    16    7   35 1
    17    8    9 1
    18    9   10 1
    19    9   11 1
    20   12   17 ar
    21   12   13 ar
    22   13   14 ar
    23   13   36 1
    24   14   15 ar
    25   14   18 1
    26   15   16 ar
    27   15   37 1
    28   16   17 ar
    29   17   38 1
    30   18   19 1
    31   19   20 1
    32   19   39 1
    33   19   40 1
    34   20   21 1
    35   20   22 1
    36   20   29 1
    37   22   23 1
    38   22   41 1
    39   22   42 1
    40   23   28 ar
    41   23   24 ar
    42   24   25 ar
    43   24   43 1
    44   25   26 ar
    45   25   44 1
    46   26   27 ar
    47   26   45 1
    48   27   28 ar
    49   27   46 1
    50   28   47 1
    51   29   48 1
    52   29   49 1
    53   29   50 1
@<TRIPOS>MOLECULE
ZINC28821265
   37    40     0     0     0
SMALL
USER_CHARGES
(5Z)-5-(6-quinolylmethylene)-2-(2-thienylmethylamino)thiazol-4-one
@<TRIPOS>ATOM
      1 C1         -7.6948    9.3694    9.1190 C.ar      1 <0>        -0.1751
      2 C2         -7.6724    9.5307    7.7626 C.ar      1 <0>        -0.0500
      3 C3         -7.1782    8.4719    6.9753 C.ar      1 <0>        -0.1096
      4 C4         -7.1252    8.5695    5.5786 C.ar      1 <0>        -0.0515
      5 C5         -6.6301    7.5023    4.8393 C.ar      1 <0>        -0.0851
      6 C6         -6.1905    6.3306    5.4878 C.ar      1 <0>        -0.0874
      7 C7         -6.2320    6.2255    6.8389 C.ar      1 <0>        -0.0840
      8 C8         -6.7279    7.2898    7.6167 C.ar      1 <0>         0.1394
      9 N1         -6.7782    7.1981    8.9486 N.ar      1 <0>        -0.4764
     10 C9         -7.2372    8.1819    9.6846 C.ar      1 <0>         0.1412
     11 C10        -6.5702    7.5933    3.3742 C.2       1 <0>         0.0465
     12 C11        -5.7923    6.7319    2.6725 C.2       1 <0>        -0.2255
     13 C12        -5.6840    6.5271    1.2076 C.2       1 <0>         0.5507
     14 O1         -6.3476    7.1765    0.4156 O.2       1 <0>        -0.4633
     15 N2         -4.8292    5.6109    0.8095 N.2       1 <0>        -0.6655
     16 C13        -4.1072    4.8963    1.6581 C.2       1 <0>         0.4822
     17 S1         -4.6090    5.5232    3.2534 S.3       1 <0>        -0.0471
     18 N3         -3.1919    3.9168    1.3798 N.pl3     1 <0>        -0.6459
     19 C14        -2.9188    3.5430   -0.0102 C.3       1 <0>         0.2093
     20 C15        -1.8813    2.4504   -0.0420 C.2       1 <0>        -0.1908
     21 C16        -2.0561    1.1064   -0.0210 C.2       1 <0>        -0.1181
     22 C17        -0.9447    0.2853   -0.0549 C.2       1 <0>        -0.1675
     23 C18         0.2867    0.8482   -0.1195 C.2       1 <0>        -0.1543
     24 S2         -0.1035    2.5903   -0.1258 S.3       1 <0>         0.0613
     25 H1         -8.0664   10.1618    9.7518 H         1 <0>         0.1421
     26 H2         -8.0229   10.4447    7.3065 H         1 <0>         0.1433
     27 H3         -7.4661    9.4655    5.0814 H         1 <0>         0.1423
     28 H4         -5.8122    5.5068    4.9007 H         1 <0>         0.1406
     29 H5         -5.8872    5.3219    7.3197 H         1 <0>         0.1423
     30 H6         -7.2613    8.0678   10.7583 H         1 <0>         0.1632
     31 H7         -7.1562    8.3600    2.8463 H         1 <0>         0.1671
     32 H8         -2.6616    3.4105    2.1998 H         1 <0>         0.4556
     33 H9         -3.8451    3.1830   -0.4818 H         1 <0>         0.1055
     34 H10        -2.5448    4.4199   -0.5590 H         1 <0>         0.0980
     35 H11        -3.0488    0.6835    0.0256 H         1 <0>         0.1379
     36 H12        -1.0560   -0.7888   -0.0348 H         1 <0>         0.1388
     37 H13         1.2531    0.3675   -0.1576 H         1 <0>         0.1898
@<TRIPOS>BOND
     1    1   10 ar
     2    1    2 ar
     3    1   25 1
     4    2    3 ar
     5    2   26 1
     6    3    8 ar
     7    3    4 ar
     8    4    5 ar
     9    4   27 1
    10    5    6 ar
    11    5   11 1
    12    6    7 ar
    13    6   28 1
    14    7    8 ar
    15    7   29 1
    16    8    9 ar
    17    9   10 ar
    18   10   30 1
    19   11   12 2
    20   11   31 1
    21   12   17 1
    22   12   13 1
    23   13   14 2
    24   13   15 1
    25   15   16 2
    26   16   17 1
    27   16   18 1
    28   18   19 1
    29   18   32 1
    30   19   20 1
    31   19   33 1
    32   19   34 1
    33   20   24 1
    34   20   21 2
    35   21   22 1
    36   21   35 1
    37   22   23 2
    38   22   36 1
    39   23   24 1
    40   23   37 1
@<TRIPOS>MOLECULE
ZINC13310237
   20    21     0     0     0
SMALL
USER_CHARGES

@<TRIPOS>ATOM
      1 C1         -0.0163    1.3532    0.0095 C.2       1 <0>        -0.0974
      2 C2          1.3149    1.7871   -0.0009 C.2       1 <0>        -0.1950
      3 C3          2.1132    0.6351   -0.0540 C.2       1 <0>         0.0127
      4 N1          1.2937   -0.4372   -0.0182 N.pl3     1 <0>        -0.4785
      5 H1          1.5780   -1.3646   -0.0088 H         1 <0>         0.4321
      6 C4          0.0021   -0.0041    0.0020 C.2       1 <0>         0.0135
      7 Br1        -1.5253   -1.1188    0.0179 Br        1 <0>         0.0270
      8 C5          3.5791    0.7339   -0.1876 C.2       1 <0>         0.5955
      9 O1          4.1937    0.0111   -0.9487 O.2       1 <0>        -0.5104
     10 N2          4.2163    1.6630    0.5711 N.am      1 <0>        -0.7200
     11 C6          3.5481    2.2825    1.7054 C.3       1 <0>         0.1136
     12 C7          2.6829    3.4846    1.3154 C.3       1 <0>        -0.1822
     13 C8          1.8820    3.1413    0.0742 C.2       1 <0>         0.4302
     14 O2          1.7169    3.9477   -0.8163 O.2       1 <0>        -0.4312
     15 H2         -0.8945    1.9816    0.0252 H         1 <0>         0.1640
     16 H3          5.1273    1.9160    0.3545 H         1 <0>         0.4147
     17 H4          2.9152    1.5378    2.1881 H         1 <0>         0.0845
     18 H5          4.3032    2.6118    2.4192 H         1 <0>         0.1021
     19 H6          2.0028    3.7242    2.1328 H         1 <0>         0.1228
     20 H7          3.3231    4.3425    1.1099 H         1 <0>         0.1021
@<TRIPOS>BOND
     1    1    6 2
     2    1    2 1
     3    1   15 1
     4    2   13 1
     5    2    3 2
     6    3    4 1
     7    3    8 1
     8    4    5 1
     9    4    6 1
    10    6    7 1
    11    8    9 2
    12    8   10 am
    13   10   11 1
    14   10   16 1
    15   11   12 1
    16   11   17 1
    17   11   18 1
    18   12   13 1
    19   12   19 1
    20   12   20 1
    21   13   14 2
@<TRIPOS>MOLECULE
ZINC03952380
   72    74     0     0     0
SMALL
USER_CHARGES
1-[3-(2,6-dichlorophenyl)-8-(4-diethylaminobutylamino)-5,7,9-triazabicyclo[4.4.0]deca-2,4,7,9,11-pentaen-4-yl]-3-tert-butyl-urea
@<TRIPOS>ATOM
      1 C1         -4.4663    6.7451   -2.1992 C.3       1 <0>        -0.1869
      2 C2         -3.7440    7.5917   -1.1493 C.3       1 <0>        -0.0140
      3 C3         -5.7495    7.7763    0.1948 C.3       1 <0>        -0.0122
      4 C4         -5.8211    9.3045    0.1743 C.3       1 <0>        -0.1886
      5 C5         -4.2126    5.9411    0.5591 C.3       1 <0>        -0.0109
      6 C6         -2.7345    5.6035    0.7639 C.3       1 <0>        -0.1438
      7 C7         -2.5983    4.1344    1.1690 C.3       1 <0>        -0.1329
      8 C8         -1.1201    3.7968    1.3738 C.3       1 <0>         0.1393
      9 N1         -0.9897    2.3901    1.7617 N.pl3     1 <0>        -0.6988
     10 C9          0.2606    1.8528    2.0025 C.ar      1 <0>         0.5908
     11 N2          1.3286    2.6364    1.8690 N.ar      1 <0>        -0.5736
     12 C10         2.5462    2.1791    2.0797 C.ar      1 <0>         0.2660
     13 C11         2.7015    0.8330    2.4529 C.ar      1 <0>        -0.2909
     14 C12         3.9658    0.2710    2.6947 C.ar      1 <0>         0.0475
     15 C13         4.0241   -1.0651    3.0577 C.ar      1 <0>        -0.1607
     16 C14         2.8285   -1.8061    3.1708 C.ar      1 <0>         0.4876
     17 N3          1.6541   -1.2563    2.9386 N.ar      1 <0>        -0.4748
     18 C15         1.5415    0.0257    2.5863 C.ar      1 <0>         0.4312
     19 N4          0.3471    0.5830    2.3502 N.ar      1 <0>        -0.5595
     20 N5          2.8912   -3.1435    3.5349 N.am      1 <0>        -0.6592
     21 C16         1.7585   -3.8651    3.6472 C.2       1 <0>         0.6931
     22 O1          0.6818   -3.3443    3.4295 O.2       1 <0>        -0.5048
     23 N6          1.8195   -5.1642    4.0010 N.am      1 <0>        -0.7340
     24 C17         0.5883   -5.9487    4.1231 C.3       1 <0>         0.1879
     25 C18        -0.1412   -5.9656    2.7783 C.3       1 <0>        -0.1657
     26 C19         0.9349   -7.3813    4.5333 C.3       1 <0>        -0.1564
     27 C20        -0.3148   -5.3184    5.1852 C.3       1 <0>        -0.1657
     28 C21         5.3318   -1.7107    3.3246 C.ar      1 <0>        -0.0437
     29 C22         6.0299   -2.3328    2.2896 C.ar      1 <0>        -0.0133
     30 C23         7.2503   -2.9280    2.5437 C.ar      1 <0>        -0.1036
     31 C24         7.7753   -2.9171    3.8233 C.ar      1 <0>        -0.0815
     32 C25         7.0852   -2.3068    4.8551 C.ar      1 <0>        -0.1036
     33 C26         5.8664   -1.7036    4.6130 C.ar      1 <0>        -0.0132
     34 Cl1         5.0016   -0.9387    5.9094 Cl        1 <0>        -0.0433
     35 Cl2         5.3693   -2.3538    0.6844 Cl        1 <0>        -0.0434
     36 H1         -4.0065    6.9055   -3.1744 H         1 <0>         0.1057
     37 H2         -4.3908    5.6913   -1.9309 H         1 <0>         0.0804
     38 H3         -5.5162    7.0352   -2.2404 H         1 <0>         0.0800
     39 H4         -3.8394    8.6470   -1.4052 H         1 <0>         0.1289
     40 H5         -2.6893    7.3178   -1.1245 H         1 <0>         0.1296
     41 H6         -6.2651    7.3767   -0.6785 H         1 <0>         0.1321
     42 H7         -6.2262    7.4024    1.1009 H         1 <0>         0.1285
     43 H8         -6.8645    9.6196    0.1898 H         1 <0>         0.1058
     44 H9         -5.3079    9.7041    1.0489 H         1 <0>         0.0802
     45 H10        -5.3421    9.6786   -0.7305 H         1 <0>         0.0792
     46 H11        -4.6244    5.3079   -0.2268 H         1 <0>         0.1339
     47 H12        -4.7569    5.7683    1.4875 H         1 <0>         0.1302
     48 H13        -2.3227    6.2368    1.5498 H         1 <0>         0.0912
     49 H14        -2.1902    5.7764   -0.1645 H         1 <0>         0.0908
     50 H15        -3.0100    3.5012    0.3831 H         1 <0>         0.0823
     51 H16        -3.1425    3.9616    2.0974 H         1 <0>         0.0829
     52 H17        -0.7083    4.4301    2.1597 H         1 <0>         0.0712
     53 H18        -0.5759    3.9697    0.4454 H         1 <0>         0.0709
     54 H19        -1.7808    1.8359    1.8494 H         1 <0>         0.4172
     55 H20         3.4054    2.8240    1.9687 H         1 <0>         0.1807
     56 H21         4.8648    0.8621    2.6010 H         1 <0>         0.1525
     57 H22         3.7503   -3.5590    3.7086 H         1 <0>         0.4130
     58 H23         2.6786   -5.5798    4.1747 H         1 <0>         0.3948
     59 H24         0.5022   -6.4147    2.0216 H         1 <0>         0.0532
     60 H25        -1.0573   -6.5493    2.8692 H         1 <0>         0.0646
     61 H26        -0.3882   -4.9450    2.4860 H         1 <0>         0.0802
     62 H27         1.4546   -7.3693    5.4914 H         1 <0>         0.0630
     63 H28         0.0188   -7.9650    4.6242 H         1 <0>         0.0775
     64 H29         1.5783   -7.8304    3.7766 H         1 <0>         0.0630
     65 H30        -0.5618   -4.2978    4.8930 H         1 <0>         0.0802
     66 H31        -1.2309   -5.9021    5.2761 H         1 <0>         0.0646
     67 H32         0.2049   -5.3063    6.1433 H         1 <0>         0.0532
     68 H33         7.7940   -3.4061    1.7423 H         1 <0>         0.1465
     69 H34         8.7278   -3.3874    4.0178 H         1 <0>         0.1484
     70 H35         7.5004   -2.3017    5.8521 H         1 <0>         0.1466
     71 N7         -4.3291    7.3675    0.1894 N.4       1 <0>        -0.3960
     72 H36        -3.8167    7.9330    0.8763 H         1 <0>         0.4282
@<TRIPOS>BOND
     1    1    2 1
     2    1   36 1
     3    1   37 1
     4    1   38 1
     5    2   39 1
     6    2   40 1
     7    2   71 1
     8    3    4 1
     9    3   41 1
    10    3   42 1
    11    3   71 1
    12    4   43 1
    13    4   44 1
    14    4   45 1
    15    5    6 1
    16    5   46 1
    17    5   47 1
    18    5   71 1
    19    6    7 1
    20    6   48 1
    21    6   49 1
    22    7    8 1
    23    7   50 1
    24    7   51 1
    25    8    9 1
    26    8   52 1
    27    8   53 1
    28    9   10 1
    29    9   54 1
    30   10   19 ar
    31   10   11 ar
    32   11   12 ar
    33   12   13 ar
    34   12   55 1
    35   13   18 ar
    36   13   14 ar
    37   14   15 ar
    38   14   56 1
    39   15   16 ar
    40   15   28 1
    41   16   17 ar
    42   16   20 1
    43   17   18 ar
    44   18   19 ar
    45   20   21 am
    46   20   57 1
    47   21   22 2
    48   21   23 am
    49   23   24 1
    50   23   58 1
    51   24   25 1
    52   24   26 1
    53   24   27 1
    54   25   59 1
    55   25   60 1
    56   25   61 1
    57   26   62 1
    58   26   63 1
    59   26   64 1
    60   27   65 1
    61   27   66 1
    62   27   67 1
    63   28   33 ar
    64   28   29 ar
    65   29   30 ar
    66   29   35 1
    67   30   31 ar
    68   30   68 1
    69   31   32 ar
    70   31   69 1
    71   32   33 ar
    72   32   70 1
    73   33   34 1
    74   71   72 1
@<TRIPOS>MOLECULE
ZINC02320482
   45    48     0     0     0
SMALL
USER_CHARGES

@<TRIPOS>ATOM
      1 C1         -0.0167    1.3796    0.0096 C.ar      1 <0>        -0.1208
      2 C2          1.1682    2.0943    0.0022 C.ar      1 <0>        -0.1390
      3 C3          2.3774    1.4310   -0.0130 C.ar      1 <0>        -0.0778
      4 C4          2.4040    0.0343   -0.0208 C.ar      1 <0>        -0.0530
      5 C5          1.2039   -0.6807   -0.0131 C.ar      1 <0>        -0.0752
      6 C6          0.0021   -0.0041    0.0020 C.ar      1 <0>        -0.1412
      7 C7          3.6940   -0.6826   -0.0374 C.2       1 <0>         0.4502
      8 O1          4.8529    0.0120   -0.0452 O.3       1 <0>        -0.6301
      9 N1          3.7154   -1.9953   -0.0447 N.2       1 <0>        -0.6466
     10 C8          4.9023   -2.6549   -0.0601 C.2       1 <0>         0.5412
     11 N2          6.1029   -2.1011   -0.0632 N.2       1 <0>        -0.5287
     12 C9          7.0375   -3.0536   -0.0789 C.2       1 <0>         0.4476
     13 N3          8.4166   -2.8323   -0.0858 N.am      1 <0>        -0.6271
     14 C10         8.8971   -1.5731   -0.0769 C.2       1 <0>         0.5385
     15 O2          8.1303   -0.6300   -0.0628 O.2       1 <0>        -0.4395
     16 C11        10.3565   -1.3390   -0.0841 C.ar      1 <0>        -0.1183
     17 C12        11.2398   -2.4197   -0.1061 C.ar      1 <0>        -0.0901
     18 C13        12.6008   -2.1941   -0.1132 C.ar      1 <0>        -0.1284
     19 C14        13.0908   -0.9003   -0.0988 C.ar      1 <0>        -0.1014
     20 C15        12.2208    0.1754   -0.0765 C.ar      1 <0>        -0.1274
     21 C16        10.8575   -0.0361   -0.0750 C.ar      1 <0>        -0.0597
     22 N4          6.4574   -4.2309   -0.0860 N.2       1 <0>        -0.3919
     23 N5          5.0710   -4.0083   -0.0690 N.pl3     1 <0>        -0.3688
     24 C17         4.0639   -4.9805   -0.0645 C.ar      1 <0>         0.1996
     25 C18         2.8838   -4.7569    0.6329 C.ar      1 <0>        -0.1131
     26 C19         1.8922   -5.7181    0.6354 C.ar      1 <0>        -0.1044
     27 C20         2.0733   -6.9023   -0.0555 C.ar      1 <0>        -0.1454
     28 C21         3.2474   -7.1283   -0.7505 C.ar      1 <0>        -0.1099
     29 C22         4.2403   -6.1685   -0.7621 C.ar      1 <0>        -0.1306
     30 H1         -0.9606    1.9042    0.0260 H         1 <0>         0.1138
     31 H2          1.1461    3.1741    0.0078 H         1 <0>         0.1170
     32 H3          3.3015    1.9900   -0.0192 H         1 <0>         0.1298
     33 H4          1.2171   -1.7606   -0.0191 H         1 <0>         0.1346
     34 H5         -0.9265   -0.5555    0.0079 H         1 <0>         0.1171
     35 H6         10.8586   -3.4301   -0.1171 H         1 <0>         0.1262
     36 H7         13.2853   -3.0294   -0.1299 H         1 <0>         0.1271
     37 H8         14.1571   -0.7292   -0.1044 H         1 <0>         0.1245
     38 H9         12.6098    1.1828   -0.0649 H         1 <0>         0.1286
     39 H10        10.1795    0.8044   -0.0625 H         1 <0>         0.1387
     40 H11         2.7419   -3.8324    1.1730 H         1 <0>         0.1402
     41 H12         0.9745   -5.5450    1.1778 H         1 <0>         0.1229
     42 H13         1.2964   -7.6524   -0.0520 H         1 <0>         0.1170
     43 H14         3.3860   -8.0544   -1.2885 H         1 <0>         0.1196
     44 H15         5.1550   -6.3435   -1.3090 H         1 <0>         0.1237
     45 H16         9.0285   -3.5849   -0.0969 H         1 <0>         0.4103
@<TRIPOS>BOND
     1    1    6 ar
     2    1    2 ar
     3    1   30 1
     4    2    3 ar
     5    2   31 1
     6    3    4 ar
     7    3   32 1
     8    4    5 ar
     9    4    7 1
    10    5    6 ar
    11    5   33 1
    12    6   34 1
    13    7    8 1
    14    7    9 2
    15    9   10 1
    16   10   23 1
    17   10   11 2
    18   11   12 1
    19   12   13 1
    20   12   22 2
    21   13   14 am
    22   13   45 1
    23   14   15 2
    24   14   16 1
    25   16   21 ar
    26   16   17 ar
    27   17   18 ar
    28   17   35 1
    29   18   19 ar
    30   18   36 1
    31   19   20 ar
    32   19   37 1
    33   20   21 ar
    34   20   38 1
    35   21   39 1
    36   22   23 1
    37   23   24 1
    38   24   29 ar
    39   24   25 ar
    40   25   26 ar
    41   25   40 1
    42   26   27 ar
    43   26   41 1
    44   27   28 ar
    45   27   42 1
    46   28   29 ar
    47   28   43 1
    48   29   44 1
@<TRIPOS>MOLECULE
ZINC03982130
   50    51     0     0     0
SMALL
USER_CHARGES

@<TRIPOS>ATOM
      1 C1         -0.0187    1.5258    0.0104 C.3       1 <0>        -0.2007
      2 C2          0.0021   -0.0041    0.0020 C.3       1 <0>         0.1097
      3 H1         -1.0205   -0.3814    0.0098 H         1 <0>         0.1090
      4 C3          0.7184   -0.4976   -1.2566 C.3       1 <0>        -0.2162
      5 C4          0.6959    0.5849   -2.3049 C.2       1 <0>        -0.0297
      6 C5          1.8379    1.1456   -2.7085 C.2       1 <0>        -0.2557
      7 C6          3.1091    0.7098   -2.1312 C.2       1 <0>         0.3442
      8 O1          3.1248   -0.1613   -1.2868 O.2       1 <0>        -0.3603
      9 C7          4.3996    1.3422   -2.5852 C.3       1 <0>         0.0392
     10 H2          4.5012    1.2261   -3.6642 H         1 <0>         0.0775
     11 C8          5.5762    0.6586   -1.8857 C.3       1 <0>         0.1198
     12 H3          6.4968    0.8754   -2.4275 H         1 <0>         0.0624
     13 C9          5.6920    1.1829   -0.4529 C.3       1 <0>        -0.1050
     14 C10         4.8754    0.2904    0.4837 C.3       1 <0>        -0.1550
     15 C11         4.6033    1.0363    1.7918 C.3       1 <0>        -0.0800
     16 C12         3.9792    0.0908    2.7858 C.ar      1 <0>         0.0458
     17 C13         4.6753   -0.2820    3.9123 C.ar      1 <0>        -0.1782
     18 C14         4.1043   -1.1570    4.8317 C.ar      1 <0>         0.1845
     19 C15         2.8292   -1.6605    4.6193 C.ar      1 <0>        -0.2633
     20 C16         2.1178   -1.2926    3.4909 C.ar      1 <0>         0.2090
     21 C17         2.6912   -0.4075    2.5638 C.ar      1 <0>        -0.1956
     22 C18         1.9400   -0.0053    1.3643 C.2       1 <0>         0.5058
     23 O2          2.4428    0.7524    0.5579 O.2       1 <0>        -0.4686
     24 O3          0.6934   -0.4775    1.1595 O.3       1 <0>        -0.3323
     25 O4          0.8714   -1.7849    3.2811 O.3       1 <0>        -0.4782
     26 O5          4.7980   -1.5195    5.9403 O.3       1 <0>        -0.3085
     27 C19         4.1536   -2.4206    6.8430 C.3       1 <0>         0.0229
     28 O6          5.3599   -0.7537   -1.8602 O.3       1 <0>        -0.5347
     29 O7          4.3911    2.7323   -2.2543 O.3       1 <0>        -0.5349
     30 H4          1.0039    1.9031    0.0027 H         1 <0>         0.0946
     31 H5         -0.5459    1.8868   -0.8726 H         1 <0>         0.0679
     32 H6         -0.5289    1.8773    0.9072 H         1 <0>         0.0571
     33 H7          1.7513   -0.7459   -1.0129 H         1 <0>         0.1710
     34 H8          0.2121   -1.3840   -1.6387 H         1 <0>         0.0755
     35 H9         -0.2438    0.9071   -2.7287 H         1 <0>         0.1170
     36 H10         1.8233    1.9196   -3.4617 H         1 <0>         0.1256
     37 H11         6.7377    1.1718   -0.1454 H         1 <0>         0.0549
     38 H12         5.3105    2.2029   -0.4073 H         1 <0>         0.0882
     39 H13         3.9287    0.0345    0.0078 H         1 <0>         0.1651
     40 H14         5.4338   -0.6216    0.6949 H         1 <0>         0.0462
     41 H15         5.5413    1.4194    2.1938 H         1 <0>         0.0611
     42 H16         3.9226    1.8662    1.6024 H         1 <0>         0.0886
     43 H17         5.6687    0.1056    4.0837 H         1 <0>         0.1414
     44 H18         2.3915   -2.3405    5.3352 H         1 <0>         0.1416
     45 H19         0.1656   -1.2435    3.6604 H         1 <0>         0.3979
     46 H20         4.8154   -2.6276    7.6839 H         1 <0>         0.1051
     47 H21         3.2309   -1.9702    7.2090 H         1 <0>         0.0595
     48 H22         3.9229   -3.3512    6.3245 H         1 <0>         0.0604
     49 H23         5.2766   -1.1548   -2.7361 H         1 <0>         0.3677
     50 H24         3.6701    3.2297   -2.6639 H         1 <0>         0.3811
@<TRIPOS>BOND
     1    1    2 1
     2    1   30 1
     3    1   31 1
     4    1   32 1
     5    2    3 1
     6    2   24 1
     7    2    4 1
     8    4    5 1
     9    4   33 1
    10    4   34 1
    11    5    6 2
    12    5   35 1
    13    6    7 1
    14    6   36 1
    15    7    8 2
    16    7    9 1
    17    9   10 1
    18    9   11 1
    19    9   29 1
    20   11   12 1
    21   11   13 1
    22   11   28 1
    23   13   14 1
    24   13   37 1
    25   13   38 1
    26   14   15 1
    27   14   39 1
    28   14   40 1
    29   15   16 1
    30   15   41 1
    31   15   42 1
    32   16   21 ar
    33   16   17 ar
    34   17   18 ar
    35   17   43 1
    36   18   19 ar
    37   18   26 1
    38   19   20 ar
    39   19   44 1
    40   20   21 ar
    41   20   25 1
    42   21   22 1
    43   22   23 2
    44   22   24 1
    45   25   45 1
    46   26   27 1
    47   27   46 1
    48   27   47 1
    49   27   48 1
    50   28   49 1
    51   29   50 1
@<TRIPOS>MOLECULE
ZINC01233137
   35    37     0     0     0
SMALL
USER_CHARGES
3-benzyl-5-[(4-hydroxyphenyl)methylene]-2-thioxo-thiazolidin-4-one
@<TRIPOS>ATOM
      1 C1          7.7622    9.5414    3.0691 C.ar      1 <0>        -0.1049
      2 C2          7.6507    8.7798    4.2174 C.ar      1 <0>        -0.1242
      3 C3          7.8910    7.4193    4.1704 C.ar      1 <0>        -0.0932
      4 C4          8.2418    6.8203    2.9751 C.ar      1 <0>        -0.1250
      5 C5          8.3580    7.5826    1.8278 C.ar      1 <0>        -0.0944
      6 C6          8.1135    8.9424    1.8739 C.ar      1 <0>        -0.1263
      7 C7          8.5037    5.3371    2.9239 C.3       1 <0>         0.1257
      8 N1          7.2547    4.6305    2.6290 N.am      1 <0>        -0.5154
      9 C8          6.9261    4.3971    1.3695 C.2       1 <0>         0.5475
     10 O1          7.6349    4.7551    0.4470 O.2       1 <0>        -0.4554
     11 C9          5.6557    3.6807    1.1389 C.2       1 <0>        -0.2496
     12 C10         5.0714    3.3091   -0.0286 C.2       1 <0>         0.0957
     13 C11         3.8917    2.4348   -0.0136 C.ar      1 <0>        -0.1142
     14 C12         3.1780    2.1972   -1.1948 C.ar      1 <0>        -0.0547
     15 C13         2.0730    1.3763   -1.1749 C.ar      1 <0>        -0.1495
     16 C14         1.6657    0.7834    0.0146 C.ar      1 <0>         0.1421
     17 C15         2.3672    1.0200    1.1911 C.ar      1 <0>        -0.1432
     18 C16         3.4765    1.8353    1.1820 C.ar      1 <0>        -0.0669
     19 O2          0.5752   -0.0253    0.0284 O.3       1 <0>        -0.4956
     20 S1          5.0949    3.4443    2.8197 S.3       1 <0>         0.0789
     21 C17         6.4662    4.2326    3.6482 C.2       1 <0>         0.2615
     22 S2          6.7159    4.4400    5.3291 S.2       1 <0>        -0.3373
     23 H1          7.5745   10.6043    3.1058 H         1 <0>         0.1247
     24 H2          7.3762    9.2478    5.1512 H         1 <0>         0.1267
     25 H3          7.8042    6.8244    5.0676 H         1 <0>         0.1392
     26 H4          8.6364    7.1153    0.8948 H         1 <0>         0.1268
     27 H5          8.2003    9.5374    0.9767 H         1 <0>         0.1249
     28 H6          8.8915    5.0032    3.8863 H         1 <0>         0.1207
     29 H7          9.2346    5.1239    2.1439 H         1 <0>         0.1125
     30 H8          5.4742    3.6564   -0.9686 H         1 <0>         0.1657
     31 H9          3.4941    2.6568   -2.1196 H         1 <0>         0.1416
     32 H10         1.5219    1.1923   -2.0853 H         1 <0>         0.1408
     33 H11         2.0439    0.5601    2.1132 H         1 <0>         0.1414
     34 H12         4.0233    2.0151    2.0958 H         1 <0>         0.1340
     35 H13         0.7741   -0.9567   -0.1388 H         1 <0>         0.3998
@<TRIPOS>BOND
     1    1    6 ar
     2    1    2 ar
     3    1   23 1
     4    2    3 ar
     5    2   24 1
     6    3    4 ar
     7    3   25 1
     8    4    5 ar
     9    4    7 1
    10    5    6 ar
    11    5   26 1
    12    6   27 1
    13    7    8 1
    14    7   28 1
    15    7   29 1
    16    8   21 1
    17    8    9 am
    18    9   10 2
    19    9   11 1
    20   11   12 2
    21   11   20 1
    22   12   13 1
    23   12   30 1
    24   13   18 ar
    25   13   14 ar
    26   14   15 ar
    27   14   31 1
    28   15   16 ar
    29   15   32 1
    30   16   17 ar
    31   16   19 1
    32   17   18 ar
    33   17   33 1
    34   18   34 1
    35   19   35 1
    36   20   21 1
    37   21   22 2
@<TRIPOS>MOLECULE
ZINC35880991
   54    57     0     0     0
SMALL
USER_CHARGES

@<TRIPOS>ATOM
      1 C1          0.2245    1.5009   -0.0088 C.3       1 <0>        -0.1024
      2 C2          0.1797   -0.0055   -0.0120 C.ar      1 <0>        -0.2351
      3 C3         -0.0442   -0.7041   -1.1839 C.ar      1 <0>         0.1907
      4 N1         -0.0778   -2.0274   -1.1532 N.ar      1 <0>        -0.5599
      5 C4          0.0998   -2.6883   -0.0182 C.ar      1 <0>         0.5586
      6 N2          0.3168   -2.0593    1.1262 N.ar      1 <0>        -0.5484
      7 C5          0.3693   -0.7294    1.1692 C.ar      1 <0>         0.3007
      8 C6          0.6187   -0.0273    2.4500 C.2       1 <0>        -0.1552
      9 C7          0.1779   -0.4333    3.7261 C.2       1 <0>        -0.0508
     10 C8          0.6269    0.4961    4.6199 C.2       1 <0>        -0.0603
     11 N3          1.3283    1.4565    3.9260 N.pl3     1 <0>        -0.5287
     12 H1          1.7561    2.2339    4.3179 H         1 <0>         0.4212
     13 C9          1.3297    1.1409    2.6170 C.2       1 <0>         0.0725
     14 C10         0.4005    0.4753    6.0697 C.2       1 <0>         0.5929
     15 O1         -0.2387   -0.4297    6.5728 O.2       1 <0>        -0.5224
     16 N4          0.9007    1.4585    6.8441 N.am      1 <0>        -0.7196
     17 C11         0.6747    1.4377    8.2914 C.3       1 <0>         0.1936
     18 H2          0.6791    0.4066    8.6450 H         1 <0>         0.1151
     19 C12        -0.6784    2.0789    8.6056 C.3       1 <0>         0.0671
     20 O2         -0.6446    3.4620    8.2481 O.3       1 <0>        -0.5679
     21 C13         1.7691    2.2101    8.9818 C.ar      1 <0>        -0.0800
     22 C14         2.2339    3.3908    8.4327 C.ar      1 <0>        -0.0878
     23 C15         3.2376    4.0999    9.0653 C.ar      1 <0>        -0.1063
     24 C16         3.7776    3.6287   10.2474 C.ar      1 <0>        -0.1060
     25 C17         3.3130    2.4475   10.7973 C.ar      1 <0>        -0.0330
     26 C18         2.3039    1.7412   10.1666 C.ar      1 <0>        -0.0995
     27 Cl1         3.9906    1.8551   12.2818 Cl        1 <0>        -0.0646
     28 N5          0.0566   -4.0726   -0.0296 N.pl3     1 <0>        -0.6343
     29 C19        -0.0458   -4.7598   -1.2451 C.ar      1 <0>         0.1751
     30 C20         0.5331   -4.2337   -2.3922 C.ar      1 <0>        -0.0790
     31 C21         0.4313   -4.9133   -3.5903 C.ar      1 <0>        -0.1244
     32 C22        -0.2479   -6.1187   -3.6487 C.ar      1 <0>         0.0911
     33 C23        -0.8262   -6.6460   -2.5066 C.ar      1 <0>        -0.1233
     34 C24        -0.7221   -5.9722   -1.3042 C.ar      1 <0>        -0.0461
     35 Cl2        -1.4417   -6.6366    0.1292 Cl        1 <0>        -0.0497
     36 F1         -0.3467   -6.7811   -4.8221 F         1 <0>        -0.1329
     37 H3          1.2465    1.8343   -0.1885 H         1 <0>         0.0707
     38 H4         -0.4266    1.8854   -0.7938 H         1 <0>         0.0708
     39 H5         -0.1141    1.8724    0.9584 H         1 <0>         0.0741
     40 H6         -0.1905   -0.1760   -2.1146 H         1 <0>         0.1720
     41 H7         -0.4050   -1.3135    3.9537 H         1 <0>         0.1555
     42 H8          1.8052    1.7087    1.8310 H         1 <0>         0.1848
     43 H9          1.4103    2.1799    6.4431 H         1 <0>         0.3965
     44 H10        -1.4599    1.5755    8.0364 H         1 <0>         0.0600
     45 H11        -0.8867    1.9840    9.6713 H         1 <0>         0.0601
     46 H12        -1.4713    3.9331    8.4202 H         1 <0>         0.3826
     47 H13         1.8129    3.7590    7.5088 H         1 <0>         0.1283
     48 H14         3.6003    5.0221    8.6359 H         1 <0>         0.1343
     49 H15         4.5624    4.1824   10.7413 H         1 <0>         0.1350
     50 H16         1.9377    0.8212   10.5978 H         1 <0>         0.1358
     51 H17         0.0974   -4.5661    0.8045 H         1 <0>         0.4273
     52 H18         1.0624   -3.2933   -2.3478 H         1 <0>         0.1555
     53 H19         0.8816   -4.5041   -4.4826 H         1 <0>         0.1456
     54 H20        -1.3555   -7.5862   -2.5544 H         1 <0>         0.1501
@<TRIPOS>BOND
     1    1    2 1
     2    1   37 1
     3    1   38 1
     4    1   39 1
     5    2    7 ar
     6    2    3 ar
     7    3    4 ar
     8    3   40 1
     9    4    5 ar
    10    5    6 ar
    11    5   28 1
    12    6    7 ar
    13    7    8 1
    14    8   13 2
    15    8    9 1
    16    9   10 2
    17    9   41 1
    18   10   11 1
    19   10   14 1
    20   11   12 1
    21   11   13 1
    22   13   42 1
    23   14   15 2
    24   14   16 am
    25   16   17 1
    26   16   43 1
    27   17   18 1
    28   17   19 1
    29   17   21 1
    30   19   20 1
    31   19   44 1
    32   19   45 1
    33   20   46 1
    34   21   26 ar
    35   21   22 ar
    36   22   23 ar
    37   22   47 1
    38   23   24 ar
    39   23   48 1
    40   24   25 ar
    41   24   49 1
    42   25   26 ar
    43   25   27 1
    44   26   50 1
    45   28   29 1
    46   28   51 1
    47   29   34 ar
    48   29   30 ar
    49   30   31 ar
    50   30   52 1
    51   31   32 ar
    52   31   53 1
    53   32   33 ar
    54   32   36 1
    55   33   34 ar
    56   33   54 1
    57   34   35 1
@<TRIPOS>MOLECULE
ZINC05161616
   33    35     0     0     0
SMALL
USER_CHARGES
(2R,3R,4S,5R)-2-(4-amino-5-iodo-pyrrolo[3,2-e]pyrimidin-7-yl)-5-(hydroxymethyl)tetrahydrofuran-3,4-diol
@<TRIPOS>ATOM
      1 C1          3.2013    1.3802    2.8645 C.2       1 <0>         0.1087
      2 C2          4.5016    1.5081    3.1770 C.2       1 <0>        -0.1561
      3 C3          5.0290    2.5953    2.3541 C.ar      1 <0>        -0.2429
      4 C4          6.2802    3.2134    2.2063 C.ar      1 <0>         0.4946
      5 N1          6.3933    4.2071    1.3300 N.ar      1 <0>        -0.5947
      6 C5          5.3566    4.6057    0.6147 C.ar      1 <0>         0.3674
      7 N2          4.1666    4.0556    0.7201 N.ar      1 <0>        -0.5543
      8 C6          3.9533    3.0530    1.5713 C.ar      1 <0>         0.3663
      9 N3          2.8630    2.2959    1.9011 N.pl3     1 <0>        -0.4528
     10 C7          1.5284    2.4454    1.3158 C.3       1 <0>         0.3099
     11 H1          1.3059    3.4979    1.1400 H         1 <0>         0.1239
     12 C8          1.4269    1.6468   -0.0027 C.3       1 <0>         0.0792
     13 H2          2.1533    0.8343   -0.0165 H         1 <0>         0.0853
     14 C9         -0.0127    1.0858    0.0080 C.3       1 <0>         0.0462
     15 H3          0.0021   -0.0041    0.0020 H         1 <0>         0.0864
     16 C10        -0.6107    1.6118    1.3317 C.3       1 <0>         0.0503
     17 H4         -1.1613    2.5364    1.1584 H         1 <0>         0.1003
     18 O1          0.5316    1.8583    2.1804 O.3       1 <0>        -0.3474
     19 C11        -1.5234    0.5568    1.9602 C.3       1 <0>         0.0820
     20 O2         -2.1559    1.1036    3.1190 O.3       1 <0>        -0.5632
     21 O3         -0.7516    1.5814   -1.1102 O.3       1 <0>        -0.5398
     22 O4          1.6201    2.5086   -1.1262 O.3       1 <0>        -0.5247
     23 N4          7.3681    2.7997    2.9535 N.pl3     1 <0>        -0.8269
     24 I1          5.5667    0.3733    4.5793 I         1 <0>        -0.0010
     25 H5          2.5245    0.6626    3.3043 H         1 <0>         0.1863
     26 H6          5.4919    5.4165   -0.0858 H         1 <0>         0.2041
     27 H7         -2.2834    0.2575    1.2385 H         1 <0>         0.0670
     28 H8         -0.9310   -0.3125    2.2456 H         1 <0>         0.0604
     29 H9         -2.7507    0.4885    3.5696 H         1 <0>         0.3867
     30 H10        -1.6713    1.2840   -1.1370 H         1 <0>         0.3879
     31 H11         1.5077    2.0712   -1.9813 H         1 <0>         0.3904
     32 H12         7.2718    2.0736    3.5895 H         1 <0>         0.4094
     33 H13         8.2274    3.2355    2.8414 H         1 <0>         0.4110
@<TRIPOS>BOND
     1    1    9 1
     2    1    2 2
     3    1   25 1
     4    2    3 1
     5    2   24 1
     6    3    8 ar
     7    3    4 ar
     8    4    5 ar
     9    4   23 1
    10    5    6 ar
    11    6    7 ar
    12    6   26 1
    13    7    8 ar
    14    8    9 1
    15    9   10 1
    16   10   11 1
    17   10   18 1
    18   10   12 1
    19   12   13 1
    20   12   14 1
    21   12   22 1
    22   14   15 1
    23   14   16 1
    24   14   21 1
    25   16   17 1
    26   16   18 1
    27   16   19 1
    28   19   20 1
    29   19   27 1
    30   19   28 1
    31   20   29 1
    32   21   30 1
    33   22   31 1
    34   23   32 1
    35   23   33 1
