@<TRIPOS>MOLECULE
ZINC03815700
   43    46     0     0     0
SMALL
USER_CHARGES

@<TRIPOS>ATOM
      1 C1         -0.4417    2.5108    0.1274 C.3       1 <0>        -0.4980
      2 S1         -0.2285    0.7138    0.0013 S.o       1 <0>         1.3317
      3 O1          0.3381    0.2184    1.2066 O.2       1 <0>        -0.8500
      4 C2         -1.8753    0.0872    0.0153 C.ar      1 <0>        -0.4539
      5 C3         -2.4807   -0.2316    1.2179 C.ar      1 <0>        -0.0505
      6 C4         -3.7698   -0.7226    1.2359 C.ar      1 <0>        -0.0905
      7 C5         -4.4635   -0.8973    0.0374 C.ar      1 <0>         0.0183
      8 C6         -3.8471   -0.5733   -1.1722 C.ar      1 <0>        -0.1282
      9 C7         -2.5593   -0.0786   -1.1759 C.ar      1 <0>        -0.0372
     10 C8         -5.8450   -1.4235    0.0492 C.2       1 <0>         0.2539
     11 N1         -6.6187   -1.6414   -1.0552 N.pl3     1 <0>        -0.5494
     12 H1         -6.3641   -1.4808   -1.9773 H         1 <0>         0.4258
     13 C9         -7.8254   -2.1307   -0.6157 C.2       1 <0>         0.0559
     14 C10        -7.7421   -2.1946    0.7659 C.2       1 <0>         0.0600
     15 N2         -6.5217   -1.7612    1.1224 N.2       1 <0>        -0.4460
     16 C11        -8.8052   -2.6624    1.6841 C.ar      1 <0>         0.0397
     17 C12        -9.5683   -3.7960    1.3824 C.ar      1 <0>        -0.1547
     18 C13       -10.5481   -4.1969    2.2660 C.ar      1 <0>         0.1020
     19 N3        -10.7699   -3.5273    3.3814 N.ar      1 <0>        -0.4829
     20 C14       -10.0734   -2.4536    3.7038 C.ar      1 <0>         0.1009
     21 C15        -9.0708   -1.9865    2.8804 C.ar      1 <0>        -0.1469
     22 C16        -8.9814   -2.5126   -1.4503 C.ar      1 <0>        -0.0400
     23 C17       -10.2631   -2.0665   -1.1192 C.ar      1 <0>        -0.0563
     24 C18       -11.3392   -2.4265   -1.9026 C.ar      1 <0>        -0.1471
     25 C19       -11.1511   -3.2299   -3.0163 C.ar      1 <0>         0.1129
     26 C20        -9.8817   -3.6756   -3.3498 C.ar      1 <0>        -0.1491
     27 C21        -8.7972   -3.3169   -2.5775 C.ar      1 <0>        -0.0765
     28 F1        -12.2093   -3.5802   -3.7797 F         1 <0>        -0.1335
     29 H2          0.5355    2.9936    0.1264 H         1 <0>         0.1086
     30 H3         -1.0243    2.8681   -0.7218 H         1 <0>         0.1118
     31 H4         -0.9645    2.7506    1.0533 H         1 <0>         0.0820
     32 H5         -1.9427   -0.0960    2.1446 H         1 <0>         0.1340
     33 H6         -4.2409   -0.9717    2.1752 H         1 <0>         0.1409
     34 H7         -4.3783   -0.7065   -2.1030 H         1 <0>         0.1252
     35 H8         -2.0825    0.1760   -2.1109 H         1 <0>         0.1447
     36 H9         -9.3927   -4.3483    0.4711 H         1 <0>         0.1333
     37 H10       -11.1422   -5.0705    2.0420 H         1 <0>         0.1579
     38 H11       -10.2890   -1.9361    4.6268 H         1 <0>         0.1588
     39 H12        -8.5017   -1.1100    3.1527 H         1 <0>         0.1379
     40 H13       -10.4110   -1.4411   -0.2513 H         1 <0>         0.1357
     41 H14       -12.3306   -2.0822   -1.6477 H         1 <0>         0.1434
     42 H15        -9.7412   -4.3013   -4.2187 H         1 <0>         0.1424
     43 H16        -7.8079   -3.6609   -2.8410 H         1 <0>         0.1331
@<TRIPOS>BOND
     1    1    2 1
     2    1   29 1
     3    1   30 1
     4    1   31 1
     5    2    3 2
     6    2    4 1
     7    4    9 ar
     8    4    5 ar
     9    5    6 ar
    10    5   32 1
    11    6    7 ar
    12    6   33 1
    13    7    8 ar
    14    7   10 1
    15    8    9 ar
    16    8   34 1
    17    9   35 1
    18   10   15 2
    19   10   11 1
    20   11   12 1
    21   11   13 1
    22   13   14 2
    23   13   22 1
    24   14   15 1
    25   14   16 1
    26   16   21 ar
    27   16   17 ar
    28   17   18 ar
    29   17   36 1
    30   18   19 ar
    31   18   37 1
    32   19   20 ar
    33   20   21 ar
    34   20   38 1
    35   21   39 1
    36   22   27 ar
    37   22   23 ar
    38   23   24 ar
    39   23   40 1
    40   24   25 ar
    41   24   41 1
    42   25   26 ar
    43   25   28 1
    44   26   27 ar
    45   26   42 1
    46   27   43 1
@<TRIPOS>MOLECULE
ZINC18274812
   43    46     0     0     0
SMALL
USER_CHARGES

@<TRIPOS>ATOM
      1 C1          0.0458    2.4645   -0.3714 C.3       1 <0>        -0.4977
      2 S1          0.1034    0.6635   -0.1624 S.o       1 <0>         1.3328
      3 O1          0.9995    0.3374    0.8912 O.2       1 <0>        -0.8522
      4 C2          0.9248    0.0922   -1.6127 C.ar      1 <0>        -0.4531
      5 C3          0.1894   -0.2245   -2.7411 C.ar      1 <0>        -0.0385
      6 C4          0.8263   -0.6720   -3.8801 C.ar      1 <0>        -0.0921
      7 C5          2.2157   -0.8050   -3.8925 C.ar      1 <0>         0.0171
      8 C6          2.9515   -0.4838   -2.7508 C.ar      1 <0>        -0.1253
      9 C7          2.3027   -0.0324   -1.6200 C.ar      1 <0>        -0.0497
     10 C8          2.9049   -1.2844   -5.1094 C.2       1 <0>         0.2582
     11 N1          4.2515   -1.4590   -5.2384 N.pl3     1 <0>        -0.5486
     12 H1          4.9216   -1.2936   -4.5568 H         1 <0>         0.4252
     13 C9          4.4814   -1.9147   -6.5171 C.2       1 <0>         0.0337
     14 C10         3.2416   -2.0017   -7.1294 C.2       1 <0>         0.0807
     15 N2          2.3171   -1.6154   -6.2370 N.2       1 <0>        -0.4488
     16 C11         2.9826   -2.4473   -8.5186 C.ar      1 <0>        -0.0206
     17 C12         3.6496   -3.5590   -9.0325 C.ar      1 <0>        -0.0694
     18 C13         3.4051   -3.9700  -10.3265 C.ar      1 <0>        -0.1511
     19 C14         2.4988   -3.2799  -11.1154 C.ar      1 <0>         0.1060
     20 C15         1.8337   -2.1747  -10.6093 C.ar      1 <0>        -0.1526
     21 C16         2.0668   -1.7598   -9.3145 C.ar      1 <0>        -0.0599
     22 F1          2.2634   -3.6856  -12.3824 F         1 <0>        -0.1371
     23 C17         5.7881   -2.2443   -7.1163 C.ar      1 <0>         0.0226
     24 C18         6.1399   -1.7662   -8.3862 C.ar      1 <0>        -0.1423
     25 C19         7.3716   -2.0992   -8.9074 C.ar      1 <0>         0.1081
     26 N3          8.2131   -2.8565   -8.2286 N.ar      1 <0>        -0.4784
     27 C20         7.9224   -3.3278   -7.0303 C.ar      1 <0>         0.1071
     28 C21         6.7158   -3.0398   -6.4296 C.ar      1 <0>        -0.1652
     29 H2          1.0609    2.8540   -0.4489 H         1 <0>         0.0810
     30 H3         -0.5069    2.7075   -1.2790 H         1 <0>         0.1130
     31 H4         -0.4514    2.9143    0.4881 H         1 <0>         0.1088
     32 H5         -0.8856   -0.1215   -2.7301 H         1 <0>         0.1470
     33 H6          0.2512   -0.9192   -4.7602 H         1 <0>         0.1462
     34 H7          4.0268   -0.5845   -2.7539 H         1 <0>         0.1202
     35 H8          2.8713    0.2203   -0.7373 H         1 <0>         0.1322
     36 H9          4.3566   -4.0971   -8.4186 H         1 <0>         0.1287
     37 H10         3.9211   -4.8308  -10.7253 H         1 <0>         0.1387
     38 H11         1.1282   -1.6400  -11.2280 H         1 <0>         0.1401
     39 H12         1.5446   -0.9009   -8.9194 H         1 <0>         0.1377
     40 H13         5.4562   -1.1467   -8.9476 H         1 <0>         0.1400
     41 H14         7.6520   -1.7358   -9.8850 H         1 <0>         0.1626
     42 H15         8.6418   -3.9441   -6.5116 H         1 <0>         0.1610
     43 H16         6.4868   -3.4248   -5.4469 H         1 <0>         0.1340
@<TRIPOS>BOND
     1    1    2 1
     2    1   29 1
     3    1   30 1
     4    1   31 1
     5    2    3 2
     6    2    4 1
     7    4    9 ar
     8    4    5 ar
     9    5    6 ar
    10    5   32 1
    11    6    7 ar
    12    6   33 1
    13    7    8 ar
    14    7   10 1
    15    8    9 ar
    16    8   34 1
    17    9   35 1
    18   10   15 2
    19   10   11 1
    20   11   12 1
    21   11   13 1
    22   13   14 2
    23   13   23 1
    24   14   15 1
    25   14   16 1
    26   16   21 ar
    27   16   17 ar
    28   17   18 ar
    29   17   36 1
    30   18   19 ar
    31   18   37 1
    32   19   20 ar
    33   19   22 1
    34   20   21 ar
    35   20   38 1
    36   21   39 1
    37   23   28 ar
    38   23   24 ar
    39   24   25 ar
    40   24   40 1
    41   25   26 ar
    42   25   41 1
    43   26   27 ar
    44   27   28 ar
    45   27   42 1
    46   28   43 1
@<TRIPOS>MOLECULE
ZINC18274812
   43    46     0     0     0
SMALL
USER_CHARGES

@<TRIPOS>ATOM
      1 C1          0.0761    2.5207   -0.3946 C.3       1 <0>        -0.4977
      2 S1          0.1067    0.7194   -0.1829 S.o       1 <0>         1.3328
      3 O1          0.9925    0.3819    0.8757 O.2       1 <0>        -0.8523
      4 C2          0.9273    0.1342   -1.6283 C.ar      1 <0>        -0.4535
      5 C3          0.1933   -0.1734   -2.7600 C.ar      1 <0>        -0.0382
      6 C4          0.8295   -0.6320   -3.8950 C.ar      1 <0>        -0.0929
      7 C5          2.2169   -0.7850   -3.8999 C.ar      1 <0>         0.0183
      8 C6          2.9514   -0.4724   -2.7550 C.ar      1 <0>        -0.1257
      9 C7          2.3033   -0.0102   -1.6282 C.ar      1 <0>        -0.0496
     10 C8          2.9053   -1.2765   -5.1125 C.2       1 <0>         0.2536
     11 N1          4.2517   -1.4710   -5.2346 N.pl3     1 <0>        -0.5504
     12 H1          4.9205   -1.3136   -4.5499 H         1 <0>         0.4255
     13 C9          4.4817   -1.9314   -6.5089 C.2       1 <0>         0.0556
     14 C10         3.2446   -2.0022   -7.1288 C.2       1 <0>         0.0602
     15 N2          2.3192   -1.6008   -6.2417 N.2       1 <0>        -0.4443
     16 C11         2.9879   -2.4463   -8.5176 C.ar      1 <0>         0.0401
     17 C12         3.6482   -3.5593   -9.0502 C.ar      1 <0>        -0.1549
     18 C13         3.3789   -3.9386  -10.3482 C.ar      1 <0>         0.1021
     19 N3          2.5133   -3.2676  -11.0845 N.ar      1 <0>        -0.4831
     20 C14         1.8693   -2.2129  -10.6212 C.ar      1 <0>         0.1008
     21 C15         2.0741   -1.7682   -9.3321 C.ar      1 <0>        -0.1466
     22 C16         5.7882   -2.2812   -7.1001 C.ar      1 <0>        -0.0406
     23 C17         6.1350   -1.8042   -8.3665 C.ar      1 <0>        -0.0561
     24 C18         7.3568   -2.1344   -8.9137 C.ar      1 <0>        -0.1471
     25 C19         8.2399   -2.9383   -8.2101 C.ar      1 <0>         0.1131
     26 C20         7.9012   -3.4146   -6.9533 C.ar      1 <0>        -0.1492
     27 C21         6.6848   -3.0860   -6.3932 C.ar      1 <0>        -0.0767
     28 F1          9.4352   -3.2593   -8.7516 F         1 <0>        -0.1334
     29 H2          1.0971    2.8954   -0.4674 H         1 <0>         0.0810
     30 H3         -0.4683    2.7703   -1.3054 H         1 <0>         0.1130
     31 H4         -0.4189    2.9788    0.4616 H         1 <0>         0.1087
     32 H5         -0.8802   -0.0546   -2.7549 H         1 <0>         0.1468
     33 H6          0.2554   -0.8725   -4.7775 H         1 <0>         0.1457
     34 H7          4.0251   -0.5889   -2.7522 H         1 <0>         0.1204
     35 H8          2.8708    0.2356   -0.7429 H         1 <0>         0.1321
     36 H9          4.3583   -4.1127   -8.4536 H         1 <0>         0.1329
     37 H10         3.8834   -4.7962  -10.7681 H         1 <0>         0.1577
     38 H11         1.1696   -1.6933  -11.2591 H         1 <0>         0.1590
     39 H12         1.5402   -0.9072   -8.9580 H         1 <0>         0.1385
     40 H13         5.4474   -1.1783   -8.9159 H         1 <0>         0.1360
     41 H14         7.6261   -1.7662   -9.8926 H         1 <0>         0.1436
     42 H15         8.5933   -4.0406   -6.4097 H         1 <0>         0.1423
     43 H16         6.4240   -3.4537   -5.4118 H         1 <0>         0.1327
@<TRIPOS>BOND
     1    1    2 1
     2    1   29 1
     3    1   30 1
     4    1   31 1
     5    2    3 2
     6    2    4 1
     7    4    9 ar
     8    4    5 ar
     9    5    6 ar
    10    5   32 1
    11    6    7 ar
    12    6   33 1
    13    7    8 ar
    14    7   10 1
    15    8    9 ar
    16    8   34 1
    17    9   35 1
    18   10   15 2
    19   10   11 1
    20   11   12 1
    21   11   13 1
    22   13   14 2
    23   13   22 1
    24   14   15 1
    25   14   16 1
    26   16   21 ar
    27   16   17 ar
    28   17   18 ar
    29   17   36 1
    30   18   19 ar
    31   18   37 1
    32   19   20 ar
    33   20   21 ar
    34   20   38 1
    35   21   39 1
    36   22   27 ar
    37   22   23 ar
    38   23   24 ar
    39   23   40 1
    40   24   25 ar
    41   24   41 1
    42   25   26 ar
    43   25   28 1
    44   26   27 ar
    45   26   42 1
    46   27   43 1
@<TRIPOS>MOLECULE
ZINC49068170
   50    53     0     0     0
SMALL
USER_CHARGES

@<TRIPOS>ATOM
      1 C1         -0.0169    1.3938    0.0097 C.ar      1 <0>        -0.2943
      2 C2          1.1896    2.0690    0.0018 C.ar      1 <0>         0.1981
      3 N1          2.3189    1.3778   -0.0127 N.ar      1 <0>        -0.5760
      4 C3          2.3077    0.0526   -0.0197 C.ar      1 <0>         0.5760
      5 N2          1.1755   -0.6332   -0.0130 N.ar      1 <0>        -0.5706
      6 C4          0.0021   -0.0041    0.0020 C.ar      1 <0>         0.3099
      7 C5         -1.2644   -0.7738    0.0105 C.2       1 <0>        -0.2097
      8 C6         -2.5269   -0.2521    0.0198 C.2       1 <0>         0.1051
      9 N3         -3.3933   -1.2824    0.0247 N.pl3     1 <0>        -0.4654
     10 H1         -4.3607   -1.2113    0.0313 H         1 <0>         0.4462
     11 N4         -2.6585   -2.4740    0.0183 N.2       1 <0>        -0.2903
     12 C7         -1.3864   -2.1782    0.0041 C.2       1 <0>         0.1317
     13 C8         -0.2481   -3.1657   -0.0120 C.3       1 <0>        -0.0570
     14 H2          0.7002   -2.6283   -0.0181 H         1 <0>         0.1359
     15 C9         -0.3482   -4.0418   -1.2645 C.3       1 <0>        -0.1100
     16 C10         0.7672   -5.0911   -1.2306 C.3       1 <0>        -0.1534
     17 C11         0.6509   -5.9067    0.0598 C.3       1 <0>         0.0577
     18 O1          0.7206   -5.0283    1.1848 O.3       1 <0>        -0.3780
     19 C12        -0.3243   -4.0546    1.2321 C.3       1 <0>         0.0745
     20 N5          3.5106   -0.6319   -0.0349 N.pl3     1 <0>        -0.6952
     21 C13         4.7747    0.1086   -0.0429 C.3       1 <0>         0.1621
     22 C14         5.1375    0.4825   -1.4815 C.3       1 <0>        -0.1249
     23 C15         6.4576    1.2559   -1.4899 C.3       1 <0>        -0.1090
     24 C16         7.5642    0.3823   -0.8955 C.3       1 <0>         0.1025
     25 C17         7.2014    0.0084    0.5430 C.3       1 <0>        -0.1468
     26 C18         5.8812   -0.7650    0.5515 C.3       1 <0>        -0.1259
     27 O2          8.7972    1.1046   -0.9034 O.3       1 <0>        -0.5678
     28 H3         -0.9521    1.9336    0.0260 H         1 <0>         0.1392
     29 H4          1.2108    3.1488    0.0071 H         1 <0>         0.1663
     30 H5         -2.7834    0.7970    0.0233 H         1 <0>         0.1871
     31 H6         -1.3173   -4.5403   -1.2843 H         1 <0>         0.0661
     32 H7         -0.2378   -3.4209   -2.1535 H         1 <0>         0.0660
     33 H8          0.6701   -5.7539   -2.0905 H         1 <0>         0.0746
     34 H9          1.7365   -4.5935   -1.2608 H         1 <0>         0.0732
     35 H10        -0.3018   -6.4362    0.0705 H         1 <0>         0.0503
     36 H11         1.4677   -6.6267    0.1096 H         1 <0>         0.0942
     37 H12        -0.2101   -3.4404    2.1253 H         1 <0>         0.0911
     38 H13        -1.2898   -4.5599    1.2593 H         1 <0>         0.0529
     39 H14         3.5167   -1.6019   -0.0401 H         1 <0>         0.4123
     40 H15         4.6684    1.0154    0.5524 H         1 <0>         0.0941
     41 H16         5.2438   -0.4243   -2.0769 H         1 <0>         0.0636
     42 H17         4.3491    1.1049   -1.9050 H         1 <0>         0.0746
     43 H18         6.7161    1.5223   -2.5148 H         1 <0>         0.0718
     44 H19         6.3513    2.1627   -0.8946 H         1 <0>         0.0734
     45 H20         7.6705   -0.5245   -1.4909 H         1 <0>         0.0553
     46 H21         7.9897   -0.6140    0.9665 H         1 <0>         0.0706
     47 H22         7.0951    0.9152    1.1384 H         1 <0>         0.0751
     48 H23         5.6228   -1.0314    1.5763 H         1 <0>         0.0742
     49 H24         5.9876   -1.6718   -0.0439 H         1 <0>         0.0701
     50 H25         9.5447    0.6106   -0.5399 H         1 <0>         0.3784
@<TRIPOS>BOND
     1    1    6 ar
     2    1    2 ar
     3    1   28 1
     4    2    3 ar
     5    2   29 1
     6    3    4 ar
     7    4    5 ar
     8    4   20 1
     9    5    6 ar
    10    6    7 1
    11    7   12 1
    12    7    8 2
    13    8    9 1
    14    8   30 1
    15    9   10 1
    16    9   11 1
    17   11   12 2
    18   12   13 1
    19   13   14 1
    20   13   19 1
    21   13   15 1
    22   15   16 1
    23   15   31 1
    24   15   32 1
    25   16   17 1
    26   16   33 1
    27   16   34 1
    28   17   18 1
    29   17   35 1
    30   17   36 1
    31   18   19 1
    32   19   37 1
    33   19   38 1
    34   20   21 1
    35   20   39 1
    36   21   26 1
    37   21   22 1
    38   21   40 1
    39   22   23 1
    40   22   41 1
    41   22   42 1
    42   23   24 1
    43   23   43 1
    44   23   44 1
    45   24   25 1
    46   24   27 1
    47   24   45 1
    48   25   26 1
    49   25   46 1
    50   25   47 1
    51   26   48 1
    52   26   49 1
    53   27   50 1
@<TRIPOS>MOLECULE
ZINC49068172
   50    53     0     0     0
SMALL
USER_CHARGES

@<TRIPOS>ATOM
      1 C1         -0.0169    1.3938    0.0097 C.ar      1 <0>        -0.2943
      2 C2          1.1896    2.0690    0.0018 C.ar      1 <0>         0.1981
      3 N1          2.3189    1.3778   -0.0127 N.ar      1 <0>        -0.5760
      4 C3          2.3077    0.0526   -0.0197 C.ar      1 <0>         0.5760
      5 N2          1.1755   -0.6332   -0.0130 N.ar      1 <0>        -0.5706
      6 C4          0.0021   -0.0041    0.0020 C.ar      1 <0>         0.3099
      7 C5         -1.2644   -0.7738    0.0105 C.2       1 <0>        -0.2097
      8 C6         -2.5269   -0.2521    0.0198 C.2       1 <0>         0.1051
      9 N3         -3.3933   -1.2824    0.0247 N.pl3     1 <0>        -0.4654
     10 H1         -4.3607   -1.2113    0.0313 H         1 <0>         0.4462
     11 N4         -2.6585   -2.4740    0.0183 N.2       1 <0>        -0.2903
     12 C7         -1.3864   -2.1782    0.0041 C.2       1 <0>         0.1317
     13 C8         -0.2481   -3.1657   -0.0120 C.3       1 <0>        -0.0570
     14 H2          0.7002   -2.6283   -0.0181 H         1 <0>         0.1359
     15 C9         -0.3244   -4.0551    1.2328 C.3       1 <0>        -0.1101
     16 C10         0.7901   -5.1039    1.1665 C.3       1 <0>        -0.1534
     17 C11         0.6491   -5.9057   -0.1300 C.3       1 <0>         0.0576
     18 O1          0.6975   -5.0154   -1.2468 O.3       1 <0>        -0.3780
     19 C12        -0.3481   -4.0413   -1.2638 C.3       1 <0>         0.0746
     20 N5          3.5106   -0.6319   -0.0349 N.pl3     1 <0>        -0.6952
     21 C13         4.7747    0.1086   -0.0429 C.3       1 <0>         0.1622
     22 C14         5.1375    0.4825   -1.4815 C.3       1 <0>        -0.1253
     23 C15         6.4576    1.2559   -1.4899 C.3       1 <0>        -0.1090
     24 C16         7.5642    0.3823   -0.8955 C.3       1 <0>         0.1024
     25 C17         7.2014    0.0084    0.5430 C.3       1 <0>        -0.1467
     26 C18         5.8812   -0.7650    0.5515 C.3       1 <0>        -0.1258
     27 O2          8.7972    1.1046   -0.9034 O.3       1 <0>        -0.5677
     28 H3         -0.9521    1.9336    0.0260 H         1 <0>         0.1392
     29 H4          1.2108    3.1488    0.0071 H         1 <0>         0.1663
     30 H5         -2.7834    0.7970    0.0233 H         1 <0>         0.1871
     31 H6         -0.1970   -3.4437    2.1262 H         1 <0>         0.0660
     32 H7         -1.2930   -4.5539    1.2658 H         1 <0>         0.0662
     33 H8          1.7598   -4.6065    1.1835 H         1 <0>         0.0732
     34 H9          0.7093   -5.7758    2.0209 H         1 <0>         0.0746
     35 H10         1.4648   -6.6250   -0.2031 H         1 <0>         0.0942
     36 H11        -0.3037   -6.4351   -0.1282 H         1 <0>         0.0504
     37 H12        -1.3139   -4.5463   -1.2779 H         1 <0>         0.0529
     38 H13        -0.2508   -3.4176   -2.1524 H         1 <0>         0.0911
     39 H14         3.5167   -1.6019   -0.0401 H         1 <0>         0.4123
     40 H15         4.6684    1.0154    0.5524 H         1 <0>         0.0940
     41 H16         5.2438   -0.4243   -2.0769 H         1 <0>         0.0643
     42 H17         4.3491    1.1049   -1.9050 H         1 <0>         0.0749
     43 H18         6.7161    1.5223   -2.5148 H         1 <0>         0.0720
     44 H19         6.3513    2.1627   -0.8946 H         1 <0>         0.0732
     45 H20         7.6705   -0.5245   -1.4909 H         1 <0>         0.0556
     46 H21         7.9897   -0.6140    0.9665 H         1 <0>         0.0704
     47 H22         7.0951    0.9152    1.1384 H         1 <0>         0.0750
     48 H23         5.6228   -1.0314    1.5763 H         1 <0>         0.0733
     49 H24         5.9876   -1.6718   -0.0439 H         1 <0>         0.0705
     50 H25         9.5447    0.6106   -0.5399 H         1 <0>         0.3783
@<TRIPOS>BOND
     1    1    6 ar
     2    1    2 ar
     3    1   28 1
     4    2    3 ar
     5    2   29 1
     6    3    4 ar
     7    4    5 ar
     8    4   20 1
     9    5    6 ar
    10    6    7 1
    11    7   12 1
    12    7    8 2
    13    8    9 1
    14    8   30 1
    15    9   10 1
    16    9   11 1
    17   11   12 2
    18   12   13 1
    19   13   14 1
    20   13   19 1
    21   13   15 1
    22   15   16 1
    23   15   31 1
    24   15   32 1
    25   16   17 1
    26   16   33 1
    27   16   34 1
    28   17   18 1
    29   17   35 1
    30   17   36 1
    31   18   19 1
    32   19   37 1
    33   19   38 1
    34   20   21 1
    35   20   39 1
    36   21   26 1
    37   21   22 1
    38   21   40 1
    39   22   23 1
    40   22   41 1
    41   22   42 1
    42   23   24 1
    43   23   43 1
    44   23   44 1
    45   24   25 1
    46   24   27 1
    47   24   45 1
    48   25   26 1
    49   25   46 1
    50   25   47 1
    51   26   48 1
    52   26   49 1
    53   27   50 1
@<TRIPOS>MOLECULE
ZINC30691792
   49    51     0     0     0
SMALL
USER_CHARGES
6-(2,4-difluorophenoxy)-2-[[3-hydroxy-1-(2-hydroxyethyl)propyl]amino]-8-methyl-pyrido[2,3-d]pyrimidin-7-one
@<TRIPOS>ATOM
      1 C1          4.8540   -2.9986    0.3688 C.3       1 <0>         0.0683
      2 N1          3.5707   -2.2985    0.2736 N.am      1 <0>        -0.4995
      3 C2          2.4049   -3.0209    0.2849 C.ar      1 <0>         0.4522
      4 C3          1.1663   -2.3495    0.1933 C.ar      1 <0>        -0.2637
      5 C4          1.1502   -0.8930    0.0880 C.2       1 <0>        -0.0905
      6 C5          2.3412   -0.2332    0.0821 C.2       1 <0>         0.0088
      7 C6          3.5538   -0.9577    0.1711 C.2       1 <0>         0.5622
      8 O1          4.6102   -0.3501    0.1597 O.2       1 <0>        -0.4932
      9 O2          2.3658    1.1229   -0.0150 O.3       1 <0>        -0.2185
     10 C7          1.1794    1.7863    0.0107 C.ar      1 <0>         0.0320
     11 C8          0.5956    2.2109   -1.1735 C.ar      1 <0>        -0.0597
     12 C9         -0.6071    2.8905   -1.1457 C.ar      1 <0>        -0.1491
     13 C10        -1.2361    3.1387    0.0626 C.ar      1 <0>         0.1407
     14 C11        -0.6563    2.7158    1.2465 C.ar      1 <0>        -0.1818
     15 C12         0.5505    2.0402    1.2232 C.ar      1 <0>         0.1250
     16 F1          1.1168    1.6272    2.3782 F         1 <0>        -0.1160
     17 F2         -2.4144    3.7992    0.0867 F         1 <0>        -0.1226
     18 C13        -0.0117   -3.1039    0.2059 C.ar      1 <0>         0.2539
     19 N2          0.0838   -4.4183    0.3034 N.ar      1 <0>        -0.5757
     20 C14         1.2660   -5.0175    0.3878 C.ar      1 <0>         0.6098
     21 N3          2.4068   -4.3447    0.3802 N.ar      1 <0>        -0.5977
     22 N4          1.3073   -6.3949    0.4880 N.pl3     1 <0>        -0.6963
     23 C15         0.0619   -7.1662    0.4994 C.3       1 <0>         0.1696
     24 C16         0.3365   -8.5858   -0.0008 C.3       1 <0>        -0.1274
     25 C17         0.7677   -8.5351   -1.4679 C.3       1 <0>         0.0867
     26 O3          1.0243   -9.8610   -1.9351 O.3       1 <0>        -0.6043
     27 C18        -0.4881   -7.2256    1.9259 C.3       1 <0>        -0.1310
     28 C19        -0.8795   -5.8181    2.3806 C.3       1 <0>         0.0963
     29 O4         -1.3932   -5.8736    3.7130 O.3       1 <0>        -0.6094
     30 H1          4.6761   -4.0814    0.4453 H         1 <0>         0.1086
     31 H2          5.3954   -2.6520    1.2614 H         1 <0>         0.0815
     32 H3          5.4540   -2.7881   -0.5288 H         1 <0>         0.0815
     33 H4          0.2175   -0.3531    0.0162 H         1 <0>         0.1480
     34 H5          1.0832    2.0143   -2.1169 H         1 <0>         0.1573
     35 H6         -1.0591    3.2249   -2.0678 H         1 <0>         0.1555
     36 H7         -1.1461    2.9137    2.1885 H         1 <0>         0.1592
     37 H8         -0.9764   -2.6234    0.1372 H         1 <0>         0.1809
     38 H9          2.2754   -6.9124    0.5592 H         1 <0>         0.4394
     39 H10        -0.6449   -6.6505   -0.1673 H         1 <0>         0.1005
     40 H11         1.1381   -9.0381    0.6016 H         1 <0>         0.0800
     41 H12        -0.5777   -9.1905    0.0920 H         1 <0>         0.0921
     42 H13        -0.0339   -8.0828   -2.0702 H         1 <0>         0.0420
     43 H14         1.6818   -7.9303   -1.5607 H         1 <0>         0.0426
     44 H15         1.3473  -10.0253   -2.9737 H         1 <0>         0.4126
     45 H16        -1.3731   -7.8783    1.9507 H         1 <0>         0.0829
     46 H17         0.2829   -7.6275    2.5997 H         1 <0>         0.0722
     47 H18         0.0056   -5.1654    2.3557 H         1 <0>         0.0338
     48 H19        -1.6505   -5.4162    1.7068 H         1 <0>         0.0533
     49 H20        -1.7283   -4.9524    4.2121 H         1 <0>         0.4072
@<TRIPOS>BOND
     1    1    2 1
     2    1   30 1
     3    1   31 1
     4    1   32 1
     5    2    7 am
     6    2    3 1
     7    3   21 ar
     8    3    4 ar
     9    4    5 1
    10    4   18 ar
    11    5    6 2
    12    5   33 1
    13    6    7 1
    14    6    9 1
    15    7    8 2
    16    9   10 1
    17   10   15 ar
    18   10   11 ar
    19   11   12 ar
    20   11   34 1
    21   12   13 ar
    22   12   35 1
    23   13   14 ar
    24   13   17 1
    25   14   15 ar
    26   14   36 1
    27   15   16 1
    28   18   19 ar
    29   18   37 1
    30   19   20 ar
    31   20   21 ar
    32   20   22 1
    33   22   23 1
    34   22   38 1
    35   23   24 1
    36   23   27 1
    37   23   39 1
    38   24   25 1
    39   24   40 1
    40   24   41 1
    41   25   26 1
    42   25   42 1
    43   25   43 1
    44   26   44 1
    45   27   28 1
    46   27   45 1
    47   27   46 1
    48   28   29 1
    49   28   47 1
    50   28   48 1
    51   29   49 1
@<TRIPOS>MOLECULE
ZINC43175302
   57    60     0     0     0
SMALL
USER_CHARGES

@<TRIPOS>ATOM
      1 C1         -0.6600    0.0055    0.8437 C.3       1 <0>         0.1213
      2 N1          0.0171   -0.4221   -0.3830 N.pl3     1 <0>        -0.6379
      3 C2          1.4674   -0.2613   -0.5133 C.3       1 <0>         0.1201
      4 C3         -0.7140   -0.9783   -1.4198 C.2       1 <0>         0.3947
      5 C4         -0.9179   -2.3309   -1.6502 C.2       1 <0>        -0.2281
      6 C5         -1.7168   -2.4399   -2.8076 C.2       1 <0>         0.0871
      7 N2         -1.9742   -1.2364   -3.2412 N.2       1 <0>        -0.2869
      8 N3         -1.3665   -0.3051   -2.3918 N.pl3     1 <0>        -0.3657
      9 C6         -1.4252    1.1517   -2.5346 C.3       1 <0>         0.1730
     10 C7         -0.3295    1.6102   -3.4621 C.ar      1 <0>        -0.1168
     11 C8          0.8771    2.0439   -2.9454 C.ar      1 <0>        -0.0998
     12 C9          1.8821    2.4644   -3.7962 C.ar      1 <0>        -0.1236
     13 C10         1.6808    2.4508   -5.1637 C.ar      1 <0>        -0.1082
     14 C11         0.4746    2.0162   -5.6805 C.ar      1 <0>        -0.1224
     15 C12        -0.5289    1.5916   -4.8299 C.ar      1 <0>        -0.0888
     16 C13        -0.3954   -3.4487   -0.8357 C.ar      1 <0>         0.3167
     17 C14        -0.7599   -4.7698   -1.1238 C.ar      1 <0>        -0.2914
     18 C15        -0.2462   -5.7806   -0.3356 C.ar      1 <0>         0.1912
     19 N4          0.5701   -5.4742    0.6623 N.ar      1 <0>        -0.5822
     20 C16         0.8991   -4.2154    0.9135 C.ar      1 <0>         0.5693
     21 N5          0.4344   -3.2155    0.1807 N.ar      1 <0>        -0.5604
     22 N6          1.7549   -3.9393    1.9657 N.pl3     1 <0>        -0.6937
     23 C17         2.2846   -5.0321    2.7851 C.3       1 <0>         0.1633
     24 C18         1.2795   -5.3778    3.8856 C.3       1 <0>        -0.1268
     25 C19         1.0436   -4.1486    4.7655 C.3       1 <0>        -0.1102
     26 C20         2.3662   -3.7148    5.4007 C.3       1 <0>         0.1043
     27 C21         3.3714   -3.3690    4.3003 C.3       1 <0>        -0.1522
     28 C22         3.6072   -4.5983    3.4204 C.3       1 <0>        -0.1264
     29 O1          2.1459   -2.5667    6.2225 O.3       1 <0>        -0.5683
     30 H1         -0.4261    1.0515    1.0422 H         1 <0>         0.0476
     31 H2         -1.7372   -0.1094    0.7231 H         1 <0>         0.0577
     32 H3         -0.3205   -0.6074    1.6787 H         1 <0>         0.0529
     33 H4          1.8750    0.1287    0.4193 H         1 <0>         0.0693
     34 H5          1.9218   -1.2275   -0.7325 H         1 <0>         0.0527
     35 H6          1.6845    0.4345   -1.3238 H         1 <0>         0.0405
     36 H7         -2.0567   -3.3610   -3.2576 H         1 <0>         0.1882
     37 H8         -2.3931    1.4377   -2.9463 H         1 <0>         0.1030
     38 H9         -1.2935    1.6181   -1.5582 H         1 <0>         0.1008
     39 H10         1.0343    2.0545   -1.8770 H         1 <0>         0.1244
     40 H11         2.8245    2.8039   -3.3925 H         1 <0>         0.1242
     41 H12         2.4658    2.7800   -5.8284 H         1 <0>         0.1239
     42 H13         0.3172    2.0059   -6.7489 H         1 <0>         0.1250
     43 H14        -1.4700    1.2486   -5.2338 H         1 <0>         0.1257
     44 H15        -1.4274   -4.9928   -1.9429 H         1 <0>         0.1388
     45 H16        -0.5073   -6.8103   -0.5302 H         1 <0>         0.1630
     46 H17         2.0039   -3.0223    2.1605 H         1 <0>         0.4085
     47 H18         2.4526   -5.9078    2.1583 H         1 <0>         0.0942
     48 H19         0.3372   -5.6869    3.4330 H         1 <0>         0.0751
     49 H20         1.6736   -6.1909    4.4953 H         1 <0>         0.0727
     50 H21         0.6495   -3.3356    4.1558 H         1 <0>         0.0686
     51 H22         0.3275   -4.3949    5.5495 H         1 <0>         0.0673
     52 H23         2.7603   -4.5278    6.0104 H         1 <0>         0.0557
     53 H24         2.9772   -2.5560    3.6906 H         1 <0>         0.0682
     54 H25         4.3136   -3.0600    4.7528 H         1 <0>         0.0686
     55 H26         4.0013   -5.4113    4.0301 H         1 <0>         0.0818
     56 H27         4.3233   -4.3520    2.6364 H         1 <0>         0.0730
     57 H28         2.9434   -2.2360    6.6582 H         1 <0>         0.3775
@<TRIPOS>BOND
     1    1    2 1
     2    1   30 1
     3    1   31 1
     4    1   32 1
     5    2    3 1
     6    2    4 1
     7    3   33 1
     8    3   34 1
     9    3   35 1
    10    4    8 1
    11    4    5 2
    12    5    6 1
    13    5   16 1
    14    6    7 2
    15    6   36 1
    16    7    8 1
    17    8    9 1
    18    9   10 1
    19    9   37 1
    20    9   38 1
    21   10   15 ar
    22   10   11 ar
    23   11   12 ar
    24   11   39 1
    25   12   13 ar
    26   12   40 1
    27   13   14 ar
    28   13   41 1
    29   14   15 ar
    30   14   42 1
    31   15   43 1
    32   16   21 ar
    33   16   17 ar
    34   17   18 ar
    35   17   44 1
    36   18   19 ar
    37   18   45 1
    38   19   20 ar
    39   20   21 ar
    40   20   22 1
    41   22   23 1
    42   22   46 1
    43   23   28 1
    44   23   24 1
    45   23   47 1
    46   24   25 1
    47   24   48 1
    48   24   49 1
    49   25   26 1
    50   25   50 1
    51   25   51 1
    52   26   27 1
    53   26   29 1
    54   26   52 1
    55   27   28 1
    56   27   53 1
    57   27   54 1
    58   28   55 1
    59   28   56 1
    60   29   57 1
@<TRIPOS>MOLECULE
ZINC43175302
   58    61     0     0     0
SMALL
USER_CHARGES

@<TRIPOS>ATOM
      1 C1         -0.7841   -0.0119    0.4092 C.3       1 <0>         0.1078
      2 N1          0.3590   -0.3574   -0.4393 N.pl3     1 <0>        -0.6265
      3 C2          1.7236   -0.1946    0.0681 C.3       1 <0>         0.1073
      4 C3          0.1496   -0.8381   -1.7215 C.2       1 <0>         0.4987
      5 C4          0.1048   -2.1707   -2.1040 C.2       1 <0>        -0.1726
      6 C5         -0.1297   -2.1966   -3.4947 C.2       1 <0>         0.2208
      7 N2         -0.2193   -0.9652   -3.9169 N.pl3     1 <0>        -0.3719
      8 N3         -0.0549   -0.0971   -2.8318 N.pl3     1 <0>        -0.3283
      9 C6         -0.0948    1.3662   -2.8907 C.3       1 <0>         0.1459
     10 C7          1.3043    1.9005   -3.0587 C.ar      1 <0>        -0.1491
     11 C8          2.0261    2.3077   -1.9524 C.ar      1 <0>        -0.0879
     12 C9          3.3095    2.7978   -2.1065 C.ar      1 <0>        -0.1151
     13 C10         3.8712    2.8802   -3.3669 C.ar      1 <0>        -0.0875
     14 C11         3.1497    2.4721   -4.4731 C.ar      1 <0>        -0.1151
     15 C12         1.8679    1.9780   -4.3186 C.ar      1 <0>        -0.0972
     16 C13         0.2720   -3.3439   -1.2200 C.ar      1 <0>         0.2829
     17 C14         0.1056   -4.6411   -1.7205 C.ar      1 <0>        -0.2835
     18 C15         0.2724   -5.7057   -0.8569 C.ar      1 <0>         0.2086
     19 N4          0.5826   -5.4712    0.4099 N.ar      1 <0>        -0.5601
     20 C16         0.7344   -4.2336    0.8580 C.ar      1 <0>         0.5797
     21 N5          0.5890   -3.1838    0.0646 N.ar      1 <0>        -0.5554
     22 N6          1.0585   -4.0332    2.1886 N.pl3     1 <0>        -0.6838
     23 C17         1.2293   -5.1818    3.0818 C.3       1 <0>         0.1593
     24 C18        -0.1338   -5.6086    3.6301 C.3       1 <0>        -0.1279
     25 C19        -0.7577   -4.4472    4.4064 C.3       1 <0>        -0.1099
     26 C20         0.1599   -4.0584    5.5673 C.3       1 <0>         0.1023
     27 C21         1.5230   -3.6315    5.0191 C.3       1 <0>        -0.1523
     28 C22         2.1469   -4.7930    4.2428 C.3       1 <0>        -0.1280
     29 O1         -0.4229   -2.9736    6.2924 O.3       1 <0>        -0.5686
     30 H1         -0.9909    1.0549    0.3235 H         1 <0>         0.0530
     31 H2         -1.6586   -0.5784    0.0891 H         1 <0>         0.0668
     32 H3         -0.5534   -0.2551    1.4464 H         1 <0>         0.0888
     33 H4          2.0454   -1.1187    0.5483 H         1 <0>         0.0708
     34 H5          2.3939    0.0372   -0.7596 H         1 <0>         0.0618
     35 H6          1.7470    0.6188    0.7933 H         1 <0>         0.0808
     36 H7         -0.2192   -3.0831   -4.1051 H         1 <0>         0.2406
     37 H8         -0.7072    1.6793   -3.7363 H         1 <0>         0.1243
     38 H9         -0.5239    1.7555   -1.9675 H         1 <0>         0.1366
     39 H10         1.5873    2.2433   -0.9677 H         1 <0>         0.1292
     40 H11         3.8732    3.1166   -1.2422 H         1 <0>         0.1349
     41 H12         4.8736    3.2637   -3.4873 H         1 <0>         0.1346
     42 H13         3.5884    2.5368   -5.4579 H         1 <0>         0.1335
     43 H14         1.3056    1.6557   -5.1825 H         1 <0>         0.1211
     44 H15        -0.1476   -4.8052   -2.7575 H         1 <0>         0.1445
     45 H16         0.1510   -6.7190   -1.2103 H         1 <0>         0.1745
     46 H17         1.1725   -3.1324    2.5297 H         1 <0>         0.4117
     47 H18         1.6738   -6.0092    2.5288 H         1 <0>         0.0982
     48 H19        -0.7876   -5.8856    2.8031 H         1 <0>         0.0748
     49 H20        -0.0067   -6.4632    4.2947 H         1 <0>         0.0787
     50 H21        -0.8848   -3.5926    3.7418 H         1 <0>         0.0654
     51 H22        -1.7289   -4.7513    4.7970 H         1 <0>         0.0706
     52 H23         0.2870   -4.9129    6.2319 H         1 <0>         0.0588
     53 H24         1.3959   -2.7770    4.3545 H         1 <0>         0.0654
     54 H25         2.1767   -3.3545    5.8461 H         1 <0>         0.0722
     55 H26         2.2740   -5.6475    4.9073 H         1 <0>         0.0870
     56 H27         3.1180   -4.4889    3.8522 H         1 <0>         0.0746
     57 H28         0.1061   -2.6740    7.0444 H         1 <0>         0.3806
     58 H29        -0.3779   -0.6950   -4.8350 H         1 <0>         0.4734
@<TRIPOS>BOND
     1    1    2 1
     2    1   30 1
     3    1   31 1
     4    1   32 1
     5    2    3 1
     6    2    4 1
     7    3   33 1
     8    3   34 1
     9    3   35 1
    10    4    8 1
    11    4    5 2
    12    5    6 1
    13    5   16 1
    14    6    7 2
    15    6   36 1
    16    7    8 1
    17    7   58 1
    18    8    9 1
    19    9   10 1
    20    9   37 1
    21    9   38 1
    22   10   15 ar
    23   10   11 ar
    24   11   12 ar
    25   11   39 1
    26   12   13 ar
    27   12   40 1
    28   13   14 ar
    29   13   41 1
    30   14   15 ar
    31   14   42 1
    32   15   43 1
    33   16   21 ar
    34   16   17 ar
    35   17   18 ar
    36   17   44 1
    37   18   19 ar
    38   18   45 1
    39   19   20 ar
    40   20   21 ar
    41   20   22 1
    42   22   23 1
    43   22   46 1
    44   23   28 1
    45   23   24 1
    46   23   47 1
    47   24   25 1
    48   24   48 1
    49   24   49 1
    50   25   26 1
    51   25   50 1
    52   25   51 1
    53   26   27 1
    54   26   29 1
    55   26   52 1
    56   27   28 1
    57   27   53 1
    58   27   54 1
    59   28   55 1
    60   28   56 1
    61   29   57 1
@<TRIPOS>MOLECULE
ZINC01403973
   39    41     0     0     0
SMALL
USER_CHARGES

@<TRIPOS>ATOM
      1 C1          2.5349   -0.9285    1.4656 C.3       1 <0>        -0.1225
      2 C2          1.2593   -1.1662    0.6991 C.ar      1 <0>        -0.0553
      3 C3          1.3015   -1.7544   -0.5480 C.ar      1 <0>        -0.1216
      4 C4          0.1313   -1.9734   -1.2530 C.ar      1 <0>        -0.1019
      5 C5         -1.0885   -1.6045   -0.7133 C.ar      1 <0>        -0.1246
      6 C6         -1.1451   -1.0155    0.5325 C.ar      1 <0>        -0.0810
      7 C7          0.0317   -0.7969    1.2520 C.ar      1 <0>        -0.1433
      8 C8         -0.0218   -0.1716    2.5905 C.2       1 <0>         0.4742
      9 O1         -0.2116    1.0250    2.6955 O.2       1 <0>        -0.4451
     10 C9          0.1548   -0.9979    3.7969 C.2       1 <0>        -0.2583
     11 C10         0.0542   -0.5604    5.1375 C.2       1 <0>        -0.0397
     12 C11         0.2889   -1.6447    5.9295 C.2       1 <0>        -0.0654
     13 N1          0.5298   -2.7313    5.1168 N.pl3     1 <0>        -0.5246
     14 H1          0.7253   -3.6303    5.4243 H         1 <0>         0.4216
     15 C12         0.4448   -2.3506    3.8325 C.2       1 <0>         0.1008
     16 C13         0.2860   -1.6534    7.3977 C.2       1 <0>         0.5930
     17 O2          0.0595   -0.6276    8.0117 O.2       1 <0>        -0.5171
     18 N2          0.5341   -2.7975    8.0654 N.am      1 <0>        -0.7310
     19 C14         0.5312   -2.8062    9.5303 C.3       1 <0>         0.2051
     20 C15         0.8339   -4.1971   10.0251 C.2       1 <0>        -0.0461
     21 C16         2.0575   -4.6882   10.2919 C.2       1 <0>        -0.1789
     22 C17         1.8778   -6.0213   10.7272 C.2       1 <0>        -0.2183
     23 C18         0.5552   -6.2651   10.7004 C.2       1 <0>        -0.0245
     24 O3         -0.0726   -5.1547   10.2799 O.3       1 <0>        -0.1712
     25 H2          2.7050   -1.7566    2.1536 H         1 <0>         0.0747
     26 H3          3.3698   -0.8578    0.7685 H         1 <0>         0.0731
     27 H4          2.4524    0.0009    2.0291 H         1 <0>         0.0684
     28 H5          2.2501   -2.0443   -0.9752 H         1 <0>         0.1280
     29 H6          0.1700   -2.4339   -2.2291 H         1 <0>         0.1263
     30 H7         -1.9981   -1.7779   -1.2691 H         1 <0>         0.1282
     31 H8         -2.0976   -0.7278    0.9524 H         1 <0>         0.1271
     32 H9         -0.1664    0.4429    5.4709 H         1 <0>         0.1606
     33 H10         0.5823   -2.9904    2.9732 H         1 <0>         0.1849
     34 H11         0.7147   -3.6153    7.5759 H         1 <0>         0.3974
     35 H12         1.2901   -2.1161    9.8993 H         1 <0>         0.1047
     36 H13        -0.4487   -2.4966    9.8936 H         1 <0>         0.0906
     37 H14         2.9969   -4.1648   10.1921 H         1 <0>         0.1522
     38 H15         2.6536   -6.7115   11.0240 H         1 <0>         0.1526
     39 H16         0.0786   -7.1947   10.9745 H         1 <0>         0.2069
@<TRIPOS>BOND
     1    1    2 1
     2    1   25 1
     3    1   26 1
     4    1   27 1
     5    2    7 ar
     6    2    3 ar
     7    3    4 ar
     8    3   28 1
     9    4    5 ar
    10    4   29 1
    11    5    6 ar
    12    5   30 1
    13    6    7 ar
    14    6   31 1
    15    7    8 1
    16    8    9 2
    17    8   10 1
    18   10   15 2
    19   10   11 1
    20   11   12 2
    21   11   32 1
    22   12   13 1
    23   12   16 1
    24   13   14 1
    25   13   15 1
    26   15   33 1
    27   16   17 2
    28   16   18 am
    29   18   19 1
    30   18   34 1
    31   19   20 1
    32   19   35 1
    33   19   36 1
    34   20   24 1
    35   20   21 2
    36   21   22 1
    37   21   37 1
    38   22   23 2
    39   22   38 1
    40   23   24 1
    41   23   39 1
@<TRIPOS>MOLECULE
ZINC58633224
   46    49     0     0     0
SMALL
USER_CHARGES

@<TRIPOS>ATOM
      1 C1          0.0061    1.4638   -0.3326 C.3       1 <0>         0.0692
      2 N1          0.0190    0.0075   -0.1738 N.am      1 <0>        -0.5030
      3 C2         -1.1667   -0.6667   -0.0299 C.ar      1 <0>         0.4666
      4 C3         -1.1578   -2.0702    0.1228 C.ar      1 <0>        -0.2897
      5 C4          0.1185   -2.7800    0.1246 C.2       1 <0>         0.0266
      6 C5          1.2608   -2.0539   -0.0224 C.2       1 <0>        -0.0441
      7 C6          1.1930   -0.6486   -0.1770 C.2       1 <0>         0.5312
      8 O1          2.2258   -0.0160   -0.3120 O.2       1 <0>        -0.5008
      9 O2          2.4679   -2.6800   -0.0252 O.3       1 <0>        -0.2141
     10 C7          3.3138   -2.4399    1.0118 C.ar      1 <0>         0.0835
     11 C8          2.8933   -1.6721    2.0874 C.ar      1 <0>        -0.1285
     12 C9          3.7539   -1.4288    3.1406 C.ar      1 <0>        -0.1228
     13 C10         5.0363   -1.9506    3.1236 C.ar      1 <0>         0.1014
     14 C11         5.4595   -2.7171    2.0511 C.ar      1 <0>        -0.1543
     15 C12         4.5987   -2.9680    0.9978 C.ar      1 <0>         0.1132
     16 F1          5.0091   -3.7209   -0.0463 F         1 <0>        -0.1197
     17 F2          5.8759   -1.7112    4.1546 F         1 <0>        -0.1289
     18 C13        -2.3773   -2.7400    0.2678 C.ar      1 <0>         0.2730
     19 N2         -3.4912   -2.0290    0.2558 N.ar      1 <0>        -0.5773
     20 C14        -3.4630   -0.7093    0.1100 C.ar      1 <0>         0.6155
     21 N3         -2.3328   -0.0330   -0.0304 N.ar      1 <0>        -0.5988
     22 N4         -4.6577   -0.0155    0.1047 N.pl3     1 <0>        -0.6787
     23 C15        -5.9240   -0.7362    0.2579 C.3       1 <0>         0.1569
     24 C16        -6.3937   -1.2433   -1.1090 C.3       1 <0>        -0.1664
     25 C17        -7.7549   -1.9259   -0.9512 C.3       1 <0>         0.0636
     26 O3         -8.6865   -1.0025   -0.3841 O.3       1 <0>        -0.3805
     27 C18        -8.3231   -0.5307    0.9149 C.3       1 <0>         0.0655
     28 C19        -6.9847    0.2080    0.8321 C.3       1 <0>        -0.1666
     29 H1          1.0285    1.8269   -0.4377 H         1 <0>         0.1019
     30 H2         -0.5663    1.7273   -1.2220 H         1 <0>         0.0817
     31 H3         -0.4534    1.9207    0.5438 H         1 <0>         0.0817
     32 H4          0.1553   -3.8532    0.2400 H         1 <0>         0.1638
     33 H5          1.8934   -1.2643    2.1017 H         1 <0>         0.1368
     34 H6          3.4261   -0.8305    3.9779 H         1 <0>         0.1472
     35 H7          6.4602   -3.1232    2.0391 H         1 <0>         0.1595
     36 H8         -2.4078   -3.8130    0.3864 H         1 <0>         0.1883
     37 H9         -4.6582    0.9487   -0.0006 H         1 <0>         0.4173
     38 H10        -5.7836   -1.5805    0.9329 H         1 <0>         0.0996
     39 H11        -6.4852   -0.4031   -1.7974 H         1 <0>         0.0736
     40 H12        -5.6706   -1.9589   -1.5002 H         1 <0>         0.0811
     41 H13        -8.1139   -2.2510   -1.9277 H         1 <0>         0.0988
     42 H14        -7.6542   -2.7901   -0.2946 H         1 <0>         0.0564
     43 H15        -9.0914    0.1493    1.2828 H         1 <0>         0.1015
     44 H16        -8.2298   -1.3766    1.5960 H         1 <0>         0.0563
     45 H17        -6.6842    0.5303    1.8290 H         1 <0>         0.0828
     46 H18        -7.0881    1.0775    0.1829 H         1 <0>         0.0799
@<TRIPOS>BOND
     1    1    2 1
     2    1   29 1
     3    1   30 1
     4    1   31 1
     5    2    7 am
     6    2    3 1
     7    3   21 ar
     8    3    4 ar
     9    4    5 1
    10    4   18 ar
    11    5    6 2
    12    5   32 1
    13    6    7 1
    14    6    9 1
    15    7    8 2
    16    9   10 1
    17   10   15 ar
    18   10   11 ar
    19   11   12 ar
    20   11   33 1
    21   12   13 ar
    22   12   34 1
    23   13   14 ar
    24   13   17 1
    25   14   15 ar
    26   14   35 1
    27   15   16 1
    28   18   19 ar
    29   18   36 1
    30   19   20 ar
    31   20   21 ar
    32   20   22 1
    33   22   23 1
    34   22   37 1
    35   23   28 1
    36   23   24 1
    37   23   38 1
    38   24   25 1
    39   24   39 1
    40   24   40 1
    41   25   26 1
    42   25   41 1
    43   25   42 1
    44   26   27 1
    45   27   28 1
    46   27   43 1
    47   27   44 1
    48   28   45 1
    49   28   46 1
@<TRIPOS>MOLECULE
ZINC02878998
   41    43     0     0     0
SMALL
USER_CHARGES
methyl 2-[2-(1-naphthyl)acetyl]aminobenzoate
@<TRIPOS>ATOM
      1 C1         -6.7305    9.1004   -0.9347 C.3       1 <0>         0.0364
      2 O1         -6.3712    8.3369   -2.1163 O.3       1 <0>        -0.3515
      3 C2         -5.6097    7.2411   -1.9285 C.2       1 <0>         0.5166
      4 O2         -5.2557    6.9320   -0.8080 O.2       1 <0>        -0.5146
      5 C3         -5.2064    6.4175   -3.0822 C.ar      1 <0>        -0.1666
      6 C4         -5.5148    6.8286   -4.3818 C.ar      1 <0>        -0.0419
      7 C5         -5.1345    6.0543   -5.4560 C.ar      1 <0>        -0.1499
      8 C6         -4.4463    4.8683   -5.2552 C.ar      1 <0>        -0.0595
      9 C7         -4.1302    4.4515   -3.9780 C.ar      1 <0>        -0.1378
     10 C8         -4.5098    5.2158   -2.8827 C.ar      1 <0>         0.2169
     11 N1         -4.1958    4.7948   -1.5930 N.am      1 <0>        -0.6659
     12 C9         -3.0346    4.1522   -1.3578 C.2       1 <0>         0.5166
     13 O3         -2.3008    3.8687   -2.2808 O.2       1 <0>        -0.5040
     14 C10        -2.6482    3.7859    0.0520 C.3       1 <0>        -0.1017
     15 C11        -1.3164    3.0809    0.0407 C.ar      1 <0>        -0.0592
     16 C12        -1.2622    1.7210    0.0125 C.ar      1 <0>        -0.1001
     17 C13        -0.0402    1.0517    0.0072 C.ar      1 <0>        -0.1150
     18 C14         1.1351    1.7384    0.0179 C.ar      1 <0>        -0.1018
     19 C15         1.1193    3.1431    0.0405 C.ar      1 <0>        -0.0516
     20 C16        -0.1239    3.8239    0.0519 C.ar      1 <0>        -0.0325
     21 C17        -0.1398    5.2291    0.0738 C.ar      1 <0>        -0.1082
     22 C18         1.0352    5.9156    0.0845 C.ar      1 <0>        -0.1128
     23 C19         2.2577    5.2462    0.0732 C.ar      1 <0>        -0.1173
     24 C20         2.3120    3.8866    0.0516 C.ar      1 <0>        -0.1042
     25 H1         -7.2935    8.4664   -0.2498 H         1 <0>         0.0655
     26 H2         -5.8251    9.4539   -0.4413 H         1 <0>         0.0652
     27 H3         -7.3425    9.9541   -1.2259 H         1 <0>         0.1050
     28 H4         -6.0504    7.7524   -4.5438 H         1 <0>         0.1422
     29 H5         -5.3736    6.3734   -6.4597 H         1 <0>         0.1347
     30 H6         -4.1521    4.2684   -6.1037 H         1 <0>         0.1348
     31 H7         -3.5900    3.5280   -3.8302 H         1 <0>         0.1496
     32 H8         -4.8127    4.9641   -0.8638 H         1 <0>         0.4219
     33 H9         -3.4050    3.1261    0.4763 H         1 <0>         0.1106
     34 H10        -2.5754    4.6906    0.6555 H         1 <0>         0.1112
     35 H11        -2.1803    1.1523   -0.0012 H         1 <0>         0.1223
     36 H12        -0.0252   -0.0281   -0.0102 H         1 <0>         0.1250
     37 H13         2.0748    1.2062    0.0087 H         1 <0>         0.1277
     38 H14        -1.0795    5.7613    0.0820 H         1 <0>         0.1208
     39 H15         1.0202    6.9954    0.1016 H         1 <0>         0.1221
     40 H16         3.1757    5.8151    0.0813 H         1 <0>         0.1235
     41 H17         3.2665    3.3815    0.0427 H         1 <0>         0.1276
@<TRIPOS>BOND
     1    1    2 1
     2    1   25 1
     3    1   26 1
     4    1   27 1
     5    2    3 1
     6    3    4 2
     7    3    5 1
     8    5   10 ar
     9    5    6 ar
    10    6    7 ar
    11    6   28 1
    12    7    8 ar
    13    7   29 1
    14    8    9 ar
    15    8   30 1
    16    9   10 ar
    17    9   31 1
    18   10   11 1
    19   11   12 am
    20   11   32 1
    21   12   13 2
    22   12   14 1
    23   14   15 1
    24   14   33 1
    25   14   34 1
    26   15   20 ar
    27   15   16 ar
    28   16   17 ar
    29   16   35 1
    30   17   18 ar
    31   17   36 1
    32   18   19 ar
    33   18   37 1
    34   19   24 ar
    35   19   20 ar
    36   20   21 ar
    37   21   22 ar
    38   21   38 1
    39   22   23 ar
    40   22   39 1
    41   23   24 ar
    42   23   40 1
    43   24   41 1
@<TRIPOS>MOLECULE
ZINC00475678
   36    37     0     0     0
SMALL
USER_CHARGES

@<TRIPOS>ATOM
      1 C1          0.0469    1.7094   -0.2119 C.3       1 <0>         0.0264
      2 O1          0.0515    0.2817   -0.1510 O.3       1 <0>        -0.3174
      3 C2          0.6457   -0.3778   -1.1799 C.ar      1 <0>         0.1315
      4 C3          1.2178    0.3346   -2.2239 C.ar      1 <0>        -0.2064
      5 C4          1.8217   -0.3382   -3.2684 C.ar      1 <0>        -0.0619
      6 C5          1.8559   -1.7204   -3.2742 C.ar      1 <0>        -0.1125
      7 C6          1.2860   -2.4328   -2.2351 C.ar      1 <0>        -0.0626
      8 C7          0.6864   -1.7645   -1.1852 C.ar      1 <0>        -0.1498
      9 C8          2.5149   -2.4518   -4.4152 C.3       1 <0>        -0.0937
     10 C9          3.9723   -2.6679   -4.0984 C.2       1 <0>         0.5156
     11 O2          4.4307   -2.2675   -3.0494 O.2       1 <0>        -0.4969
     12 N1          4.7662   -3.3062   -4.9808 N.am      1 <0>        -0.6472
     13 C10         6.1357   -3.4123   -4.7372 C.2       1 <0>         0.2417
     14 C11         6.7043   -3.0250   -3.5400 C.2       1 <0>        -0.2317
     15 C12         8.0411   -3.1565   -3.3735 C.2       1 <0>        -0.1879
     16 S1          8.5814   -3.8073   -4.8246 S.3       1 <0>         0.2618
     17 C13         7.0241   -3.9225   -5.6844 C.2       1 <0>        -0.3355
     18 C14         6.7585   -4.4037   -6.9880 C.2       1 <0>         0.5645
     19 O3          5.6191   -4.4053   -7.4156 O.2       1 <0>        -0.5202
     20 O4          7.7688   -4.8610   -7.7574 O.3       1 <0>        -0.3486
     21 C15         7.4282   -5.3318   -9.0629 C.3       1 <0>         0.0362
     22 H1          1.0733    2.0752   -0.2404 H         1 <0>         0.0563
     23 H2         -0.4792    2.0330   -1.1100 H         1 <0>         0.0562
     24 H3         -0.4570    2.1091    0.6682 H         1 <0>         0.1014
     25 H4          1.1907    1.4142   -2.2201 H         1 <0>         0.1292
     26 H5          2.2672    0.2159   -4.0813 H         1 <0>         0.1235
     27 H6          1.3137   -3.5124   -2.2421 H         1 <0>         0.1285
     28 H7          0.2453   -2.3213   -0.3717 H         1 <0>         0.1323
     29 H8          2.0273   -3.4161   -4.5585 H         1 <0>         0.1109
     30 H9          2.4249   -1.8602   -5.3262 H         1 <0>         0.1106
     31 H10         4.3854   -3.6919   -5.7853 H         1 <0>         0.4282
     32 H11         6.0909   -2.6223   -2.7476 H         1 <0>         0.1912
     33 H12         8.6281   -2.9003   -2.5040 H         1 <0>         0.1969
     34 H13         6.7260   -6.1612   -8.9783 H         1 <0>         0.0626
     35 H14         6.9691   -4.5237   -9.6323 H         1 <0>         0.0625
     36 H15         8.3297   -5.6698   -9.5739 H         1 <0>         0.1049
@<TRIPOS>BOND
     1    1    2 1
     2    1   22 1
     3    1   23 1
     4    1   24 1
     5    2    3 1
     6    3    8 ar
     7    3    4 ar
     8    4    5 ar
     9    4   25 1
    10    5    6 ar
    11    5   26 1
    12    6    7 ar
    13    6    9 1
    14    7    8 ar
    15    7   27 1
    16    8   28 1
    17    9   10 1
    18    9   29 1
    19    9   30 1
    20   10   11 2
    21   10   12 am
    22   12   13 1
    23   12   31 1
    24   13   17 2
    25   13   14 1
    26   14   15 2
    27   14   32 1
    28   15   16 1
    29   15   33 1
    30   16   17 1
    31   17   18 1
    32   18   19 2
    33   18   20 1
    34   20   21 1
    35   21   34 1
    36   21   35 1
    37   21   36 1
@<TRIPOS>MOLECULE
ZINC16470547
   35    36     0     0     0
SMALL
USER_CHARGES
methyl 3-[[2-[4-(trifluoromethyl)phenyl]acetyl]amino]thiophene-2-carboxylate
@<TRIPOS>ATOM
      1 C1         -1.6935    9.8290    2.0537 C.3       1 <0>         0.0363
      2 O1         -1.0011    8.9847    2.9756 O.3       1 <0>        -0.3485
      3 C2         -0.3721    7.9053    2.4645 C.2       1 <0>         0.5608
      4 O2         -0.4114    7.6881    1.2677 O.2       1 <0>        -0.5113
      5 C3          0.3328    7.0264    3.3202 C.2       1 <0>        -0.3017
      6 C4          1.0420    5.8688    3.0004 C.2       1 <0>         0.2319
      7 C5          1.6354    5.1957    4.0476 C.2       1 <0>        -0.1913
      8 C6          1.5116    5.6868    5.3059 C.2       1 <0>        -0.1534
      9 S1          0.5468    7.1103    5.0892 S.3       1 <0>         0.2090
     10 N1          1.1413    5.4111    1.6864 N.am      1 <0>        -0.6537
     11 C7          1.1877    4.0877    1.4355 C.2       1 <0>         0.5180
     12 O3          1.2160    3.2969    2.3545 O.2       1 <0>        -0.5024
     13 C8          1.2043    3.5907    0.0129 C.3       1 <0>        -0.1047
     14 C9          1.2572    2.0846    0.0076 C.ar      1 <0>        -0.0397
     15 C10         0.0850    1.3519    0.0059 C.ar      1 <0>        -0.1039
     16 C11         0.1335   -0.0296    0.0006 C.ar      1 <0>        -0.0672
     17 C12         1.3542   -0.6784   -0.0035 C.ar      1 <0>        -0.1801
     18 C13         2.5264    0.0544   -0.0018 C.ar      1 <0>        -0.0676
     19 C14         2.4779    1.4359    0.0035 C.ar      1 <0>        -0.1047
     20 C15         1.4071   -2.1844   -0.0092 C.3       1 <0>         0.5080
     21 F1          1.4217   -2.6455   -1.3300 F         1 <0>        -0.1761
     22 F2          2.5659   -2.6128    0.6471 F         1 <0>        -0.1763
     23 F3          0.2828   -2.6930    0.6498 F         1 <0>        -0.1763
     24 H1         -0.9889   10.2207    1.3201 H         1 <0>         0.0632
     25 H2         -2.4663    9.2536    1.5440 H         1 <0>         0.0628
     26 H3         -2.1533   10.6566    2.5938 H         1 <0>         0.1055
     27 H4          2.1953    4.2899    3.8674 H         1 <0>         0.1619
     28 H5          1.9144    5.2848    6.2238 H         1 <0>         0.1998
     29 H6          1.1771    6.0453    0.9533 H         1 <0>         0.4248
     30 H7          2.0806    3.9868   -0.5002 H         1 <0>         0.1156
     31 H8          0.3017    3.9243   -0.4991 H         1 <0>         0.1168
     32 H9         -0.8687    1.8587    0.0041 H         1 <0>         0.1343
     33 H10        -0.7822   -0.6021   -0.0007 H         1 <0>         0.1379
     34 H11         3.4801   -0.4524   -0.0042 H         1 <0>         0.1379
     35 H12         3.3936    2.0084    0.0052 H         1 <0>         0.1345
@<TRIPOS>BOND
     1    1    2 1
     2    1   24 1
     3    1   25 1
     4    1   26 1
     5    2    3 1
     6    3    4 2
     7    3    5 1
     8    5    9 1
     9    5    6 2
    10    6    7 1
    11    6   10 1
    12    7    8 2
    13    7   27 1
    14    8    9 1
    15    8   28 1
    16   10   11 am
    17   10   29 1
    18   11   12 2
    19   11   13 1
    20   13   14 1
    21   13   30 1
    22   13   31 1
    23   14   19 ar
    24   14   15 ar
    25   15   16 ar
    26   15   32 1
    27   16   17 ar
    28   16   33 1
    29   17   18 ar
    30   17   20 1
    31   18   19 ar
    32   18   34 1
    33   19   35 1
    34   20   21 1
    35   20   22 1
    36   20   23 1
@<TRIPOS>MOLECULE
ZINC15606685
   38    40     0     0     0
SMALL
USER_CHARGES
methyl 3-[[2-(2-naphthyl)acetyl]amino]thiophene-2-carboxylate
@<TRIPOS>ATOM
      1 C1          9.2350   -0.3762   -2.3534 C.3       1 <0>         0.0362
      2 O1          8.0885   -0.4793   -3.2002 O.3       1 <0>        -0.3482
      3 C2          6.8840   -0.2673   -2.6293 C.2       1 <0>         0.5622
      4 O2          6.8107   -0.0019   -1.4437 O.2       1 <0>        -0.5150
      5 C3          5.7066   -0.3534   -3.4089 C.2       1 <0>        -0.3101
      6 C4          4.3795   -0.1725   -3.0201 C.2       1 <0>         0.2392
      7 C5          3.4208   -0.3132   -4.0013 C.2       1 <0>        -0.1991
      8 C6          3.8065   -0.6186   -5.2654 C.2       1 <0>        -0.1498
      9 S1          5.5323   -0.7246   -5.1451 S.3       1 <0>         0.2023
     10 N1          4.0390    0.1413   -1.7042 N.am      1 <0>        -0.6528
     11 C7          2.8825    0.7817   -1.4418 C.2       1 <0>         0.5155
     12 O3          2.1873    1.1763   -2.3539 O.2       1 <0>        -0.4984
     13 C8          2.4531    1.0076   -0.0150 C.3       1 <0>        -0.1010
     14 C9          1.1359    1.7395    0.0034 C.ar      1 <0>        -0.0678
     15 C10         1.1252    3.1331    0.0208 C.ar      1 <0>        -0.1008
     16 C11        -0.0468    3.8247    0.0372 C.ar      1 <0>        -0.1029
     17 C12        -1.2664    3.1262    0.0367 C.ar      1 <0>        -0.0493
     18 C13        -2.4965    3.8056    0.0539 C.ar      1 <0>        -0.1069
     19 C14        -3.6577    3.0959    0.0532 C.ar      1 <0>        -0.1157
     20 C15        -3.6470    1.7023    0.0352 C.ar      1 <0>        -0.1167
     21 C16        -2.4750    1.0108    0.0183 C.ar      1 <0>        -0.1056
     22 C17        -1.2555    1.7093    0.0130 C.ar      1 <0>        -0.0496
     23 C18        -0.0253    1.0298    0.0023 C.ar      1 <0>        -0.0887
     24 H1         10.1357   -0.5690   -2.9363 H         1 <0>         0.1052
     25 H2          9.2844    0.6266   -1.9293 H         1 <0>         0.0627
     26 H3          9.1594   -1.1077   -1.5488 H         1 <0>         0.0630
     27 H4          2.3749   -0.1821   -3.7660 H         1 <0>         0.1660
     28 H5          3.1866   -0.7616   -6.1381 H         1 <0>         0.1995
     29 H6          4.6345   -0.1014   -0.9780 H         1 <0>         0.4261
     30 H7          3.2066    1.6025    0.5013 H         1 <0>         0.1120
     31 H8          2.3419    0.0467    0.4874 H         1 <0>         0.1117
     32 H9          2.0610    3.6723    0.0209 H         1 <0>         0.1220
     33 H10        -0.0397    4.9046    0.0502 H         1 <0>         0.1286
     34 H11        -2.5202    4.8853    0.0672 H         1 <0>         0.1272
     35 H12        -4.6017    3.6204    0.0664 H         1 <0>         0.1235
     36 H13        -4.5828    1.1632    0.0343 H         1 <0>         0.1235
     37 H14        -2.4821   -0.0691    0.0044 H         1 <0>         0.1265
     38 H15        -0.0016   -0.0498   -0.0112 H         1 <0>         0.1255
@<TRIPOS>BOND
     1    1    2 1
     2    1   24 1
     3    1   25 1
     4    1   26 1
     5    2    3 1
     6    3    4 2
     7    3    5 1
     8    5    9 1
     9    5    6 2
    10    6    7 1
    11    6   10 1
    12    7    8 2
    13    7   27 1
    14    8    9 1
    15    8   28 1
    16   10   11 am
    17   10   29 1
    18   11   12 2
    19   11   13 1
    20   13   14 1
    21   13   30 1
    22   13   31 1
    23   14   23 ar
    24   14   15 ar
    25   15   16 ar
    26   15   32 1
    27   16   17 ar
    28   16   33 1
    29   17   22 ar
    30   17   18 ar
    31   18   19 ar
    32   18   34 1
    33   19   20 ar
    34   19   35 1
    35   20   21 ar
    36   20   36 1
    37   21   22 ar
    38   21   37 1
    39   22   23 ar
    40   23   38 1
@<TRIPOS>MOLECULE
ZINC13000352
   38    40     0     0     0
SMALL
USER_CHARGES
methyl 3-[[2-(1-naphthyl)acetyl]amino]thiophene-2-carboxylate
@<TRIPOS>ATOM
      1 C1          3.5489   -1.7514    2.7698 C.3       1 <0>         0.0364
      2 O1          3.5653   -0.5573    1.9851 O.3       1 <0>        -0.3487
      3 C2          2.3995   -0.1798    1.4192 C.2       1 <0>         0.5607
      4 O2          1.3964   -0.8479    1.5886 O.2       1 <0>        -0.5111
      5 C3          2.3436    0.9925    0.6293 C.2       1 <0>        -0.3025
      6 C4          1.2537    1.5527   -0.0367 C.2       1 <0>         0.2340
      7 C5          1.4862    2.7182   -0.7361 C.2       1 <0>        -0.1910
      8 C6          2.7354    3.2468   -0.7463 C.2       1 <0>        -0.1534
      9 S1          3.6492    2.1384    0.2235 S.3       1 <0>         0.2058
     10 N1         -0.0111    0.9658    0.0074 N.am      1 <0>        -0.6553
     11 C7         -1.1141    1.7401   -0.0075 C.2       1 <0>         0.5166
     12 O3         -1.0094    2.9426   -0.1265 O.2       1 <0>        -0.4987
     13 C8         -2.4776    1.1118    0.1237 C.3       1 <0>        -0.1012
     14 C9         -3.5326    2.1869    0.0779 C.ar      1 <0>        -0.0613
     15 C10        -4.0232    2.7137    1.2333 C.ar      1 <0>        -0.0981
     16 C11        -4.9987    3.7083    1.2108 C.ar      1 <0>        -0.1148
     17 C12        -5.4893    4.1824    0.0328 C.ar      1 <0>        -0.1011
     18 C13        -5.0070    3.6631   -1.1804 C.ar      1 <0>        -0.0520
     19 C14        -4.0109    2.6548   -1.1576 C.ar      1 <0>        -0.0320
     20 C15        -3.5315    2.1325   -2.3711 C.ar      1 <0>        -0.1104
     21 C16        -4.0226    2.6059   -3.5487 C.ar      1 <0>        -0.1116
     22 C17        -4.9989    3.6003   -3.5712 C.ar      1 <0>        -0.1184
     23 C18        -5.4895    4.1270   -2.4162 C.ar      1 <0>        -0.1027
     24 H1          3.2401   -2.5911    2.1472 H         1 <0>         0.0629
     25 H2          4.5469   -1.9401    3.1653 H         1 <0>         0.1052
     26 H3          2.8471   -1.6339    3.5955 H         1 <0>         0.0626
     27 H4          0.6831    3.2044   -1.2700 H         1 <0>         0.1616
     28 H5          3.0787    4.1434   -1.2409 H         1 <0>         0.1994
     29 H6         -0.0967    0.0003    0.0446 H         1 <0>         0.4240
     30 H7         -2.6358    0.4123   -0.6971 H         1 <0>         0.1110
     31 H8         -2.5425    0.5792    1.0725 H         1 <0>         0.1136
     32 H9         -3.6509    2.3552    2.1816 H         1 <0>         0.1225
     33 H10        -5.3710    4.1094    2.1419 H         1 <0>         0.1254
     34 H11        -6.2452    4.9538    0.0308 H         1 <0>         0.1281
     35 H12        -2.7745    1.3622   -2.3691 H         1 <0>         0.1203
     36 H13        -3.6500    2.2052   -4.4798 H         1 <0>         0.1226
     37 H14        -5.3715    3.9586   -4.5195 H         1 <0>         0.1237
     38 H15        -6.2454    4.8977   -2.4491 H         1 <0>         0.1278
@<TRIPOS>BOND
     1    1    2 1
     2    1   24 1
     3    1   25 1
     4    1   26 1
     5    2    3 1
     6    3    4 2
     7    3    5 1
     8    5    9 1
     9    5    6 2
    10    6    7 1
    11    6   10 1
    12    7    8 2
    13    7   27 1
    14    8    9 1
    15    8   28 1
    16   10   11 am
    17   10   29 1
    18   11   12 2
    19   11   13 1
    20   13   14 1
    21   13   30 1
    22   13   31 1
    23   14   19 ar
    24   14   15 ar
    25   15   16 ar
    26   15   32 1
    27   16   17 ar
    28   16   33 1
    29   17   18 ar
    30   17   34 1
    31   18   23 ar
    32   18   19 ar
    33   19   20 ar
    34   20   21 ar
    35   20   35 1
    36   21   22 ar
    37   21   36 1
    38   22   23 ar
    39   22   37 1
    40   23   38 1
@<TRIPOS>MOLECULE
ZINC00082427
   29    30     0     0     0
SMALL
USER_CHARGES
methyl 3-[2-(2-thienyl)acetyl]aminothiophene-2-carboxylate
@<TRIPOS>ATOM
      1 C1         -0.2231    6.1371    2.1698 C.3       1 <0>         0.0362
      2 O1         -1.1727    5.2409    1.5893 O.3       1 <0>        -0.3481
      3 C2         -0.7021    4.0610    1.1327 C.2       1 <0>         0.5622
      4 O2          0.4833    3.8016    1.2257 O.2       1 <0>        -0.5146
      5 C3         -1.5869    3.1260    0.5460 C.2       1 <0>        -0.3090
      6 C4         -1.3099    1.8652    0.0177 C.2       1 <0>         0.2386
      7 C5         -2.3785    1.1572   -0.4908 C.2       1 <0>        -0.1990
      8 C6         -3.6163    1.7111   -0.4576 C.2       1 <0>        -0.1499
      9 S1         -3.3475    3.2526    0.2877 S.3       1 <0>         0.2045
     10 N1         -0.0162    1.3436    0.0094 N.am      1 <0>        -0.6514
     11 C7          0.1723    0.0095   -0.0262 C.2       1 <0>         0.5150
     12 O3         -0.7781   -0.7396    0.0552 O.2       1 <0>        -0.4956
     13 C8          1.5639   -0.5514   -0.1672 C.3       1 <0>        -0.0529
     14 C9          1.4997   -2.0569   -0.1809 C.2       1 <0>        -0.1393
     15 C10         1.3571   -2.8957   -1.2361 C.2       1 <0>        -0.1390
     16 C11         1.3272   -4.2590   -1.0095 C.2       1 <0>        -0.1582
     17 C12         1.4305   -4.7163    0.2623 C.2       1 <0>        -0.1686
     18 S2          1.5837   -3.1983    1.1893 S.3       1 <0>         0.0513
     19 H1          0.5361    6.3911    1.4301 H         1 <0>         0.0630
     20 H2         -0.7317    7.0447    2.4948 H         1 <0>         0.1053
     21 H3          0.2506    5.6592    3.0272 H         1 <0>         0.0628
     22 H4         -2.2315    0.1732   -0.9110 H         1 <0>         0.1659
     23 H5         -4.5467    1.2920   -0.8113 H         1 <0>         0.1997
     24 H6          0.7478    1.9410    0.0253 H         1 <0>         0.4266
     25 H7          2.0053   -0.1981   -1.0991 H         1 <0>         0.1242
     26 H8          2.1754   -0.2214    0.6725 H         1 <0>         0.1170
     27 H9          1.2711   -2.5048   -2.2392 H         1 <0>         0.1317
     28 H10         1.2184   -4.9492   -1.8330 H         1 <0>         0.1349
     29 H11         1.4220   -5.7347    0.6216 H         1 <0>         0.1867
@<TRIPOS>BOND
     1    1    2 1
     2    1   19 1
     3    1   20 1
     4    1   21 1
     5    2    3 1
     6    3    4 2
     7    3    5 1
     8    5    9 1
     9    5    6 2
    10    6    7 1
    11    6   10 1
    12    7    8 2
    13    7   22 1
    14    8    9 1
    15    8   23 1
    16   10   11 am
    17   10   24 1
    18   11   12 2
    19   11   13 1
    20   13   14 1
    21   13   25 1
    22   13   26 1
    23   14   18 1
    24   14   15 2
    25   15   16 1
    26   15   27 1
    27   16   17 2
    28   16   28 1
    29   17   18 1
    30   17   29 1
@<TRIPOS>MOLECULE
ZINC06126201
   32    33     0     0     0
SMALL
USER_CHARGES
methyl 3-(2-phenylacetyl)aminothiophene-2-carboxylate
@<TRIPOS>ATOM
      1 C1          2.5220   -3.2221    2.3500 C.3       1 <0>         0.0362
      2 O1          1.7553   -2.2043    1.7033 O.3       1 <0>        -0.3482
      3 C2          2.4341   -1.1495    1.2047 C.2       1 <0>         0.5623
      4 O2          3.6448   -1.0969    1.3167 O.2       1 <0>        -0.5150
      5 C3          1.7381   -0.1051    0.5517 C.2       1 <0>        -0.3105
      6 C4          2.2418    1.0594   -0.0274 C.2       1 <0>         0.2393
      7 C5          1.3243    1.9134   -0.6024 C.2       1 <0>        -0.1992
      8 C6          0.0081    1.5863   -0.5769 C.2       1 <0>        -0.1498
      9 S1         -0.0125    0.0654    0.2540 S.3       1 <0>         0.2024
     10 N1          3.6070    1.3460   -0.0256 N.am      1 <0>        -0.6530
     11 C7          4.0278    2.6226   -0.1245 C.2       1 <0>         0.5158
     12 O3          3.2223    3.5292   -0.1117 O.2       1 <0>        -0.4991
     13 C8          5.4990    2.9234   -0.2509 C.3       1 <0>        -0.0996
     14 C9          5.7007    4.4139   -0.3446 C.ar      1 <0>        -0.0739
     15 C10         5.7092    5.0340   -1.5801 C.ar      1 <0>        -0.1045
     16 C11         5.8889    6.4019   -1.6657 C.ar      1 <0>        -0.1185
     17 C12         6.0711    7.1483   -0.5165 C.ar      1 <0>        -0.1164
     18 C13         6.0682    6.5275    0.7186 C.ar      1 <0>        -0.1182
     19 C14         5.8828    5.1604    0.8045 C.ar      1 <0>        -0.1037
     20 H1          3.2378   -3.6421    1.6432 H         1 <0>         0.0629
     21 H2          3.0571   -2.7915    3.1964 H         1 <0>         0.0627
     22 H3          1.8560   -4.0092    2.7035 H         1 <0>         0.1052
     23 H4          1.6499    2.8319   -1.0680 H         1 <0>         0.1660
     24 H5         -0.8268    2.1391   -0.9816 H         1 <0>         0.1996
     25 H6          4.2536    0.6265    0.0468 H         1 <0>         0.4261
     26 H7          6.0247    2.5399    0.6235 H         1 <0>         0.1108
     27 H8          5.8915    2.4465   -1.1490 H         1 <0>         0.1111
     28 H9          5.5714    4.4502   -2.4782 H         1 <0>         0.1201
     29 H10         5.8908    6.8870   -2.6306 H         1 <0>         0.1232
     30 H11         6.2152    8.2166   -0.5836 H         1 <0>         0.1226
     31 H12         6.2105    7.1107    1.6164 H         1 <0>         0.1233
     32 H13         5.8806    4.6753    1.7695 H         1 <0>         0.1202
@<TRIPOS>BOND
     1    1    2 1
     2    1   20 1
     3    1   21 1
     4    1   22 1
     5    2    3 1
     6    3    4 2
     7    3    5 1
     8    5    9 1
     9    5    6 2
    10    6    7 1
    11    6   10 1
    12    7    8 2
    13    7   23 1
    14    8    9 1
    15    8   24 1
    16   10   11 am
    17   10   25 1
    18   11   12 2
    19   11   13 1
    20   13   14 1
    21   13   26 1
    22   13   27 1
    23   14   19 ar
    24   14   15 ar
    25   15   16 ar
    26   15   28 1
    27   16   17 ar
    28   16   29 1
    29   17   18 ar
    30   17   30 1
    31   18   19 ar
    32   18   31 1
    33   19   32 1
@<TRIPOS>MOLECULE
ZINC36816706
   31    32     0     0     0
SMALL
USER_CHARGES

@<TRIPOS>ATOM
      1 C1         -0.2250    1.4164    0.1350 C.3       1 <0>         0.0361
      2 O1         -0.1507   -0.0101    0.0940 O.3       1 <0>        -0.3482
      3 C2          0.5128   -0.6183    1.0998 C.2       1 <0>         0.5645
      4 O2          1.0144    0.0463    1.9874 O.2       1 <0>        -0.5202
      5 C3          0.6251   -2.0284    1.1223 C.2       1 <0>        -0.3340
      6 C4          1.2552   -2.8457    2.0612 C.2       1 <0>         0.2394
      7 C5          1.1929   -4.2008    1.8038 C.2       1 <0>        -0.2316
      8 C6          0.5464   -4.6307    0.6950 C.2       1 <0>        -0.1881
      9 S1         -0.0082   -3.2248   -0.0375 S.3       1 <0>         0.2672
     10 N1          1.9041   -2.3292    3.1829 N.am      1 <0>        -0.6452
     11 C7          2.3591   -3.1610    4.1409 C.2       1 <0>         0.5191
     12 O3          2.2881   -4.3617    3.9851 O.2       1 <0>        -0.4979
     13 C8          2.9559   -2.5992    5.4054 C.3       1 <0>        -0.1023
     14 C9          3.3838   -3.7303    6.3047 C.ar      1 <0>        -0.0292
     15 C10         2.5067   -4.2692    7.2335 C.ar      1 <0>        -0.1576
     16 C11         2.9345   -5.3058    8.0412 C.ar      1 <0>         0.1018
     17 N2          4.1600   -5.7814    7.9360 N.ar      1 <0>        -0.4831
     18 C12         5.0207   -5.2934    7.0642 C.ar      1 <0>         0.1017
     19 C13         4.6620   -4.2605    6.2189 C.ar      1 <0>        -0.1578
     20 H1          0.7819    1.8333    0.1159 H         1 <0>         0.0628
     21 H2         -0.7836    1.7761   -0.7291 H         1 <0>         0.1054
     22 H3         -0.7299    1.7278    1.0494 H         1 <0>         0.0628
     23 H4          1.6539   -4.9079    2.4775 H         1 <0>         0.1905
     24 H5          0.4129   -5.6486    0.3596 H         1 <0>         0.1975
     25 H6          2.0279   -1.3714    3.2735 H         1 <0>         0.4289
     26 H7          3.8215   -1.9851    5.1570 H         1 <0>         0.1167
     27 H8          2.2125   -1.9887    5.9181 H         1 <0>         0.1173
     28 H9          1.5021   -3.8835    7.3249 H         1 <0>         0.1340
     29 H10         2.2574   -5.7312    8.7672 H         1 <0>         0.1576
     30 H11         6.0161   -5.7086    7.0072 H         1 <0>         0.1576
     31 H12         5.3698   -3.8684    5.5036 H         1 <0>         0.1342
@<TRIPOS>BOND
     1    1    2 1
     2    1   20 1
     3    1   21 1
     4    1   22 1
     5    2    3 1
     6    3    4 2
     7    3    5 1
     8    5    9 1
     9    5    6 2
    10    6    7 1
    11    6   10 1
    12    7    8 2
    13    7   23 1
    14    8    9 1
    15    8   24 1
    16   10   11 am
    17   10   25 1
    18   11   12 2
    19   11   13 1
    20   13   14 1
    21   13   26 1
    22   13   27 1
    23   14   19 ar
    24   14   15 ar
    25   15   16 ar
    26   15   28 1
    27   16   17 ar
    28   16   29 1
    29   17   18 ar
    30   18   19 ar
    31   18   30 1
    32   19   31 1
@<TRIPOS>MOLECULE
ZINC00624282
   44    46     0     0     0
SMALL
USER_CHARGES

@<TRIPOS>ATOM
      1 C1         -0.0502    1.4969    0.0074 C.3       1 <0>        -0.1885
      2 C2         -0.0171   -0.0327    0.0002 C.3       1 <0>        -0.0108
      3 N1          0.6973   -0.5126    1.1907 N.4       1 <0>        -0.3802
      4 C3         -0.0536   -0.1358    2.3950 C.3       1 <0>        -0.0291
      5 C4          0.7460   -0.5344    3.6398 C.3       1 <0>         0.1219
      6 N2          1.0679   -1.9669    3.5484 N.pl3     1 <0>        -0.6713
      7 C5          1.6763   -2.4627    2.3041 C.3       1 <0>         0.1162
      8 C6          0.8327   -1.9731    1.1223 C.3       1 <0>        -0.0238
      9 C7          0.8033   -2.8336    4.6154 C.ar      1 <0>         0.1303
     10 C8          1.7671   -3.0441    5.6012 C.ar      1 <0>         0.1602
     11 C9          1.4985   -3.9036    6.6558 C.ar      1 <0>        -0.1087
     12 C10         0.2782   -4.5496    6.7281 C.ar      1 <0>        -0.0735
     13 C11        -0.6779   -4.3416    5.7514 C.ar      1 <0>        -0.1134
     14 C12        -0.4210   -3.4815    4.6985 C.ar      1 <0>        -0.0189
     15 Cl1        -1.6273   -3.2184    3.4781 Cl        1 <0>        -0.0640
     16 N3          3.0032   -2.3896    5.5260 N.am      1 <0>        -0.6584
     17 C13         3.6267   -1.9954    6.6539 C.2       1 <0>         0.6102
     18 O1          3.1567   -2.2794    7.7403 O.2       1 <0>        -0.4827
     19 C14         4.8705   -1.2249    6.5726 C.2       1 <0>        -0.0734
     20 C15         5.6034   -0.7697    7.6318 C.2       1 <0>        -0.0957
     21 C16         6.7059   -0.0872    7.0965 C.2       1 <0>        -0.1611
     22 C17         6.5999   -0.1542    5.7492 C.2       1 <0>         0.0031
     23 O2          5.4955   -0.8457    5.4381 O.3       1 <0>        -0.1541
     24 Br1         7.8144    0.5977    4.5100 Br        1 <0>         0.0759
     25 H1          0.9694    1.8824   -0.0007 H         1 <0>         0.0809
     26 H2         -0.5802    1.8531   -0.8760 H         1 <0>         0.1068
     27 H3         -0.5631    1.8451    0.9039 H         1 <0>         0.0801
     28 H4         -1.0367   -0.4182    0.0083 H         1 <0>         0.1271
     29 H5          0.4958   -0.3808   -0.8963 H         1 <0>         0.1313
     30 H6         -0.2182    0.9417    2.3983 H         1 <0>         0.1395
     31 H7         -1.0144   -0.6505    2.4000 H         1 <0>         0.1303
     32 H8          1.6676    0.0460    3.6844 H         1 <0>         0.0802
     33 H9          0.1495   -0.3492    4.5331 H         1 <0>         0.1164
     34 H10         2.6918   -2.0771    2.2139 H         1 <0>         0.0810
     35 H11         1.6947   -3.5525    2.3144 H         1 <0>         0.1184
     36 H12        -0.1550   -2.4322    1.1659 H         1 <0>         0.1301
     37 H13         1.3212   -2.2495    0.1879 H         1 <0>         0.1387
     38 H14         2.2428   -4.0687    7.4207 H         1 <0>         0.1532
     39 H15         0.0713   -5.2191    7.5500 H         1 <0>         0.1463
     40 H16        -1.6293   -4.8489    5.8125 H         1 <0>         0.1430
     41 H17         3.4105   -2.2201    4.6621 H         1 <0>         0.4149
     42 H18         5.3775   -0.9082    8.6788 H         1 <0>         0.1757
     43 H19         7.4912    0.4006    7.6548 H         1 <0>         0.1750
     44 H20         1.6139   -0.0923    1.2236 H         1 <0>         0.4212
@<TRIPOS>BOND
     1    1    2 1
     2    1   25 1
     3    1   26 1
     4    1   27 1
     5    2    3 1
     6    2   28 1
     7    2   29 1
     8    3    8 1
     9    3    4 1
    10    3   44 1
    11    4    5 1
    12    4   30 1
    13    4   31 1
    14    5    6 1
    15    5   32 1
    16    5   33 1
    17    6    7 1
    18    6    9 1
    19    7    8 1
    20    7   34 1
    21    7   35 1
    22    8   36 1
    23    8   37 1
    24    9   14 ar
    25    9   10 ar
    26   10   11 ar
    27   10   16 1
    28   11   12 ar
    29   11   38 1
    30   12   13 ar
    31   12   39 1
    32   13   14 ar
    33   13   40 1
    34   14   15 1
    35   16   17 am
    36   16   41 1
    37   17   18 2
    38   17   19 1
    39   19   23 1
    40   19   20 2
    41   20   21 1
    42   20   42 1
    43   21   22 2
    44   21   43 1
    45   22   23 1
    46   22   24 1
@<TRIPOS>MOLECULE
ZINC00624282
   43    45     0     0     0
SMALL
USER_CHARGES

@<TRIPOS>ATOM
      1 C1         -0.0484    1.4958    0.0075 C.3       1 <0>        -0.1492
      2 C2         -0.0153   -0.0338    0.0001 C.3       1 <0>         0.0513
      3 N1          0.6989   -0.5139    1.1907 N.3       1 <0>        -0.5339
      4 C3         -0.0372   -0.1790    2.4170 C.3       1 <0>         0.0370
      5 C4          0.8209   -0.5321    3.6365 C.3       1 <0>         0.1538
      6 N2          1.2354   -1.9388    3.5245 N.pl3     1 <0>        -0.6730
      7 C5          1.8576   -2.3831    2.2681 C.3       1 <0>         0.1485
      8 C6          0.9587   -1.9570    1.1024 C.3       1 <0>         0.0400
      9 C7          1.0432   -2.8312    4.5859 C.ar      1 <0>         0.1588
     10 C8          2.0324   -2.9871    5.5566 C.ar      1 <0>         0.1467
     11 C9          1.8356   -3.8723    6.6058 C.ar      1 <0>        -0.1117
     12 C10         0.6615   -4.5980    6.6875 C.ar      1 <0>        -0.0908
     13 C11        -0.3197   -4.4441    5.7258 C.ar      1 <0>        -0.1177
     14 C12        -0.1346   -3.5590    4.6786 C.ar      1 <0>        -0.0267
     15 Cl1        -1.3724   -3.3645    3.4771 Cl        1 <0>        -0.0576
     16 N3          3.2217   -2.2518    5.4718 N.am      1 <0>        -0.6503
     17 C13         3.8336   -1.8281    6.5954 C.2       1 <0>         0.6078
     18 O1          3.3983   -2.1527    7.6849 O.2       1 <0>        -0.4936
     19 C14         5.0227   -0.9766    6.5055 C.2       1 <0>        -0.0616
     20 C15         5.7388   -0.4842    7.5596 C.2       1 <0>        -0.1062
     21 C16         6.7864    0.2745    7.0168 C.2       1 <0>        -0.1648
     22 C17         6.6664    0.2134    5.6704 C.2       1 <0>         0.0029
     23 O2          5.6056   -0.5463    5.3668 O.3       1 <0>        -0.1470
     24 Br1         7.8114    1.0554    4.4231 Br        1 <0>         0.0700
     25 H1          0.9712    1.8813   -0.0004 H         1 <0>         0.0634
     26 H2         -0.5784    1.8520   -0.8759 H         1 <0>         0.0586
     27 H3         -0.5615    1.8438    0.9040 H         1 <0>         0.0540
     28 H4         -1.0349   -0.4193    0.0081 H         1 <0>         0.0304
     29 H5          0.4977   -0.3819   -0.8964 H         1 <0>         0.0738
     30 H6         -0.2616    0.8877    2.4267 H         1 <0>         0.0816
     31 H7         -0.9670   -0.7469    2.4497 H         1 <0>         0.0403
     32 H8          1.7024    0.1085    3.6617 H         1 <0>         0.0581
     33 H9          0.2379   -0.3935    4.5469 H         1 <0>         0.0700
     34 H10         2.8388   -1.9204    2.1618 H         1 <0>         0.0593
     35 H11         1.9600   -3.4682    2.2738 H         1 <0>         0.0723
     36 H12         0.0151   -2.5003    1.1535 H         1 <0>         0.0408
     37 H13         1.4566   -2.1800    0.1588 H         1 <0>         0.0788
     38 H14         2.5997   -3.9953    7.3590 H         1 <0>         0.1474
     39 H15         0.5106   -5.2874    7.5051 H         1 <0>         0.1386
     40 H16        -1.2347   -5.0136    5.7942 H         1 <0>         0.1358
     41 H17         3.6048   -2.0477    4.6044 H         1 <0>         0.4188
     42 H18         5.5371   -0.6472    8.6080 H         1 <0>         0.1733
     43 H19         7.5457    0.8077    7.5696 H         1 <0>         0.1719
@<TRIPOS>BOND
     1    1    2 1
     2    1   25 1
     3    1   26 1
     4    1   27 1
     5    2    3 1
     6    2   28 1
     7    2   29 1
     8    3    8 1
     9    3    4 1
    10    4    5 1
    11    4   30 1
    12    4   31 1
    13    5    6 1
    14    5   32 1
    15    5   33 1
    16    6    7 1
    17    6    9 1
    18    7    8 1
    19    7   34 1
    20    7   35 1
    21    8   36 1
    22    8   37 1
    23    9   14 ar
    24    9   10 ar
    25   10   11 ar
    26   10   16 1
    27   11   12 ar
    28   11   38 1
    29   12   13 ar
    30   12   39 1
    31   13   14 ar
    32   13   40 1
    33   14   15 1
    34   16   17 am
    35   16   41 1
    36   17   18 2
    37   17   19 1
    38   19   23 1
    39   19   20 2
    40   20   21 1
    41   20   42 1
    42   21   22 2
    43   21   43 1
    44   22   23 1
    45   22   24 1
@<TRIPOS>MOLECULE
ZINC01055496
   32    33     0     0     0
SMALL
USER_CHARGES

@<TRIPOS>ATOM
      1 C1         -0.0167    1.3781    0.0096 C.ar      1 <0>        -0.1012
      2 C2          1.1709    2.0855    0.0021 C.ar      1 <0>        -0.0513
      3 C3          2.3773    1.4107   -0.0130 C.ar      1 <0>        -0.0457
      4 C4          2.3961    0.0285   -0.0201 C.ar      1 <0>        -0.0513
      5 C5          1.2084   -0.6789   -0.0117 C.ar      1 <0>        -0.1013
      6 C6          0.0021   -0.0041    0.0020 C.ar      1 <0>        -0.0226
      7 C7         -1.2926   -0.7753    0.0102 C.3       1 <0>        -0.1034
      8 C8         -1.7377   -1.0247   -1.4078 C.2       1 <0>         0.5074
      9 O1         -1.0694   -0.6164   -2.3339 O.2       1 <0>        -0.4908
     10 N1         -2.8785   -1.7014   -1.6469 N.am      1 <0>        -0.6102
     11 C9         -3.2880   -1.9310   -2.9516 C.2       1 <0>         0.0803
     12 C10        -4.4255   -2.5971   -3.3838 C.2       1 <0>        -0.2706
     13 C11        -4.6132   -2.6949   -4.8132 C.2       1 <0>        -0.1028
     14 C12        -3.6577   -2.1252   -5.5707 C.2       1 <0>        -0.2517
     15 S1         -2.5252   -1.4604   -4.3700 S.3       1 <0>         0.2878
     16 C13        -5.3874   -3.1728   -2.4387 C.2       1 <0>         0.5916
     17 O2         -5.1981   -3.0724   -1.2407 O.2       1 <0>        -0.5662
     18 N2         -6.4814   -3.8130   -2.8968 N.am      1 <0>        -0.8479
     19 N3          3.6490    2.1682   -0.0221 N.pl3     1 <0>         0.0319
     20 O3          3.6326    3.3771   -0.0163 O.2       1 <0>        -0.1562
     21 O4          4.7040    1.5780   -0.0353 O.3       1 <0>        -0.1560
     22 H1         -0.9591    1.9053    0.0259 H         1 <0>         0.1474
     23 H2          1.1563    3.1654    0.0076 H         1 <0>         0.1560
     24 H3          3.3385   -0.4987   -0.0326 H         1 <0>         0.1560
     25 H4          1.2231   -1.7588   -0.0179 H         1 <0>         0.1474
     26 H5         -1.1445   -1.7285    0.5175 H         1 <0>         0.1236
     27 H6         -2.0553   -0.1993    0.5344 H         1 <0>         0.1236
     28 H7         -3.4130   -2.0280   -0.9062 H         1 <0>         0.4352
     29 H8         -5.4670   -3.1943   -5.2467 H         1 <0>         0.1432
     30 H9         -3.5955   -2.0790   -6.6479 H         1 <0>         0.1903
     31 H10        -6.6323   -3.8930   -3.8516 H         1 <0>         0.4023
     32 H11        -7.1178   -4.1938   -2.2716 H         1 <0>         0.4053
@<TRIPOS>BOND
     1    1    6 ar
     2    1    2 ar
     3    1   22 1
     4    2    3 ar
     5    2   23 1
     6    3    4 ar
     7    3   19 1
     8    4    5 ar
     9    4   24 1
    10    5    6 ar
    11    5   25 1
    12    6    7 1
    13    7    8 1
    14    7   26 1
    15    7   27 1
    16    8    9 2
    17    8   10 am
    18   10   11 1
    19   10   28 1
    20   11   15 1
    21   11   12 2
    22   12   13 1
    23   12   16 1
    24   13   14 2
    25   13   29 1
    26   14   15 1
    27   14   30 1
    28   16   17 2
    29   16   18 am
    30   18   31 1
    31   18   32 1
    32   19   20 2
    33   19   21 1
@<TRIPOS>MOLECULE
ZINC03814434
   62    69     0     0     0
SMALL
USER_CHARGES

@<TRIPOS>ATOM
      1 C1         -0.1295    1.5952   -0.2973 C.3       1 <0>        -0.1687
      2 C2         -0.0862    0.0696   -0.1900 C.3       1 <0>         0.3342
      3 C3          0.5692   -0.4501   -1.4637 C.3       1 <0>         0.0405
      4 H1          1.4796    0.1159   -1.6612 H         1 <0>         0.1372
      5 C4          0.9167   -1.9328   -1.2889 C.3       1 <0>        -0.0061
      6 H2          1.3963   -2.3075   -2.1932 H         1 <0>         0.1555
      7 C5          1.8785   -2.0596   -0.1021 C.3       1 <0>        -0.1827
      8 C6          1.2061   -1.5198    1.1541 C.3       1 <0>         0.2999
      9 H3          1.9797   -1.4243    1.9161 H         1 <0>         0.1550
     10 O1          0.6555   -0.2442    0.9666 O.3       1 <0>        -0.3234
     11 N1          0.2189   -2.4746    1.6600 N.pl3     1 <0>        -0.5366
     12 C7          0.4705   -3.5508    2.4739 C.ar      1 <0>         0.1469
     13 C8          1.6649   -4.0152    3.0240 C.ar      1 <0>        -0.1522
     14 C9          1.5948   -5.1456    3.8201 C.ar      1 <0>        -0.0582
     15 C10         0.4006   -5.7997    4.0696 C.ar      1 <0>        -0.1457
     16 C11        -0.7984   -5.3597    3.5358 C.ar      1 <0>        -0.0280
     17 C12        -0.7487   -4.2198    2.7307 C.ar      1 <0>        -0.1131
     18 C13        -1.7893   -3.4830    2.0197 C.ar      1 <0>         0.0276
     19 C14        -1.1442   -2.4197    1.3841 C.ar      1 <0>         0.0376
     20 C15        -1.8806   -1.5095    0.6175 C.ar      1 <0>         0.0894
     21 N2         -1.4718   -0.3951   -0.1095 N.pl3     1 <0>        -0.5183
     22 C16        -2.5611    0.1913   -0.7090 C.ar      1 <0>         0.1618
     23 C17        -2.6521    1.3277   -1.5118 C.ar      1 <0>        -0.1305
     24 C18        -3.9109    1.6745   -1.9733 C.ar      1 <0>        -0.0737
     25 C19        -5.0393    0.9368   -1.6616 C.ar      1 <0>        -0.1358
     26 C20        -4.9745   -0.1955   -0.8662 C.ar      1 <0>        -0.0503
     27 C21        -3.7147   -0.5596   -0.3919 C.ar      1 <0>        -0.1042
     28 C22        -3.2693   -1.6660    0.4845 C.ar      1 <0>        -0.0360
     29 C23        -3.9084   -2.7313    1.1102 C.ar      1 <0>        -0.0288
     30 C24        -3.1873   -3.6421    1.8754 C.ar      1 <0>        -0.1255
     31 C25        -4.1221   -4.6480    2.4030 C.2       1 <0>         0.5632
     32 O2         -3.8062   -5.5851    3.1110 O.2       1 <0>        -0.5106
     33 N3         -5.3744   -4.3851    1.9926 N.am      1 <0>        -0.7162
     34 C26        -5.3495   -3.1771    1.1601 C.3       1 <0>         0.1358
     35 N4         -0.3067   -2.7008   -1.0216 N.4       1 <0>        -0.5252
     36 C27         0.0145   -4.1336   -0.9773 C.3       1 <0>        -0.0497
     37 O3         -0.3340   -0.2979   -2.5607 O.3       1 <0>        -0.3614
     38 C28         0.3101   -0.0933   -3.8198 C.3       1 <0>         0.0162
     39 H4          0.8261    2.0094    0.0240 H         1 <0>         0.0984
     40 H5         -0.3202    1.8814   -1.3317 H         1 <0>         0.1036
     41 H6         -0.9255    1.9818    0.3392 H         1 <0>         0.0921
     42 H7          2.1370   -3.1081    0.0458 H         1 <0>         0.1233
     43 H8          2.7835   -1.4869   -0.3048 H         1 <0>         0.1455
     44 H9          2.6036   -3.5149    2.8368 H         1 <0>         0.1365
     45 H10         2.5026   -5.5304    4.2610 H         1 <0>         0.1359
     46 H11         0.4045   -6.6780    4.6980 H         1 <0>         0.1352
     47 H12        -1.7278   -5.8736    3.7323 H         1 <0>         0.1600
     48 H13        -1.7792    1.9122   -1.7624 H         1 <0>         0.1440
     49 H14        -4.0153    2.5500   -2.5970 H         1 <0>         0.1336
     50 H15        -5.9967    1.2527   -2.0488 H         1 <0>         0.1332
     51 H16        -5.8575   -0.7687   -0.6249 H         1 <0>         0.1415
     52 H17        -6.1628   -4.9065    2.2103 H         1 <0>         0.4348
     53 H18        -5.9671   -2.3994    1.6094 H         1 <0>         0.1115
     54 H19        -5.7060   -3.4063    0.1559 H         1 <0>         0.1103
     55 H20        -0.6958   -2.4158   -0.1353 H         1 <0>         0.4186
     56 H21         0.4349   -4.4415   -1.9347 H         1 <0>         0.1256
     57 H22         0.7403   -4.3189   -0.1854 H         1 <0>         0.1191
     58 H23        -0.8932   -4.7035   -0.7789 H         1 <0>         0.1256
     59 H24         0.9168    0.8112   -3.7748 H         1 <0>         0.0633
     60 H25         0.9482   -0.9479   -4.0446 H         1 <0>         0.0514
     61 H26        -0.4433    0.0130   -4.6003 H         1 <0>         0.1100
     62 H27        -0.9785   -2.5293   -1.7546 H         1 <0>         0.4274
@<TRIPOS>BOND
     1    1    2 1
     2    1   39 1
     3    1   40 1
     4    1   41 1
     5    2   10 1
     6    2   21 1
     7    2    3 1
     8    3    4 1
     9    3    5 1
    10    3   37 1
    11    5    6 1
    12    5    7 1
    13    5   35 1
    14    7    8 1
    15    7   42 1
    16    7   43 1
    17    8    9 1
    18    8   10 1
    19    8   11 1
    20   11   19 1
    21   11   12 1
    22   12   17 ar
    23   12   13 ar
    24   13   14 ar
    25   13   44 1
    26   14   15 ar
    27   14   45 1
    28   15   16 ar
    29   15   46 1
    30   16   17 ar
    31   16   47 1
    32   17   18 1
    33   18   30 ar
    34   18   19 ar
    35   19   20 ar
    36   20   28 ar
    37   20   21 1
    38   21   22 1
    39   22   27 ar
    40   22   23 ar
    41   23   24 ar
    42   23   48 1
    43   24   25 ar
    44   24   49 1
    45   25   26 ar
    46   25   50 1
    47   26   27 ar
    48   26   51 1
    49   27   28 1
    50   28   29 ar
    51   29   34 1
    52   29   30 ar
    53   30   31 1
    54   31   32 2
    55   31   33 am
    56   33   34 1
    57   33   52 1
    58   34   53 1
    59   34   54 1
    60   35   36 1
    61   35   55 1
    62   35   62 1
    63   36   56 1
    64   36   57 1
    65   36   58 1
    66   37   38 1
    67   38   59 1
    68   38   60 1
    69   38   61 1
@<TRIPOS>MOLECULE
ZINC04275766
   36    38     0     0     0
SMALL
USER_CHARGES
2-[2-(1-naphthyl)acetyl]aminothiophene-3-carboxamide
@<TRIPOS>ATOM
      1 C1          2.2865    5.2702    0.0076 C.ar      1 <0>        -0.1178
      2 C2          1.0643    5.9401    0.0230 C.ar      1 <0>        -0.1102
      3 C3         -0.1108    5.2538    0.0306 C.ar      1 <0>        -0.1113
      4 C4         -0.0954    3.8484    0.0237 C.ar      1 <0>        -0.0313
      5 C5          1.1475    3.1672    0.0081 C.ar      1 <0>        -0.0520
      6 C6          2.3404    3.9104    0.0001 C.ar      1 <0>        -0.1025
      7 C7          1.1629    1.7623    0.0004 C.ar      1 <0>        -0.0989
      8 C8         -0.0126    1.0758    0.0080 C.ar      1 <0>        -0.1157
      9 C9         -1.2344    1.7455    0.0174 C.ar      1 <0>        -0.0960
     10 C10        -1.2880    3.1056    0.0315 C.ar      1 <0>        -0.0643
     11 C11        -2.6196    3.8110    0.0475 C.3       1 <0>        -0.0969
     12 C12        -3.0190    4.1622   -1.3625 C.2       1 <0>         0.5052
     13 O1         -2.2937    3.8687   -2.2892 O.2       1 <0>        -0.4836
     14 N1         -4.1822    4.8026   -1.5938 N.am      1 <0>        -0.6134
     15 C13        -4.5496    5.1258   -2.8912 C.2       1 <0>         0.1220
     16 C14        -5.6998    5.7730   -3.3269 C.2       1 <0>        -0.2678
     17 C15        -5.8257    5.9861   -4.7490 C.2       1 <0>        -0.1061
     18 C16        -4.8276    5.5327   -5.5287 C.2       1 <0>        -0.2396
     19 S1         -3.6903    4.8141   -4.3618 S.3       1 <0>         0.2291
     20 C17        -6.7330    6.2207   -2.3878 C.2       1 <0>         0.5911
     21 O2         -6.5949    6.0283   -1.1940 O.2       1 <0>        -0.5651
     22 N2         -7.8357    6.8453   -2.8465 N.am      1 <0>        -0.8484
     23 H1          3.2046    5.8389    0.0011 H         1 <0>         0.1239
     24 H2          1.0496    7.0200    0.0286 H         1 <0>         0.1230
     25 H3         -1.0504    5.7863    0.0418 H         1 <0>         0.1202
     26 H4          3.2947    3.4051   -0.0122 H         1 <0>         0.1281
     27 H5          2.1024    1.2298   -0.0118 H         1 <0>         0.1284
     28 H6          0.0021   -0.0041    0.0020 H         1 <0>         0.1258
     29 H7         -2.1526    1.1769    0.0184 H         1 <0>         0.1231
     30 H8         -3.3725    3.1560    0.4859 H         1 <0>         0.1160
     31 H9         -2.5410    4.7222    0.6406 H         1 <0>         0.1144
     32 H10        -4.7622    5.0374   -0.8526 H         1 <0>         0.4343
     33 H11        -6.6865    6.4845   -5.1696 H         1 <0>         0.1398
     34 H12        -4.7374    5.5909   -6.6033 H         1 <0>         0.1896
     35 H13        -7.9458    6.9986   -3.7980 H         1 <0>         0.4019
     36 H14        -8.5192    7.1414   -2.2253 H         1 <0>         0.4049
@<TRIPOS>BOND
     1    1    6 ar
     2    1    2 ar
     3    1   23 1
     4    2    3 ar
     5    2   24 1
     6    3    4 ar
     7    3   25 1
     8    4   10 ar
     9    4    5 ar
    10    5    6 ar
    11    5    7 ar
    12    6   26 1
    13    7    8 ar
    14    7   27 1
    15    8    9 ar
    16    8   28 1
    17    9   10 ar
    18    9   29 1
    19   10   11 1
    20   11   12 1
    21   11   30 1
    22   11   31 1
    23   12   13 2
    24   12   14 am
    25   14   15 1
    26   14   32 1
    27   15   19 1
    28   15   16 2
    29   16   17 1
    30   16   20 1
    31   17   18 2
    32   17   33 1
    33   18   19 1
    34   18   34 1
    35   20   21 2
    36   20   22 am
    37   22   35 1
    38   22   36 1
@<TRIPOS>MOLECULE
ZINC04281516
   30    31     0     0     0
SMALL
USER_CHARGES
2-(2-phenylacetyl)aminothiophene-3-carboxamide
@<TRIPOS>ATOM
      1 C1         -0.3415   -7.1749   -0.0311 C.ar      1 <0>        -0.1152
      2 C2          0.1005   -6.6470   -1.2298 C.ar      1 <0>        -0.1182
      3 C3          1.0063   -5.6028   -1.2330 C.ar      1 <0>        -0.1029
      4 C4          1.4705   -5.0868   -0.0375 C.ar      1 <0>        -0.0761
      5 C5          1.0328   -5.6184    1.1611 C.ar      1 <0>        -0.1030
      6 C6          0.1226   -6.6589    1.1644 C.ar      1 <0>        -0.1182
      7 C7          2.4583   -3.9487   -0.0410 C.3       1 <0>        -0.0946
      8 C8          1.7147   -2.6380   -0.0275 C.2       1 <0>         0.5058
      9 O1          0.5019   -2.6290   -0.0163 O.2       1 <0>        -0.4874
     10 N1          2.3973   -1.4759   -0.0281 N.am      1 <0>        -0.6134
     11 C9          1.7130   -0.2699   -0.0157 C.2       1 <0>         0.1217
     12 C10         2.2342    1.0185   -0.0138 C.2       1 <0>        -0.2680
     13 C11         1.2827    2.1038    0.0011 C.2       1 <0>        -0.1061
     14 C12        -0.0221    1.7765    0.0118 C.2       1 <0>        -0.2396
     15 S1          0.0021   -0.0041    0.0020 S.3       1 <0>         0.2287
     16 C13         3.6799    1.2633   -0.0268 C.2       1 <0>         0.5910
     17 O2          4.4558    0.3257   -0.0396 O.2       1 <0>        -0.5651
     18 N2          4.1494    2.5266   -0.0244 N.am      1 <0>        -0.8484
     19 H1         -1.0497   -7.9903   -0.0286 H         1 <0>         0.1228
     20 H2         -0.2621   -7.0502   -2.1638 H         1 <0>         0.1236
     21 H3          1.3516   -5.1904   -2.1695 H         1 <0>         0.1206
     22 H4          1.3988   -5.2182    2.0951 H         1 <0>         0.1207
     23 H5         -0.2229   -7.0711    2.1009 H         1 <0>         0.1236
     24 H6          3.0762   -4.0067   -0.9370 H         1 <0>         0.1134
     25 H7          3.0927   -4.0155    0.8429 H         1 <0>         0.1134
     26 H8          3.3672   -1.4832   -0.0371 H         1 <0>         0.4345
     27 H9          1.6045    3.1347    0.0032 H         1 <0>         0.1399
     28 H10        -0.8781    2.4350    0.0197 H         1 <0>         0.1897
     29 H11         3.5311    3.2739   -0.0142 H         1 <0>         0.4020
     30 H12         5.1058    2.6886   -0.0330 H         1 <0>         0.4049
@<TRIPOS>BOND
     1    1    6 ar
     2    1    2 ar
     3    1   19 1
     4    2    3 ar
     5    2   20 1
     6    3    4 ar
     7    3   21 1
     8    4    5 ar
     9    4    7 1
    10    5    6 ar
    11    5   22 1
    12    6   23 1
    13    7    8 1
    14    7   24 1
    15    7   25 1
    16    8    9 2
    17    8   10 am
    18   10   11 1
    19   10   26 1
    20   11   15 1
    21   11   12 2
    22   12   13 1
    23   12   16 1
    24   13   14 2
    25   13   27 1
    26   14   15 1
    27   14   28 1
    28   16   17 2
    29   16   18 am
    30   18   29 1
    31   18   30 1
@<TRIPOS>MOLECULE
ZINC04281482
   27    28     0     0     0
SMALL
USER_CHARGES
2-benzamidothiophene-3-carboxamide
@<TRIPOS>ATOM
      1 C1         -4.8363   -0.5496    0.0215 C.ar      1 <0>        -0.0843
      2 C2         -4.8587    0.8339    0.0291 C.ar      1 <0>        -0.1274
      3 C3         -3.6771    1.5459    0.0279 C.ar      1 <0>        -0.0518
      4 C4         -2.4570    0.8675    0.0184 C.ar      1 <0>        -0.1411
      5 C5         -2.4417   -0.5284    0.0049 C.ar      1 <0>        -0.0816
      6 C6         -3.6305   -1.2282    0.0121 C.ar      1 <0>        -0.1250
      7 C7         -1.1873    1.6238    0.0165 C.2       1 <0>         0.5540
      8 O1         -1.2038    2.8392    0.0232 O.2       1 <0>        -0.4962
      9 N1         -0.0111    0.9658    0.0074 N.am      1 <0>        -0.6080
     10 C8          1.1792    1.6748   -0.0002 C.2       1 <0>         0.1208
     11 C9          2.4787    1.1808   -0.0096 C.2       1 <0>        -0.2664
     12 C10         3.5434    2.1553   -0.0206 C.2       1 <0>        -0.1059
     13 C11         3.1886    3.4528   -0.0096 C.2       1 <0>        -0.2380
     14 S1          1.4090    3.3910    0.0074 S.3       1 <0>         0.2311
     15 C12         2.7540   -0.2592   -0.0124 C.2       1 <0>         0.5913
     16 O2          1.8329   -1.0549   -0.0063 O.2       1 <0>        -0.5662
     17 N2          4.0269   -0.7019   -0.0216 N.am      1 <0>        -0.8476
     18 H1         -5.7642   -1.1022    0.0232 H         1 <0>         0.1318
     19 H2         -5.8032    1.3574    0.0365 H         1 <0>         0.1348
     20 H3         -3.6960    2.6257    0.0339 H         1 <0>         0.1402
     21 H4         -1.5012   -1.0592   -0.0066 H         1 <0>         0.1297
     22 H5         -3.6201   -2.3081    0.0058 H         1 <0>         0.1338
     23 H6          0.0021   -0.0041    0.0020 H         1 <0>         0.4335
     24 H7          4.5809    1.8555   -0.0321 H         1 <0>         0.1406
     25 H8          3.8289    4.3226   -0.0114 H         1 <0>         0.1906
     26 H9          4.7609   -0.0678   -0.0263 H         1 <0>         0.4022
     27 H10         4.2091   -1.6547   -0.0234 H         1 <0>         0.4051
@<TRIPOS>BOND
     1    1    6 ar
     2    1    2 ar
     3    1   18 1
     4    2    3 ar
     5    2   19 1
     6    3    4 ar
     7    3   20 1
     8    4    5 ar
     9    4    7 1
    10    5    6 ar
    11    5   21 1
    12    6   22 1
    13    7    8 2
    14    7    9 am
    15    9   10 1
    16    9   23 1
    17   10   14 1
    18   10   11 2
    19   11   12 1
    20   11   15 1
    21   12   13 2
    22   12   24 1
    23   13   14 1
    24   13   25 1
    25   15   16 2
    26   15   17 am
    27   17   26 1
    28   17   27 1
@<TRIPOS>MOLECULE
ZINC08736102
   27    28     0     0     0
SMALL
USER_CHARGES
2-[2-(2-thienyl)acetyl]aminothiophene-3-carboxamide
@<TRIPOS>ATOM
      1 C1         -0.6755   -2.2260   -0.4092 C.2       1 <0>        -0.1584
      2 C2         -0.9058   -0.8672   -0.5156 C.2       1 <0>        -0.1358
      3 C3          0.0021   -0.0041    0.0020 C.2       1 <0>        -0.1431
      4 S1          1.2245   -1.1156    0.6783 S.3       1 <0>         0.0525
      5 C4          0.4463   -2.6553    0.2190 C.2       1 <0>        -0.1668
      6 C5         -0.0184    1.5028    0.0103 C.3       1 <0>        -0.0475
      7 C6         -0.7237    1.9888    1.2502 C.2       1 <0>         0.5050
      8 O1         -1.1663    1.1902    2.0485 O.2       1 <0>        -0.4841
      9 N1         -0.8628    3.3109    1.4719 N.am      1 <0>        -0.6118
     10 C7         -1.5118    3.7581    2.6127 C.2       1 <0>         0.1207
     11 C8         -1.7464    5.0675    3.0154 C.2       1 <0>        -0.2660
     12 C9         -2.4567    5.2468    4.2592 C.2       1 <0>        -0.1064
     13 C10        -2.8204    4.1357    4.9245 C.2       1 <0>        -0.2384
     14 S2         -2.2198    2.8206    3.8848 S.3       1 <0>         0.2295
     15 C11        -1.2976    6.2106    2.2143 C.2       1 <0>         0.5911
     16 O2         -0.7037    6.0249    1.1683 O.2       1 <0>        -0.5649
     17 N2         -1.5429    7.4669    2.6361 N.am      1 <0>        -0.8482
     18 H1         -1.3810   -2.9351   -0.8165 H         1 <0>         0.1353
     19 H2         -1.7946   -0.4988   -1.0064 H         1 <0>         0.1323
     20 H3          0.7821   -3.6664    0.3960 H         1 <0>         0.1870
     21 H4          1.0042    1.8801    0.0026 H         1 <0>         0.1195
     22 H5         -0.5455    1.8639   -0.8728 H         1 <0>         0.1264
     23 H6         -0.5088    3.9496    0.8334 H         1 <0>         0.4350
     24 H7         -2.6828    6.2313    4.6414 H         1 <0>         0.1402
     25 H8         -3.3496    4.0595    5.8629 H         1 <0>         0.1899
     26 H9         -2.0162    7.6149    3.4698 H         1 <0>         0.4020
     27 H10        -1.2460    8.2231    2.1061 H         1 <0>         0.4051
@<TRIPOS>BOND
     1    1    5 2
     2    1    2 1
     3    1   18 1
     4    2    3 2
     5    2   19 1
     6    3    4 1
     7    3    6 1
     8    4    5 1
     9    5   20 1
    10    6    7 1
    11    6   21 1
    12    6   22 1
    13    7    8 2
    14    7    9 am
    15    9   10 1
    16    9   23 1
    17   10   14 1
    18   10   11 2
    19   11   12 1
    20   11   15 1
    21   12   13 2
    22   12   24 1
    23   13   14 1
    24   13   25 1
    25   15   16 2
    26   15   17 am
    27   17   26 1
    28   17   27 1
@<TRIPOS>MOLECULE
ZINC09521630
   33    35     0     0     0
SMALL
USER_CHARGES
2-(2-benzo[1,3]dioxol-5-ylacetyl)aminothiophene-3-carboxamide
@<TRIPOS>ATOM
      1 C1          1.0339   -5.6173    1.1618 C.ar      1 <0>        -0.0901
      2 C2          0.1236   -6.6581    1.1702 C.ar      1 <0>        -0.0977
      3 C3         -0.3442   -7.1795   -0.0246 C.ar      1 <0>         0.0373
      4 C4          0.0999   -6.6484   -1.2335 C.ar      1 <0>         0.0339
      5 C5          1.0071   -5.6018   -1.2342 C.ar      1 <0>        -0.0832
      6 C6          1.4705   -5.0868   -0.0375 C.ar      1 <0>        -0.0668
      7 C7          2.4583   -3.9487   -0.0410 C.3       1 <0>        -0.0897
      8 C8          1.7147   -2.6380   -0.0275 C.2       1 <0>         0.5050
      9 O1          0.5019   -2.6290   -0.0163 O.2       1 <0>        -0.4867
     10 N1          2.3973   -1.4759   -0.0281 N.am      1 <0>        -0.6125
     11 C9          1.7130   -0.2699   -0.0157 C.2       1 <0>         0.1209
     12 C10         2.2342    1.0185   -0.0138 C.2       1 <0>        -0.2670
     13 C11         1.2827    2.1038    0.0011 C.2       1 <0>        -0.1065
     14 C12        -0.0221    1.7765    0.0118 C.2       1 <0>        -0.2391
     15 S1          0.0021   -0.0041    0.0020 S.3       1 <0>         0.2297
     16 C13         3.6799    1.2633   -0.0268 C.2       1 <0>         0.5912
     17 O2          4.4558    0.3257   -0.0396 O.2       1 <0>        -0.5651
     18 N2          4.1494    2.5266   -0.0244 N.am      1 <0>        -0.8484
     19 O3         -0.5013   -7.3259   -2.2546 O.3       1 <0>        -0.3078
     20 C14        -1.0017   -8.5416   -1.6673 C.3       1 <0>         0.2129
     21 O4         -1.2235   -8.1896   -0.2888 O.3       1 <0>        -0.3081
     22 H1          1.4012   -5.2150    2.0944 H         1 <0>         0.1385
     23 H2         -0.2190   -7.0680    2.1089 H         1 <0>         0.1384
     24 H3          1.3531   -5.1881   -2.1699 H         1 <0>         0.1349
     25 H4          3.0762   -4.0067   -0.9370 H         1 <0>         0.1169
     26 H5          3.0927   -4.0155    0.8429 H         1 <0>         0.1190
     27 H6          3.3672   -1.4832   -0.0371 H         1 <0>         0.4348
     28 H7          1.6045    3.1347    0.0032 H         1 <0>         0.1398
     29 H8         -0.8781    2.4350    0.0197 H         1 <0>         0.1896
     30 H9          3.5311    3.2739   -0.0142 H         1 <0>         0.4020
     31 H10         5.1058    2.6886   -0.0330 H         1 <0>         0.4049
     32 H11        -0.2610   -9.3376   -1.7449 H         1 <0>         0.0858
     33 H12        -1.9362   -8.8421   -2.1410 H         1 <0>         0.1333
@<TRIPOS>BOND
     1    1    6 ar
     2    1    2 ar
     3    1   22 1
     4    2    3 ar
     5    2   23 1
     6    3   21 1
     7    3    4 ar
     8    4    5 ar
     9    4   19 1
    10    5    6 ar
    11    5   24 1
    12    6    7 1
    13    7    8 1
    14    7   25 1
    15    7   26 1
    16    8    9 2
    17    8   10 am
    18   10   11 1
    19   10   27 1
    20   11   15 1
    21   11   12 2
    22   12   13 1
    23   12   16 1
    24   13   14 2
    25   13   28 1
    26   14   15 1
    27   14   29 1
    28   16   17 2
    29   16   18 am
    30   18   30 1
    31   18   31 1
    32   19   20 1
    33   20   21 1
    34   20   32 1
    35   20   33 1
@<TRIPOS>MOLECULE
ZINC71318764
   33    35     0     0     0
SMALL
USER_CHARGES

@<TRIPOS>ATOM
      1 C1         -0.0164    1.3552    0.0095 C.ar      1 <0>        -0.1189
      2 C2          1.1573    2.0973    0.0023 C.ar      1 <0>        -0.0954
      3 C3          2.3741    1.4452   -0.0128 C.ar      1 <0>        -0.0759
      4 C4          2.4061    0.0671   -0.0204 C.ar      1 <0>        -0.1127
      5 C5          1.2281   -0.7107   -0.0134 C.ar      1 <0>        -0.0747
      6 C6          0.0021   -0.0041    0.0020 C.ar      1 <0>        -0.0768
      7 C7          1.4506   -2.1491   -0.0232 C.2       1 <0>        -0.0948
      8 C8          2.7062   -2.6192   -0.0376 C.2       1 <0>        -0.1374
      9 S1          3.7042   -1.1421   -0.0393 S.3       1 <0>         0.0404
     10 C9          0.2817   -3.1002   -0.0167 C.3       1 <0>        -0.0815
     11 C10        -0.2001   -3.3137   -1.4285 C.2       1 <0>         0.5048
     12 O1          0.3515   -2.7491   -2.3494 O.2       1 <0>        -0.4854
     13 N1         -1.2438   -4.1321   -1.6679 N.am      1 <0>        -0.6132
     14 C11        -1.6871   -4.3286   -2.9670 C.2       1 <0>         0.0857
     15 C12        -2.7397   -5.1227   -3.3979 C.2       1 <0>        -0.2759
     16 C13        -2.9895   -5.1481   -4.8210 C.2       1 <0>        -0.1018
     17 C14        -2.1680   -4.3938   -5.5743 C.2       1 <0>        -0.2559
     18 S2         -1.0781   -3.6547   -4.3776 S.3       1 <0>         0.2875
     19 C15        -3.5565   -5.8968   -2.4580 C.2       1 <0>         0.5917
     20 O2         -3.3181   -5.8527   -1.2653 O.2       1 <0>        -0.5661
     21 N2         -4.5712   -6.6572   -2.9147 N.am      1 <0>        -0.8487
     22 H1         -0.9657    1.8698    0.0259 H         1 <0>         0.1276
     23 H2          1.1186    3.1766    0.0080 H         1 <0>         0.1353
     24 H3          3.2942    2.0107   -0.0189 H         1 <0>         0.1324
     25 H4         -0.9293   -0.5508    0.0079 H         1 <0>         0.1191
     26 H5          3.0347   -3.6480   -0.0458 H         1 <0>         0.1899
     27 H6          0.5920   -4.0542    0.4096 H         1 <0>         0.1162
     28 H7         -0.5255   -2.6797    0.5830 H         1 <0>         0.1129
     29 H8         -1.6849   -4.5837   -0.9314 H         1 <0>         0.4339
     30 H9         -3.7857   -5.7360   -5.2532 H         1 <0>         0.1419
     31 H10        -2.1721   -4.2647   -6.6466 H         1 <0>         0.1891
     32 H11        -4.7612   -6.6923   -3.8653 H         1 <0>         0.4018
     33 H12        -5.1115   -7.1693   -2.2929 H         1 <0>         0.4046
@<TRIPOS>BOND
     1    1    6 ar
     2    1    2 ar
     3    1   22 1
     4    2    3 ar
     5    2   23 1
     6    3    4 ar
     7    3   24 1
     8    4    9 1
     9    4    5 ar
    10    5    6 ar
    11    5    7 1
    12    6   25 1
    13    7    8 2
    14    7   10 1
    15    8    9 1
    16    8   26 1
    17   10   11 1
    18   10   27 1
    19   10   28 1
    20   11   12 2
    21   11   13 am
    22   13   14 1
    23   13   29 1
    24   14   18 1
    25   14   15 2
    26   15   16 1
    27   15   19 1
    28   16   17 2
    29   16   30 1
    30   17   18 1
    31   17   31 1
    32   19   20 2
    33   19   21 am
    34   21   32 1
    35   21   33 1
@<TRIPOS>MOLECULE
ZINC01055334
   30    31     0     0     0
SMALL
USER_CHARGES
2-[2-(2-chlorophenyl)acetyl]aminothiophene-3-carboxamide
@<TRIPOS>ATOM
      1 C1         -0.0869   -2.0724   -1.2009 C.ar      1 <0>        -0.1128
      2 C2          0.0386   -2.7693   -0.0133 C.ar      1 <0>        -0.1019
      3 C3          0.1454   -2.0844    1.1821 C.ar      1 <0>        -0.1088
      4 C4          0.1272   -0.7008    1.1905 C.ar      1 <0>        -0.0182
      5 C5          0.0021   -0.0041    0.0020 C.ar      1 <0>        -0.0666
      6 C6         -0.1100   -0.6904   -1.1927 C.ar      1 <0>        -0.0924
      7 C7         -0.0184    1.5028    0.0103 C.3       1 <0>        -0.1006
      8 C8          1.3954    2.0244   -0.0004 C.2       1 <0>         0.5097
      9 O1          2.3278    1.2489   -0.0135 O.2       1 <0>        -0.4853
     10 N1          1.6237    3.3527    0.0046 N.am      1 <0>        -0.6121
     11 C9          2.9246    3.8326   -0.0053 C.2       1 <0>         0.1226
     12 C10         3.3576    5.1533   -0.0080 C.2       1 <0>        -0.2677
     13 C11         4.7849    5.3686   -0.0153 C.2       1 <0>        -0.1059
     14 C12         5.5706    4.2767   -0.0290 C.2       1 <0>        -0.2397
     15 S1          4.4033    2.9319   -0.0248 S.3       1 <0>         0.2294
     16 C13         2.4110    6.2730   -0.0001 C.2       1 <0>         0.5910
     17 O2          1.2132    6.0572    0.0091 O.2       1 <0>        -0.5648
     18 N2          2.8673    7.5412   -0.0031 N.am      1 <0>        -0.8484
     19 Cl1         0.2608    0.1603    2.6919 Cl        1 <0>        -0.0665
     20 H1         -0.1711   -2.6081   -2.1348 H         1 <0>         0.1317
     21 H2          0.0528   -3.8492   -0.0200 H         1 <0>         0.1339
     22 H3          0.2428   -2.6289    2.1097 H         1 <0>         0.1354
     23 H4         -0.2122   -0.1466   -2.1202 H         1 <0>         0.1321
     24 H5         -0.5455    1.8639   -0.8728 H         1 <0>         0.1182
     25 H6         -0.5286    1.8543    0.9071 H         1 <0>         0.1171
     26 H7          0.8780    3.9729    0.0150 H         1 <0>         0.4345
     27 H8          5.2042    6.3639   -0.0141 H         1 <0>         0.1399
     28 H9          6.6494    4.2276   -0.0397 H         1 <0>         0.1896
     29 H10         3.8219    7.7132   -0.0104 H         1 <0>         0.4019
     30 H11         2.2410    8.2820    0.0022 H         1 <0>         0.4049
@<TRIPOS>BOND
     1    1    6 ar
     2    1    2 ar
     3    1   20 1
     4    2    3 ar
     5    2   21 1
     6    3    4 ar
     7    3   22 1
     8    4    5 ar
     9    4   19 1
    10    5    6 ar
    11    5    7 1
    12    6   23 1
    13    7    8 1
    14    7   24 1
    15    7   25 1
    16    8    9 2
    17    8   10 am
    18   10   11 1
    19   10   26 1
    20   11   15 1
    21   11   12 2
    22   12   13 1
    23   12   16 1
    24   13   14 2
    25   13   27 1
    26   14   15 1
    27   14   28 1
    28   16   17 2
    29   16   18 am
    30   18   29 1
    31   18   30 1
@<TRIPOS>MOLECULE
ZINC05268440
   30    31     0     0     0
SMALL
USER_CHARGES
2-[2-(4-fluorophenyl)acetyl]aminothiophene-3-carboxamide
@<TRIPOS>ATOM
      1 C1         -0.3594    2.7790    1.8183 C.ar      1 <0>        -0.0728
      2 C2         -1.0088    3.2279    2.9525 C.ar      1 <0>        -0.1515
      3 C3         -2.0119    2.4633    3.5237 C.ar      1 <0>         0.1036
      4 C4         -2.3667    1.2519    2.9546 C.ar      1 <0>        -0.1515
      5 C5         -1.7194    0.8075    1.8173 C.ar      1 <0>        -0.0727
      6 C6         -0.7181    1.5718    1.2479 C.ar      1 <0>        -0.0870
      7 C7         -0.0127    1.0858    0.0080 C.3       1 <0>        -0.0934
      8 C8         -0.7416    1.5850   -1.2129 C.2       1 <0>         0.5053
      9 O1         -1.7359    2.2682   -1.0884 O.2       1 <0>        -0.4880
     10 N1         -0.2884    1.2723   -2.4431 N.am      1 <0>        -0.6127
     11 C9         -0.9591    1.7317   -3.5664 C.2       1 <0>         0.1204
     12 C10        -0.6465    1.5222   -4.9044 C.2       1 <0>        -0.2667
     13 C11        -1.5281    2.1204   -5.8784 C.2       1 <0>        -0.1064
     14 C12        -2.5669    2.8349   -5.4095 C.2       1 <0>        -0.2387
     15 S1         -2.3847    2.7115   -3.6424 S.3       1 <0>         0.2292
     16 C13         0.5195    0.7295   -5.3068 C.2       1 <0>         0.5910
     17 O2          1.2414    0.2360   -4.4602 O.2       1 <0>        -0.5652
     18 N2          0.7919    0.5474   -6.6141 N.am      1 <0>        -0.8482
     19 F1         -2.6442    2.8989    4.6352 F         1 <0>        -0.1383
     20 H1          0.4258    3.3733    1.3749 H         1 <0>         0.1324
     21 H2         -0.7313    4.1730    3.3956 H         1 <0>         0.1376
     22 H3         -3.1491    0.6548    3.3991 H         1 <0>         0.1376
     23 H4         -1.9962   -0.1372    1.3730 H         1 <0>         0.1324
     24 H5          0.0021   -0.0041    0.0020 H         1 <0>         0.1160
     25 H6          1.0099    1.4631    0.0003 H         1 <0>         0.1160
     26 H7          0.5068    0.7259   -2.5426 H         1 <0>         0.4347
     27 H8         -1.3585    2.0027   -6.9385 H         1 <0>         0.1400
     28 H9         -3.3282    3.3573   -5.9698 H         1 <0>         0.1898
     29 H10         0.2166    0.9407   -7.2888 H         1 <0>         0.4021
     30 H11         1.5633    0.0229   -6.8803 H         1 <0>         0.4051
@<TRIPOS>BOND
     1    1    6 ar
     2    1    2 ar
     3    1   20 1
     4    2    3 ar
     5    2   21 1
     6    3    4 ar
     7    3   19 1
     8    4    5 ar
     9    4   22 1
    10    5    6 ar
    11    5   23 1
    12    6    7 1
    13    7    8 1
    14    7   24 1
    15    7   25 1
    16    8    9 2
    17    8   10 am
    18   10   11 1
    19   10   26 1
    20   11   15 1
    21   11   12 2
    22   12   13 1
    23   12   16 1
    24   13   14 2
    25   13   27 1
    26   14   15 1
    27   14   28 1
    28   16   17 2
    29   16   18 am
    30   18   29 1
    31   18   30 1
@<TRIPOS>MOLECULE
ZINC03260373
   34    35     0     0     0
SMALL
USER_CHARGES
2-[2-(4-methoxyphenyl)acetyl]aminothiophene-3-carboxamide
@<TRIPOS>ATOM
      1 C1         -2.2321    4.1612    5.1743 C.3       1 <0>         0.0263
      2 O1         -2.6493    2.9025    4.6418 O.3       1 <0>        -0.3173
      3 C2         -2.0129    2.4640    3.5240 C.ar      1 <0>         0.1324
      4 C3         -2.3676    1.2501    2.9535 C.ar      1 <0>        -0.1498
      5 C4         -1.7195    0.8068    1.8169 C.ar      1 <0>        -0.0617
      6 C5         -0.7181    1.5718    1.2479 C.ar      1 <0>        -0.1142
      7 C6         -0.3589    2.7793    1.8178 C.ar      1 <0>        -0.0611
      8 C7         -1.0078    3.2297    2.9511 C.ar      1 <0>        -0.2064
      9 C8         -0.0127    1.0858    0.0080 C.3       1 <0>        -0.0888
     10 C9         -0.7416    1.5850   -1.2129 C.2       1 <0>         0.5044
     11 O2         -1.7359    2.2682   -1.0884 O.2       1 <0>        -0.4874
     12 N1         -0.2884    1.2723   -2.4431 N.am      1 <0>        -0.6137
     13 C10        -0.9591    1.7317   -3.5664 C.2       1 <0>         0.1223
     14 C11        -0.6465    1.5222   -4.9044 C.2       1 <0>        -0.2687
     15 C12        -1.5281    2.1204   -5.8784 C.2       1 <0>        -0.1060
     16 C13        -2.5669    2.8349   -5.4095 C.2       1 <0>        -0.2401
     17 S1         -2.3847    2.7115   -3.6424 S.3       1 <0>         0.2285
     18 C14         0.5195    0.7295   -5.3068 C.2       1 <0>         0.5911
     19 O3          1.2414    0.2360   -4.4602 O.2       1 <0>        -0.5651
     20 N2          0.7919    0.5474   -6.6141 N.am      1 <0>        -0.8485
     21 H1         -1.1759    4.1115    5.4391 H         1 <0>         0.0562
     22 H2         -2.3831    4.9400    4.4268 H         1 <0>         0.0565
     23 H3         -2.8190    4.3921    6.0633 H         1 <0>         0.1014
     24 H4         -3.1495    0.6521    3.3978 H         1 <0>         0.1325
     25 H5         -1.9954   -0.1379    1.3722 H         1 <0>         0.1287
     26 H6          0.4269    3.3727    1.3742 H         1 <0>         0.1239
     27 H7         -0.7300    4.1750    3.3933 H         1 <0>         0.1294
     28 H8          0.0021   -0.0041    0.0020 H         1 <0>         0.1129
     29 H9          1.0099    1.4631    0.0003 H         1 <0>         0.1121
     30 H10         0.5068    0.7259   -2.5426 H         1 <0>         0.4344
     31 H11        -1.3585    2.0027   -6.9385 H         1 <0>         0.1396
     32 H12        -3.3282    3.3573   -5.9698 H         1 <0>         0.1894
     33 H13         0.2166    0.9407   -7.2888 H         1 <0>         0.4019
     34 H14         1.5633    0.0229   -6.8803 H         1 <0>         0.4048
@<TRIPOS>BOND
     1    1    2 1
     2    1   21 1
     3    1   22 1
     4    1   23 1
     5    2    3 1
     6    3    8 ar
     7    3    4 ar
     8    4    5 ar
     9    4   24 1
    10    5    6 ar
    11    5   25 1
    12    6    7 ar
    13    6    9 1
    14    7    8 ar
    15    7   26 1
    16    8   27 1
    17    9   10 1
    18    9   28 1
    19    9   29 1
    20   10   11 2
    21   10   12 am
    22   12   13 1
    23   12   30 1
    24   13   17 1
    25   13   14 2
    26   14   15 1
    27   14   18 1
    28   15   16 2
    29   15   31 1
    30   16   17 1
    31   16   32 1
    32   18   19 2
    33   18   20 am
    34   20   33 1
    35   20   34 1
@<TRIPOS>MOLECULE
ZINC20442139
   33    34     0     0     0
SMALL
USER_CHARGES
2-[[2-(m-tolyl)acetyl]amino]thiophene-3-carboxamide
@<TRIPOS>ATOM
      1 C1         -0.4062   -7.2088   -2.5332 C.3       1 <0>        -0.1183
      2 C2          0.1002   -6.6466   -1.2299 C.ar      1 <0>        -0.0838
      3 C3         -0.3412   -7.1752   -0.0310 C.ar      1 <0>        -0.1165
      4 C4          0.1236   -6.6599    1.1642 C.ar      1 <0>        -0.1139
      5 C5          1.0329   -5.6184    1.1610 C.ar      1 <0>        -0.1093
      6 C6          1.4705   -5.0868   -0.0375 C.ar      1 <0>        -0.0700
      7 C7          1.0062   -5.6029   -1.2331 C.ar      1 <0>        -0.1043
      8 C8          2.4583   -3.9487   -0.0410 C.3       1 <0>        -0.0961
      9 C9          1.7147   -2.6380   -0.0275 C.2       1 <0>         0.5067
     10 O1          0.5019   -2.6290   -0.0163 O.2       1 <0>        -0.4924
     11 N1          2.3973   -1.4759   -0.0281 N.am      1 <0>        -0.6288
     12 C10         1.7130   -0.2699   -0.0157 C.2       1 <0>         0.1307
     13 C11         2.2342    1.0185   -0.0138 C.2       1 <0>        -0.2719
     14 C12         1.2827    2.1038    0.0011 C.2       1 <0>        -0.1046
     15 C13        -0.0221    1.7765    0.0118 C.2       1 <0>        -0.2431
     16 S1          0.0021   -0.0041    0.0020 S.3       1 <0>         0.2172
     17 C14         3.6799    1.2633   -0.0268 C.2       1 <0>         0.5939
     18 O2          4.4558    0.3257   -0.0396 O.2       1 <0>        -0.5754
     19 N2          4.1494    2.5266   -0.0244 N.am      1 <0>        -0.8710
     20 H1         -1.1132   -8.0265   -2.3297 H         1 <0>         0.0663
     21 H2          0.4407   -7.5938   -3.1201 H         1 <0>         0.0701
     22 H3         -0.9157   -6.4163   -3.1010 H         1 <0>         0.0703
     23 H4         -1.0489   -7.9910   -0.0286 H         1 <0>         0.1221
     24 H5         -0.2209   -7.0730    2.1007 H         1 <0>         0.1234
     25 H6          1.3989   -5.2182    2.0949 H         1 <0>         0.1198
     26 H7          1.3513   -5.1902   -2.1696 H         1 <0>         0.1196
     27 H8          3.0986   -4.0162    0.8509 H         1 <0>         0.1134
     28 H9          3.0819   -4.0072   -0.9453 H         1 <0>         0.1130
     29 H10         3.4972   -1.4841   -0.0384 H         1 <0>         0.4625
     30 H11         1.6045    3.1347    0.0032 H         1 <0>         0.1382
     31 H12        -0.8781    2.4350    0.0197 H         1 <0>         0.1878
     32 H13         5.2339    2.7103   -0.0342 H         1 <0>         0.4247
     33 H14         3.4481    3.3740   -0.0127 H         1 <0>         0.4197
@<TRIPOS>BOND
     1    1    2 1
     2    1   20 1
     3    1   21 1
     4    1   22 1
     5    2    7 ar
     6    2    3 ar
     7    3    4 ar
     8    3   23 1
     9    4    5 ar
    10    4   24 1
    11    5    6 ar
    12    5   25 1
    13    6    7 ar
    14    6    8 1
    15    7   26 1
    16    8    9 1
    17    8   27 1
    18    8   28 1
    19    9   10 2
    20    9   11 am
    21   11   12 1
    22   11   29 1
    23   12   16 1
    24   12   13 2
    25   13   14 1
    26   13   17 1
    27   14   15 2
    28   14   30 1
    29   15   16 1
    30   15   31 1
    31   17   18 2
    32   17   19 am
    33   19   32 1
    34   19   33 1
@<TRIPOS>MOLECULE
ZINC08737681
   33    34     0     0     0
SMALL
USER_CHARGES
2-[2-(p-tolyl)acetyl]aminothiophene-3-carboxamide
@<TRIPOS>ATOM
      1 C1         -2.7170    2.9491    4.7629 C.3       1 <0>        -0.1173
      2 C2         -2.0116    2.4630    3.5230 C.ar      1 <0>        -0.0808
      3 C3         -2.3665    1.2538    2.9550 C.ar      1 <0>        -0.1193
      4 C4         -1.7194    0.8079    1.8177 C.ar      1 <0>        -0.0980
      5 C5         -0.7181    1.5718    1.2479 C.ar      1 <0>        -0.0820
      6 C6         -0.3599    2.7788    1.8186 C.ar      1 <0>        -0.0981
      7 C7         -1.0099    3.2267    2.9534 C.ar      1 <0>        -0.1192
      8 C8         -0.0127    1.0858    0.0080 C.3       1 <0>        -0.0935
      9 C9         -0.7416    1.5850   -1.2129 C.2       1 <0>         0.5056
     10 O1         -1.7359    2.2682   -1.0884 O.2       1 <0>        -0.4871
     11 N1         -0.2884    1.2723   -2.4431 N.am      1 <0>        -0.6136
     12 C10        -0.9591    1.7317   -3.5664 C.2       1 <0>         0.1220
     13 C11        -0.6465    1.5222   -4.9044 C.2       1 <0>        -0.2684
     14 C12        -1.5281    2.1204   -5.8784 C.2       1 <0>        -0.1060
     15 C13        -2.5669    2.8349   -5.4095 C.2       1 <0>        -0.2398
     16 S1         -2.3847    2.7115   -3.6424 S.3       1 <0>         0.2286
     17 C14         0.5195    0.7295   -5.3068 C.2       1 <0>         0.5911
     18 O2          1.2414    0.2360   -4.4602 O.2       1 <0>        -0.5651
     19 N2          0.7919    0.5474   -6.6141 N.am      1 <0>        -0.8484
     20 H1         -2.1903    2.5874    5.6459 H         1 <0>         0.0714
     21 H2         -2.7311    4.0390    4.7692 H         1 <0>         0.0671
     22 H3         -3.7398    2.5724    4.7702 H         1 <0>         0.0670
     23 H4         -3.1490    0.6571    3.4000 H         1 <0>         0.1231
     24 H5         -1.9965   -0.1370    1.3742 H         1 <0>         0.1207
     25 H6          0.4254    3.3735    1.3759 H         1 <0>         0.1208
     26 H7         -0.7329    4.1716    3.3970 H         1 <0>         0.1231
     27 H8          0.0021   -0.0041    0.0020 H         1 <0>         0.1128
     28 H9          1.0099    1.4631    0.0003 H         1 <0>         0.1129
     29 H10         0.5068    0.7259   -2.5426 H         1 <0>         0.4344
     30 H11        -1.3585    2.0027   -6.9385 H         1 <0>         0.1398
     31 H12        -3.3282    3.3573   -5.9698 H         1 <0>         0.1896
     32 H13         0.2166    0.9407   -7.2888 H         1 <0>         0.4019
     33 H14         1.5633    0.0229   -6.8803 H         1 <0>         0.4049
@<TRIPOS>BOND
     1    1    2 1
     2    1   20 1
     3    1   21 1
     4    1   22 1
     5    2    7 ar
     6    2    3 ar
     7    3    4 ar
     8    3   23 1
     9    4    5 ar
    10    4   24 1
    11    5    6 ar
    12    5    8 1
    13    6    7 ar
    14    6   25 1
    15    7   26 1
    16    8    9 1
    17    8   27 1
    18    8   28 1
    19    9   10 2
    20    9   11 am
    21   11   12 1
    22   11   29 1
    23   12   16 1
    24   12   13 2
    25   13   14 1
    26   13   17 1
    27   14   15 2
    28   14   30 1
    29   15   16 1
    30   15   31 1
    31   17   18 2
    32   17   19 am
    33   19   32 1
    34   19   33 1
@<TRIPOS>MOLECULE
ZINC07614915
   37    38     0     0     0
SMALL
USER_CHARGES
2-[2-(4-ethoxyphenyl)acetyl]aminothiophene-3-carboxamide
@<TRIPOS>ATOM
      1 C1         -3.0559    4.4853    6.4222 C.3       1 <0>        -0.1533
      2 C2         -2.2321    4.1612    5.1743 C.3       1 <0>         0.0538
      3 O1         -2.6493    2.9025    4.6418 O.3       1 <0>        -0.3160
      4 C3         -2.0129    2.4640    3.5240 C.ar      1 <0>         0.1360
      5 C4         -2.3676    1.2501    2.9535 C.ar      1 <0>        -0.1504
      6 C5         -1.7195    0.8068    1.8169 C.ar      1 <0>        -0.0613
      7 C6         -0.7181    1.5718    1.2479 C.ar      1 <0>        -0.1149
      8 C7         -0.3589    2.7793    1.8178 C.ar      1 <0>        -0.0607
      9 C8         -1.0078    3.2297    2.9511 C.ar      1 <0>        -0.2072
     10 C9         -0.0127    1.0858    0.0080 C.3       1 <0>        -0.0886
     11 C10        -0.7416    1.5850   -1.2129 C.2       1 <0>         0.5043
     12 O2         -1.7359    2.2682   -1.0884 O.2       1 <0>        -0.4873
     13 N1         -0.2884    1.2723   -2.4431 N.am      1 <0>        -0.6137
     14 C11        -0.9591    1.7317   -3.5664 C.2       1 <0>         0.1224
     15 C12        -0.6465    1.5222   -4.9044 C.2       1 <0>        -0.2687
     16 C13        -1.5281    2.1204   -5.8784 C.2       1 <0>        -0.1059
     17 C14        -2.5669    2.8349   -5.4095 C.2       1 <0>        -0.2402
     18 S1         -2.3847    2.7115   -3.6424 S.3       1 <0>         0.2285
     19 C15         0.5195    0.7295   -5.3068 C.2       1 <0>         0.5911
     20 O3          1.2414    0.2360   -4.4602 O.2       1 <0>        -0.5651
     21 N2          0.7919    0.5474   -6.6141 N.am      1 <0>        -0.8485
     22 H1         -2.9049    3.7065    7.1697 H         1 <0>         0.0668
     23 H2         -2.7376    5.4455    6.8284 H         1 <0>         0.0793
     24 H3         -4.1121    4.5350    6.1575 H         1 <0>         0.0670
     25 H4         -1.1759    4.1115    5.4391 H         1 <0>         0.0624
     26 H5         -2.3831    4.9400    4.4268 H         1 <0>         0.0627
     27 H6         -3.1495    0.6521    3.3978 H         1 <0>         0.1322
     28 H7         -1.9954   -0.1379    1.3722 H         1 <0>         0.1285
     29 H8          0.4269    3.3727    1.3742 H         1 <0>         0.1237
     30 H9         -0.7300    4.1750    3.3933 H         1 <0>         0.1286
     31 H10         0.0021   -0.0041    0.0020 H         1 <0>         0.1128
     32 H11         1.0099    1.4631    0.0003 H         1 <0>         0.1120
     33 H12         0.5068    0.7259   -2.5426 H         1 <0>         0.4343
     34 H13        -1.3585    2.0027   -6.9385 H         1 <0>         0.1396
     35 H14        -3.3282    3.3573   -5.9698 H         1 <0>         0.1894
     36 H15         0.2166    0.9407   -7.2888 H         1 <0>         0.4019
     37 H16         1.5633    0.0229   -6.8803 H         1 <0>         0.4048
@<TRIPOS>BOND
     1    1    2 1
     2    1   22 1
     3    1   23 1
     4    1   24 1
     5    2    3 1
     6    2   25 1
     7    2   26 1
     8    3    4 1
     9    4    9 ar
    10    4    5 ar
    11    5    6 ar
    12    5   27 1
    13    6    7 ar
    14    6   28 1
    15    7    8 ar
    16    7   10 1
    17    8    9 ar
    18    8   29 1
    19    9   30 1
    20   10   11 1
    21   10   31 1
    22   10   32 1
    23   11   12 2
    24   11   13 am
    25   13   14 1
    26   13   33 1
    27   14   18 1
    28   14   15 2
    29   15   16 1
    30   15   19 1
    31   16   17 2
    32   16   34 1
    33   17   18 1
    34   17   35 1
    35   19   20 2
    36   19   21 am
    37   21   36 1
    38   21   37 1
@<TRIPOS>MOLECULE
ZINC02662217
   34    36     0     0     0
SMALL
USER_CHARGES
2-[[2-(1H-indol-3-yl)acetyl]amino]thiophene-3-carboxamide
@<TRIPOS>ATOM
      1 C1          0.0995   -6.1580   -3.4362 C.ar      1 <0>        -0.1452
      2 C2         -0.7180   -7.1719   -2.9553 C.ar      1 <0>        -0.1009
      3 C3         -0.7795   -7.4446   -1.6064 C.ar      1 <0>        -0.1291
      4 C4         -0.0157   -6.6979   -0.7150 C.ar      1 <0>         0.0890
      5 C5          0.8109   -5.6717   -1.2074 C.ar      1 <0>        -0.0919
      6 C6          0.8576   -5.4122   -2.5786 C.ar      1 <0>        -0.0722
      7 C7          1.4705   -5.0868   -0.0375 C.2       1 <0>        -0.1710
      8 C8          1.0324   -5.7606    1.0377 C.2       1 <0>         0.0860
      9 N1          0.1397   -6.7235    0.6528 N.pl3     1 <0>        -0.6040
     10 H1         -0.4202   -7.4530    1.2564 H         1 <0>         0.4436
     11 C9          2.4583   -3.9487   -0.0410 C.3       1 <0>        -0.0553
     12 C10         1.7147   -2.6380   -0.0275 C.2       1 <0>         0.5035
     13 O1          0.5019   -2.6290   -0.0163 O.2       1 <0>        -0.4901
     14 N2          2.3973   -1.4759   -0.0281 N.am      1 <0>        -0.6303
     15 C11         1.7130   -0.2699   -0.0157 C.2       1 <0>         0.1343
     16 C12         2.2342    1.0185   -0.0138 C.2       1 <0>        -0.2751
     17 C13         1.2827    2.1038    0.0011 C.2       1 <0>        -0.1039
     18 C14        -0.0221    1.7765    0.0118 C.2       1 <0>        -0.2456
     19 S1          0.0021   -0.0041    0.0020 S.3       1 <0>         0.2158
     20 C15         3.6799    1.2633   -0.0268 C.2       1 <0>         0.5941
     21 O2          4.4558    0.3257   -0.0396 O.2       1 <0>        -0.5753
     22 N3          4.1494    2.5266   -0.0244 N.am      1 <0>        -0.8716
     23 H2          0.1358   -5.9569   -4.4967 H         1 <0>         0.1209
     24 H3         -1.3119   -7.7525   -3.6456 H         1 <0>         0.1241
     25 H4         -1.4187   -8.2352   -1.2421 H         1 <0>         0.1192
     26 H5          1.4910   -4.6249   -2.9598 H         1 <0>         0.1156
     27 H6          1.3379   -5.5697    2.0559 H         1 <0>         0.1676
     28 H7          3.0986   -4.0162    0.8509 H         1 <0>         0.1092
     29 H8          3.0819   -4.0072   -0.9453 H         1 <0>         0.1091
     30 H9          3.4972   -1.4841   -0.0384 H         1 <0>         0.4616
     31 H10         1.6045    3.1347    0.0032 H         1 <0>         0.1374
     32 H11        -0.8781    2.4350    0.0197 H         1 <0>         0.1869
     33 H12         5.2339    2.7103   -0.0342 H         1 <0>         0.4242
     34 H13         3.4481    3.3740   -0.0127 H         1 <0>         0.4193
@<TRIPOS>BOND
     1    1    6 ar
     2    1    2 ar
     3    1   23 1
     4    2    3 ar
     5    2   24 1
     6    3    4 ar
     7    3   25 1
     8    4    9 1
     9    4    5 ar
    10    5    6 ar
    11    5    7 1
    12    6   26 1
    13    7    8 2
    14    7   11 1
    15    8    9 1
    16    8   27 1
    17    9   10 1
    18   11   12 1
    19   11   28 1
    20   11   29 1
    21   12   13 2
    22   12   14 am
    23   14   15 1
    24   14   30 1
    25   15   19 1
    26   15   16 2
    27   16   17 1
    28   16   20 1
    29   17   18 2
    30   17   31 1
    31   18   19 1
    32   18   32 1
    33   20   21 2
    34   20   22 am
    35   22   33 1
    36   22   34 1
@<TRIPOS>MOLECULE
ZINC23249341
   45    47     0     0     0
SMALL
USER_CHARGES

@<TRIPOS>ATOM
      1 C1         -0.0162    1.3409    0.0094 C.2       1 <0>        -0.2194
      2 C2          1.3313    1.7689   -0.0012 C.2       1 <0>        -0.1382
      3 C3          2.0923    0.6599   -0.0144 C.2       1 <0>        -0.1112
      4 O1          1.2819   -0.4111   -0.0124 O.3       1 <0>        -0.1689
      5 C4          0.0021   -0.0041    0.0020 C.2       1 <0>         0.0152
      6 C5          3.5989    0.6249   -0.0294 C.3       1 <0>         0.0922
      7 N1          4.1020    0.6064    1.3506 N.4       1 <0>        -0.3897
      8 C6          3.6892   -0.6420    2.0053 C.3       1 <0>        -0.0008
      9 C7          4.1971   -0.6534    3.4487 C.3       1 <0>         0.0292
     10 N2          5.6625   -0.5404    3.4504 N.3       1 <0>        -0.5225
     11 C8          6.0917    0.6929    2.7760 C.3       1 <0>         0.0176
     12 C9          5.5682    0.6932    1.3381 C.3       1 <0>         0.0010
     13 C10         6.1940   -0.6048    4.8184 C.3       1 <0>         0.0421
     14 C11         7.6946   -0.7334    4.7687 C.2       1 <0>         0.5064
     15 O2          8.2653   -0.7680    3.6991 O.2       1 <0>        -0.4899
     16 N3          8.4026   -0.8099    5.9130 N.am      1 <0>        -0.6073
     17 C12         9.7835   -0.9282    5.8674 C.2       1 <0>         0.0708
     18 C13        10.6668   -1.0244    6.9326 C.2       1 <0>        -0.2601
     19 C14        12.0686   -1.1391    6.6012 C.2       1 <0>        -0.1042
     20 C15        12.3629   -1.1399    5.2879 C.2       1 <0>        -0.2435
     21 S1         10.7686   -0.9952    4.5110 S.3       1 <0>         0.2851
     22 C16        10.2021   -1.0098    8.3232 C.2       1 <0>         0.5910
     23 O3          9.0136   -0.9114    8.5666 O.2       1 <0>        -0.5685
     24 N4         11.0909   -1.1054    9.3318 N.am      1 <0>        -0.8451
     25 H1         -0.8920    1.9726    0.0252 H         1 <0>         0.1635
     26 H2          1.6822    2.7903    0.0004 H         1 <0>         0.1609
     27 H3         -0.8653   -0.6475    0.0072 H         1 <0>         0.2187
     28 H4          3.9364   -0.2706   -0.5512 H         1 <0>         0.1460
     29 H5          3.9777    1.5089   -0.5424 H         1 <0>         0.1572
     30 H6          2.6015   -0.7113    2.0023 H         1 <0>         0.1348
     31 H7          4.1089   -1.4911    1.4658 H         1 <0>         0.1412
     32 H8          3.7669    0.1878    3.9923 H         1 <0>         0.0645
     33 H9          3.9037   -1.5862    3.9302 H         1 <0>         0.1274
     34 H10         5.6928    1.5563    3.3085 H         1 <0>         0.0603
     35 H11         7.1806    0.7422    2.7667 H         1 <0>         0.1408
     36 H12         5.9783   -0.1628    0.8020 H         1 <0>         0.1434
     37 H13         5.8735    1.6137    0.8405 H         1 <0>         0.1398
     38 H14         5.9248    0.3045    5.3558 H         1 <0>         0.0869
     39 H15         5.7720   -1.4687    5.3318 H         1 <0>         0.1276
     40 H16         7.9463   -0.7821    6.7685 H         1 <0>         0.4349
     41 H17        12.8328   -1.2189    7.3603 H         1 <0>         0.1461
     42 H18        13.3327   -1.2148    4.8186 H         1 <0>         0.1927
     43 H19        12.0381   -1.1838    9.1377 H         1 <0>         0.4037
     44 H20        10.7835   -1.0958   10.2517 H         1 <0>         0.4074
     45 H21         3.7231    1.3926    1.8571 H         1 <0>         0.4211
@<TRIPOS>BOND
     1    1    5 2
     2    1    2 1
     3    1   25 1
     4    2    3 2
     5    2   26 1
     6    3    4 1
     7    3    6 1
     8    4    5 1
     9    5   27 1
    10    6    7 1
    11    6   28 1
    12    6   29 1
    13    7   12 1
    14    7    8 1
    15    7   45 1
    16    8    9 1
    17    8   30 1
    18    8   31 1
    19    9   10 1
    20    9   32 1
    21    9   33 1
    22   10   11 1
    23   10   13 1
    24   11   12 1
    25   11   34 1
    26   11   35 1
    27   12   36 1
    28   12   37 1
    29   13   14 1
    30   13   38 1
    31   13   39 1
    32   14   15 2
    33   14   16 am
    34   16   17 1
    35   16   40 1
    36   17   21 1
    37   17   18 2
    38   18   19 1
    39   18   22 1
    40   19   20 2
    41   19   41 1
    42   20   21 1
    43   20   42 1
    44   22   23 2
    45   22   24 am
    46   24   43 1
    47   24   44 1
@<TRIPOS>MOLECULE
ZINC12325075
   41    43     0     0     0
SMALL
USER_CHARGES
5-bromo-N-[3-chloro-2-(4-methylpiperazin-1-yl)phenyl]furan-2-carboxamide
@<TRIPOS>ATOM
      1 C1          6.4194    5.2538   -0.0014 C.3       1 <0>        -0.0411
      2 C2          5.0179    3.7061   -1.2282 C.3       1 <0>         0.0050
      3 C3          3.6628    2.9948   -1.2201 C.3       1 <0>         0.0024
      4 N1          3.5716    2.1337   -0.0327 N.pl3     1 <0>        -0.4916
      5 C4          3.7152    2.9226    1.1988 C.3       1 <0>         0.0134
      6 C5          5.0704    3.6339    1.1906 C.3       1 <0>         0.0049
      7 C6          2.3729    1.4105   -0.0283 C.ar      1 <0>         0.0490
      8 C7          2.3972    0.0160   -0.0304 C.ar      1 <0>         0.1941
      9 C8          1.2062   -0.6944   -0.0260 C.ar      1 <0>        -0.1073
     10 C9         -0.0011   -0.0206   -0.0195 C.ar      1 <0>        -0.0705
     11 C10        -0.0262    1.3616   -0.0179 C.ar      1 <0>        -0.1080
     12 C11         1.1569    2.0789   -0.0223 C.ar      1 <0>        -0.0453
     13 Cl1         1.1201    3.8145   -0.0208 Cl        1 <0>        -0.0583
     14 N2          3.6212   -0.6650   -0.0374 N.am      1 <0>        -0.6532
     15 C12         3.7465   -1.8327    0.6238 C.2       1 <0>         0.6107
     16 O1          2.7759   -2.3364    1.1587 O.2       1 <0>        -0.4859
     17 C13         5.0509   -2.4960    0.6989 C.2       1 <0>        -0.0717
     18 C14         5.3170   -3.6736    1.3382 C.2       1 <0>        -0.0966
     19 C15         6.6831   -3.9334    1.1540 C.2       1 <0>        -0.1620
     20 C16         7.1882   -2.9112    0.4254 C.2       1 <0>         0.0036
     21 O2          6.2011   -2.0474    0.1535 O.3       1 <0>        -0.1518
     22 Br1         8.9902   -2.7316   -0.1191 Br        1 <0>         0.0752
     23 H1          6.4313    5.9322   -0.8545 H         1 <0>         0.1231
     24 H2          6.5003    5.8287    0.9211 H         1 <0>         0.1231
     25 H3          7.2599    4.5636   -0.0743 H         1 <0>         0.1250
     26 H4          5.8166    2.9662   -1.2814 H         1 <0>         0.1394
     27 H5          5.0764    4.3671   -2.0929 H         1 <0>         0.1372
     28 H6          3.5662    2.3860   -2.1191 H         1 <0>         0.1247
     29 H7          2.8632    3.7352   -1.1946 H         1 <0>         0.0834
     30 H8          2.9165    3.6624    1.2519 H         1 <0>         0.0788
     31 H9          3.6569    2.2612    2.0632 H         1 <0>         0.1241
     32 H10         5.8697    2.8933    1.1649 H         1 <0>         0.1396
     33 H11         5.1674    4.2426    2.0896 H         1 <0>         0.1372
     34 H12         1.2218   -1.7743   -0.0273 H         1 <0>         0.1577
     35 H13        -0.9274   -0.5759   -0.0161 H         1 <0>         0.1490
     36 H14        -0.9720    1.8830   -0.0177 H         1 <0>         0.1444
     37 H15         4.3787   -0.2962   -0.5182 H         1 <0>         0.4217
     38 H16         4.6115   -4.2870    1.8789 H         1 <0>         0.1755
     39 H17         7.2298   -4.7869    1.5269 H         1 <0>         0.1747
     40 N3          5.1400    4.5128    0.0041 N.4       1 <0>        -0.3999
     41 H18         4.3651    5.1853    0.0410 H         1 <0>         0.4260
@<TRIPOS>BOND
     1    1   23 1
     2    1   24 1
     3    1   25 1
     4    1   40 1
     5    2    3 1
     6    2   26 1
     7    2   27 1
     8    2   40 1
     9    3    4 1
    10    3   28 1
    11    3   29 1
    12    4    5 1
    13    4    7 1
    14    5    6 1
    15    5   30 1
    16    5   31 1
    17    6   32 1
    18    6   33 1
    19    6   40 1
    20    7   12 ar
    21    7    8 ar
    22    8    9 ar
    23    8   14 1
    24    9   10 ar
    25    9   34 1
    26   10   11 ar
    27   10   35 1
    28   11   12 ar
    29   11   36 1
    30   12   13 1
    31   14   15 am
    32   14   37 1
    33   15   16 2
    34   15   17 1
    35   17   21 1
    36   17   18 2
    37   18   19 1
    38   18   38 1
    39   19   20 2
    40   19   39 1
    41   20   21 1
    42   20   22 1
    43   40   41 1
@<TRIPOS>MOLECULE
ZINC09422342
   42    44     0     0     0
SMALL
USER_CHARGES
N-[2-(4-acetylpiperazin-1-yl)-3-chloro-phenyl]-5-bromo-furan-2-carboxamide
@<TRIPOS>ATOM
      1 C1          6.0069    5.8966   -1.8585 C.3       1 <0>        -0.1803
      2 C2          5.8285    5.1342   -0.5709 C.2       1 <0>         0.5139
      3 O1          6.1264    5.6500    0.4856 O.2       1 <0>        -0.5445
      4 N1          5.3379    3.8791   -0.5933 N.am      1 <0>        -0.6151
      5 C3          5.0681    3.1967   -1.8680 C.3       1 <0>         0.1088
      6 C4          3.6378    2.6480   -1.8331 C.3       1 <0>         0.0202
      7 N2          3.4649    1.8163   -0.6346 N.pl3     1 <0>        -0.4963
      8 C5          3.6278    2.6085    0.5917 C.3       1 <0>         0.0338
      9 C6          5.0577    3.1556    0.6562 C.3       1 <0>         0.1193
     10 C7          2.2257    1.1651   -0.6503 C.ar      1 <0>         0.0727
     11 C8          2.1674   -0.2281   -0.6279 C.ar      1 <0>         0.1802
     12 C9          0.9366   -0.8671   -0.6437 C.ar      1 <0>        -0.1101
     13 C10        -0.2284   -0.1235   -0.6814 C.ar      1 <0>        -0.0867
     14 C11        -0.1716    1.2577   -0.7041 C.ar      1 <0>        -0.1125
     15 C12         1.0517    1.9039   -0.6887 C.ar      1 <0>        -0.0498
     16 Cl1         1.1179    3.6384   -0.7178 Cl        1 <0>        -0.0508
     17 N3          3.3486   -0.9800   -0.5902 N.am      1 <0>        -0.6464
     18 C13         3.3872   -2.1404    0.0943 C.2       1 <0>         0.6084
     19 O2          2.3748   -2.5762    0.6111 O.2       1 <0>        -0.4948
     20 C14         4.6477   -2.8774    0.2164 C.2       1 <0>        -0.0610
     21 C15         4.8269   -4.0563    0.8830 C.2       1 <0>        -0.1060
     22 C16         6.1797   -4.3992    0.7407 C.2       1 <0>        -0.1648
     23 C17         6.7632   -3.4223    0.0087 C.2       1 <0>         0.0029
     24 O3          5.8363   -2.5074   -0.3050 O.3       1 <0>        -0.1462
     25 Br1         8.5864   -3.3589   -0.4894 Br        1 <0>         0.0698
     26 H1          5.7800    5.2441   -2.7015 H         1 <0>         0.0824
     27 H2          5.3327    6.7530   -1.8701 H         1 <0>         0.0956
     28 H3          7.0371    6.2443   -1.9351 H         1 <0>         0.0962
     29 H4          5.7723    2.3753   -1.9998 H         1 <0>         0.0791
     30 H5          5.1697    3.9020   -2.6928 H         1 <0>         0.0998
     31 H6          3.4577    2.0451   -2.7232 H         1 <0>         0.0896
     32 H7          2.9303    3.4768   -1.8059 H         1 <0>         0.0684
     33 H8          2.9208    3.4381    0.5854 H         1 <0>         0.0628
     34 H9          3.4404    1.9770    1.4602 H         1 <0>         0.0881
     35 H10         5.7609    2.3302    0.7670 H         1 <0>         0.0747
     36 H11         5.1548    3.8355    1.5026 H         1 <0>         0.0984
     37 H12         0.8881   -1.9459   -0.6261 H         1 <0>         0.1519
     38 H13        -1.1858   -0.6231   -0.6936 H         1 <0>         0.1414
     39 H14        -1.0845    1.8337   -0.7384 H         1 <0>         0.1376
     40 H15         4.1388   -0.6656   -1.0566 H         1 <0>         0.4239
     41 H16         4.0724   -4.6171    1.4148 H         1 <0>         0.1734
     42 H17         6.6650   -5.2761    1.1431 H         1 <0>         0.1719
@<TRIPOS>BOND
     1    1    2 1
     2    1   26 1
     3    1   27 1
     4    1   28 1
     5    2    3 2
     6    2    4 am
     7    4    9 1
     8    4    5 1
     9    5    6 1
    10    5   29 1
    11    5   30 1
    12    6    7 1
    13    6   31 1
    14    6   32 1
    15    7    8 1
    16    7   10 1
    17    8    9 1
    18    8   33 1
    19    8   34 1
    20    9   35 1
    21    9   36 1
    22   10   15 ar
    23   10   11 ar
    24   11   12 ar
    25   11   17 1
    26   12   13 ar
    27   12   37 1
    28   13   14 ar
    29   13   38 1
    30   14   15 ar
    31   14   39 1
    32   15   16 1
    33   17   18 am
    34   17   40 1
    35   18   19 2
    36   18   20 1
    37   20   24 1
    38   20   21 2
    39   21   22 1
    40   21   41 1
    41   22   23 2
    42   22   42 1
    43   23   24 1
    44   23   25 1
@<TRIPOS>MOLECULE
ZINC13647791
   43    46     0     0     0
SMALL
USER_CHARGES

@<TRIPOS>ATOM
      1 C1         -0.0166    1.3699    0.0096 C.ar      1 <0>        -0.0800
      2 C2          1.1572    2.1045    0.0023 C.ar      1 <0>        -0.1190
      3 C3          2.3694    1.4373   -0.0129 C.ar      1 <0>        -0.0394
      4 C4          2.3887    0.0627   -0.0205 C.ar      1 <0>        -0.1883
      5 C5          1.2179   -0.7095   -0.0134 C.ar      1 <0>         0.1191
      6 C6          0.0021   -0.0041    0.0020 C.ar      1 <0>        -0.1207
      7 N1          1.3955   -2.0811   -0.0225 N.pl3     1 <0>        -0.6290
      8 C7          2.6545   -2.6113   -0.0374 C.2       1 <0>         0.2414
      9 C8          3.0385   -3.9533   -0.0487 C.2       1 <0>        -0.1370
     10 C9          2.0433   -4.9829   -0.0452 C.1       1 <0>         0.2720
     11 N2          1.2537   -5.7996   -0.0424 N.1       1 <0>        -0.4249
     12 C10         4.4680   -4.3104   -0.0642 C.ar      1 <0>         0.3088
     13 C11         4.8666   -5.6555   -0.0815 C.ar      1 <0>        -0.2844
     14 C12         6.2058   -5.9409   -0.0954 C.ar      1 <0>         0.2007
     15 N3          7.0848   -4.9482   -0.0923 N.ar      1 <0>        -0.5794
     16 C13         6.6886   -3.6836   -0.0759 C.ar      1 <0>         0.5826
     17 N4          5.4049   -3.3593   -0.0676 N.ar      1 <0>        -0.5825
     18 N5          7.6395   -2.6778   -0.0728 N.pl3     1 <0>        -0.7005
     19 C14         9.0646   -3.0170   -0.0875 C.3       1 <0>         0.1450
     20 C15         9.8948   -1.7318   -0.0805 C.3       1 <0>        -0.0888
     21 C16        11.3608   -2.0808   -0.0957 C.ar      1 <0>        -0.1340
     22 C17        12.0518   -2.2615    1.0929 C.ar      1 <0>        -0.0689
     23 C18        13.3992   -2.5815    1.0307 C.ar      1 <0>        -0.1701
     24 C19        14.0048   -2.7089   -0.2053 C.ar      1 <0>         0.0971
     25 N6         13.3163   -2.5294   -1.3154 N.ar      1 <0>        -0.4833
     26 C20        12.0320   -2.2302   -1.2943 C.ar      1 <0>         0.1060
     27 S1          3.6842   -1.1528   -0.0394 S.3       1 <0>         0.1837
     28 H1         -0.9648    1.8866    0.0260 H         1 <0>         0.1374
     29 H2          1.1270    3.1841    0.0081 H         1 <0>         0.1413
     30 H3          3.2952    1.9934   -0.0191 H         1 <0>         0.1400
     31 H4         -0.9301   -0.5494    0.0080 H         1 <0>         0.1308
     32 H5          0.6237   -2.6686   -0.0180 H         1 <0>         0.4164
     33 H6          4.1333   -6.4484   -0.0833 H         1 <0>         0.1381
     34 H7          6.5434   -6.9667   -0.1085 H         1 <0>         0.1667
     35 H8          7.3622   -1.7483   -0.0608 H         1 <0>         0.4130
     36 H9          9.3060   -3.6103    0.7944 H         1 <0>         0.0692
     37 H10         9.2920   -3.5916   -0.9854 H         1 <0>         0.0705
     38 H11         9.6534   -1.1385   -0.9624 H         1 <0>         0.0847
     39 H12         9.6674   -1.1572    0.8174 H         1 <0>         0.0829
     40 H13        11.5523   -2.1551    2.0445 H         1 <0>         0.1348
     41 H14        13.9686   -2.7291    1.9364 H         1 <0>         0.1364
     42 H15        15.0542   -2.9580   -0.2624 H         1 <0>         0.1564
     43 H16        11.4998   -2.0959   -2.2244 H         1 <0>         0.1551
@<TRIPOS>BOND
     1    1    6 ar
     2    1    2 ar
     3    1   28 1
     4    2    3 ar
     5    2   29 1
     6    3    4 ar
     7    3   30 1
     8    4   27 1
     9    4    5 ar
    10    5    6 ar
    11    5    7 1
    12    6   31 1
    13    7    8 1
    14    7   32 1
    15    8    9 2
    16    8   27 1
    17    9   10 1
    18    9   12 1
    19   10   11 3
    20   12   17 ar
    21   12   13 ar
    22   13   14 ar
    23   13   33 1
    24   14   15 ar
    25   14   34 1
    26   15   16 ar
    27   16   17 ar
    28   16   18 1
    29   18   19 1
    30   18   35 1
    31   19   20 1
    32   19   36 1
    33   19   37 1
    34   20   21 1
    35   20   38 1
    36   20   39 1
    37   21   26 ar
    38   21   22 ar
    39   22   23 ar
    40   22   40 1
    41   23   24 ar
    42   23   41 1
    43   24   25 ar
    44   24   42 1
    45   25   26 ar
    46   26   43 1
@<TRIPOS>MOLECULE
ZINC03938688
   39    41     0     0     0
SMALL
USER_CHARGES

@<TRIPOS>ATOM
      1 C1         -0.0095    1.3826    0.0704 C.ar      1 <0>        -0.0343
      2 C2          0.5587    1.0580   -1.1482 C.ar      1 <0>        -0.1609
      3 C3          1.7655    0.3862   -1.1955 C.ar      1 <0>         0.1753
      4 C4          2.4129    0.0342   -0.0053 C.ar      1 <0>        -0.1954
      5 C5          1.8304    0.3669    1.2233 C.ar      1 <0>         0.1741
      6 C6          0.6231    1.0388    1.2514 C.ar      1 <0>        -0.1610
      7 F1          2.4463    0.0317    2.3781 F         1 <0>        -0.1212
      8 C7          3.6999   -0.6827   -0.0456 C.2       1 <0>         0.6210
      9 O1          4.7383   -0.0615   -0.1600 O.2       1 <0>        -0.4669
     10 N1          3.7255   -2.0272    0.0446 N.am      1 <0>        -0.3962
     11 C8          4.8314   -2.8210    0.1249 C.2       1 <0>         0.5948
     12 N2          4.4249   -4.0694    0.1979 N.2       1 <0>        -0.5873
     13 C9          3.0869   -4.1118    0.1675 C.2       1 <0>         0.5191
     14 N3          2.6183   -2.8904    0.0808 N.2       1 <0>        -0.3480
     15 N4          2.3148   -5.2702    0.2247 N.pl3     1 <0>        -0.6226
     16 C10         2.9267   -6.5079    0.4407 C.ar      1 <0>         0.2365
     17 C11         4.1432   -6.5760    1.1080 C.ar      1 <0>        -0.1584
     18 C12         4.7450   -7.8008    1.3202 C.ar      1 <0>         0.0098
     19 C13         4.1379   -8.9586    0.8692 C.ar      1 <0>        -0.7033
     20 C14         2.9269   -8.8944    0.2046 C.ar      1 <0>         0.0112
     21 C15         2.3170   -7.6734   -0.0063 C.ar      1 <0>        -0.1777
     22 S1          4.9094  -10.5191    1.1415 S.o2      1 <0>         2.7034
     23 O2          4.4084  -11.3993    0.1448 O.2       1 <0>        -0.9656
     24 O3          6.2977  -10.2630    1.3036 O.2       1 <0>        -0.9650
     25 N5          4.3605  -11.0895    2.5960 N.pl3     1 <0>        -1.2510
     26 N6          6.1422   -2.3912    0.1281 N.pl3     1 <0>        -0.7911
     27 F2          2.3185    0.0697   -2.3868 F         1 <0>        -0.1201
     28 H1         -0.9506    1.9116    0.0998 H         1 <0>         0.1546
     29 H2          0.0576    1.3300   -2.0654 H         1 <0>         0.1549
     30 H3          0.1721    1.2963    2.1984 H         1 <0>         0.1546
     31 H4          1.3525   -5.2176    0.1147 H         1 <0>         0.4325
     32 H5          4.6180   -5.6722    1.4601 H         1 <0>         0.1556
     33 H6          5.6909   -7.8544    1.8385 H         1 <0>         0.1456
     34 H7          2.4556   -9.8005   -0.1466 H         1 <0>         0.1475
     35 H8          1.3691   -7.6243   -0.5215 H         1 <0>         0.1387
     36 H9          3.7284  -10.5673    3.1145 H         1 <0>         0.4165
     37 H10         4.6709  -11.9458    2.9296 H         1 <0>         0.4206
     38 H11         6.3422   -1.4439    0.0694 H         1 <0>         0.4292
     39 H12         6.8640   -3.0364    0.1890 H         1 <0>         0.4303
@<TRIPOS>BOND
     1    1    6 ar
     2    1    2 ar
     3    1   28 1
     4    2    3 ar
     5    2   29 1
     6    3    4 ar
     7    3   27 1
     8    4    5 ar
     9    4    8 1
    10    5    6 ar
    11    5    7 1
    12    6   30 1
    13    8    9 2
    14    8   10 am
    15   10   14 1
    16   10   11 1
    17   11   12 2
    18   11   26 1
    19   12   13 1
    20   13   14 2
    21   13   15 1
    22   15   16 1
    23   15   31 1
    24   16   21 ar
    25   16   17 ar
    26   17   18 ar
    27   17   32 1
    28   18   19 ar
    29   18   33 1
    30   19   20 ar
    31   19   22 1
    32   20   21 ar
    33   20   34 1
    34   21   35 1
    35   22   23 2
    36   22   24 2
    37   22   25 1
    38   25   36 1
    39   25   37 1
    40   26   38 1
    41   26   39 1
@<TRIPOS>MOLECULE
ZINC14959957
   28    28     0     0     0
SMALL
USER_CHARGES

@<TRIPOS>ATOM
      1 C1         -0.0161    1.5257    0.0111 C.3       1 <0>        -0.1556
      2 C2          0.0042   -0.0041    0.0026 C.3       1 <0>         0.0690
      3 O1          0.6746   -0.4651   -1.1722 O.3       1 <0>        -0.2969
      4 C3          0.7799   -1.8060   -1.3340 C.ar      1 <0>         0.4420
      5 C4          1.4321   -2.3212   -2.4641 C.ar      1 <0>        -0.2149
      6 C5          1.5306   -3.7202   -2.6131 C.ar      1 <0>         0.3538
      7 C6          0.9735   -4.5277   -1.6275 C.ar      1 <0>        -0.3261
      8 C7          0.3453   -3.9373   -0.5407 C.ar      1 <0>         0.4628
      9 N1          0.2721   -2.6178   -0.4235 N.ar      1 <0>        -0.5658
     10 N2         -0.2127   -4.7429    0.4466 N.am      1 <0>        -0.6591
     11 C8         -0.7348   -4.1846    1.5566 C.2       1 <0>         0.5019
     12 O2         -0.8021   -2.9777    1.6542 O.2       1 <0>        -0.4701
     13 C9         -1.2351   -5.0602    2.6765 C.3       1 <0>        -0.1700
     14 N3          2.1657   -4.2758   -3.7134 N.pl3     1 <0>        -0.8427
     15 C10         1.9876   -1.4424   -3.4490 C.1       1 <0>         0.2725
     16 N4          2.4282   -0.7453   -4.2302 N.1       1 <0>        -0.4274
     17 H1          1.0066    1.9027    0.0048 H         1 <0>         0.0644
     18 H2         -0.5419    1.8870   -0.8727 H         1 <0>         0.0643
     19 H3         -0.5275    1.8774    0.9071 H         1 <0>         0.0818
     20 H4          0.5300   -0.3654    0.8864 H         1 <0>         0.0745
     21 H5         -1.0185   -0.3811    0.0088 H         1 <0>         0.0738
     22 H6          1.0290   -5.6033   -1.7075 H         1 <0>         0.1465
     23 H7         -0.2261   -5.7065    0.3361 H         1 <0>         0.4221
     24 H8         -1.0930   -6.1075    2.4102 H         1 <0>         0.0789
     25 H9         -0.6790   -4.8382    3.5874 H         1 <0>         0.1007
     26 H10        -2.2952   -4.8680    2.8422 H         1 <0>         0.1003
     27 H11         2.5495   -3.7005   -4.3936 H         1 <0>         0.4074
     28 H12         2.2260   -5.2397   -3.8030 H         1 <0>         0.4119
@<TRIPOS>BOND
     1    1    2 1
     2    1   17 1
     3    1   18 1
     4    1   19 1
     5    2    3 1
     6    2   20 1
     7    2   21 1
     8    3    4 1
     9    4    9 ar
    10    4    5 ar
    11    5    6 ar
    12    5   15 1
    13    6    7 ar
    14    6   14 1
    15    7    8 ar
    16    7   22 1
    17    8    9 ar
    18    8   10 1
    19   10   11 am
    20   10   23 1
    21   11   12 2
    22   11   13 1
    23   13   24 1
    24   13   25 1
    25   13   26 1
    26   14   27 1
    27   14   28 1
    28   15   16 3
@<TRIPOS>MOLECULE
ZINC00343456
   25    25     0     0     0
SMALL
USER_CHARGES
N-(6-ethoxy-2-pyridyl)acetamide
@<TRIPOS>ATOM
      1 C1         -0.1348    5.4956    0.0335 C.3       1 <0>        -0.1537
      2 C2         -0.2639    3.9711    0.0267 C.3       1 <0>         0.0699
      3 O1          1.0384    3.3829    0.0135 O.3       1 <0>        -0.3055
      4 C3          1.1021    2.0277    0.0061 C.ar      1 <0>         0.3539
      5 C4          2.3395    1.3985   -0.0072 C.ar      1 <0>        -0.2230
      6 C5          2.3953    0.0142   -0.0152 C.ar      1 <0>        -0.0135
      7 C6          1.2060   -0.6966   -0.0095 C.ar      1 <0>        -0.2479
      8 C7          0.0022   -0.0042    0.0039 C.ar      1 <0>         0.3976
      9 N1         -0.0156    1.3201    0.0112 N.ar      1 <0>        -0.5344
     10 N2         -1.1997   -0.7103    0.0102 N.am      1 <0>        -0.6631
     11 C8         -2.3688   -0.0498    0.1266 C.2       1 <0>         0.5009
     12 O2         -2.3820    1.1629    0.1330 O.2       1 <0>        -0.4785
     13 C9         -3.6594   -0.8181    0.2489 C.3       1 <0>        -0.1694
     14 H1          0.4147    5.8098    0.9208 H         1 <0>         0.0640
     15 H2          0.4008    5.8189   -0.8591 H         1 <0>         0.0639
     16 H3         -1.1282    5.9443    0.0435 H         1 <0>         0.0791
     17 H4         -0.8135    3.6569   -0.8606 H         1 <0>         0.0675
     18 H5         -0.7995    3.6478    0.9193 H         1 <0>         0.0683
     19 H6          3.2486    1.9817   -0.0110 H         1 <0>         0.1426
     20 H7          3.3451   -0.4996   -0.0260 H         1 <0>         0.1462
     21 H8          1.2150   -1.7766   -0.0158 H         1 <0>         0.1386
     22 H9         -1.1947   -1.6771   -0.0693 H         1 <0>         0.4199
     23 H10        -3.4495   -1.8874    0.2239 H         1 <0>         0.0782
     24 H11        -4.1450   -0.5651    1.1913 H         1 <0>         0.0996
     25 H12        -4.3173   -0.5576   -0.5803 H         1 <0>         0.0992
@<TRIPOS>BOND
     1    1    2 1
     2    1   14 1
     3    1   15 1
     4    1   16 1
     5    2    3 1
     6    2   17 1
     7    2   18 1
     8    3    4 1
     9    4    9 ar
    10    4    5 ar
    11    5    6 ar
    12    5   19 1
    13    6    7 ar
    14    6   20 1
    15    7    8 ar
    16    7   21 1
    17    8    9 ar
    18    8   10 1
    19   10   11 am
    20   10   22 1
    21   11   12 2
    22   11   13 1
    23   13   23 1
    24   13   24 1
    25   13   25 1
@<TRIPOS>MOLECULE
ZINC14959960
   46    47     0     0     0
SMALL
USER_CHARGES

@<TRIPOS>ATOM
      1 C1          2.8824   -6.4072    4.7168 C.3       1 <0>        -0.1552
      2 C2          2.1528   -5.8740    3.4821 C.3       1 <0>         0.0698
      3 O1          2.1422   -4.4455    3.5150 O.3       1 <0>        -0.2974
      4 C3          1.5303   -3.8111    2.4862 C.ar      1 <0>         0.4422
      5 C4          1.4912   -2.4091    2.4579 C.ar      1 <0>        -0.2167
      6 C5          0.8492   -1.7688    1.3776 C.ar      1 <0>         0.3538
      7 C6          0.2819   -2.5616    0.3859 C.ar      1 <0>        -0.3271
      8 C7          0.3649   -3.9424    0.4899 C.ar      1 <0>         0.4673
      9 N1          0.9799   -4.5179    1.5150 N.ar      1 <0>        -0.5640
     10 N2         -0.2018   -4.7376   -0.5010 N.am      1 <0>        -0.6596
     11 C8         -0.0402   -6.0752   -0.4661 C.2       1 <0>         0.5088
     12 O2          0.5194   -6.5939    0.4765 O.2       1 <0>        -0.4507
     13 C9         -0.5549   -6.9261   -1.5983 C.3       1 <0>        -0.0901
     14 C10        -0.2496   -8.3748   -1.3169 C.ar      1 <0>        -0.0653
     15 C11         0.8944   -8.9525   -1.8328 C.ar      1 <0>        -0.0983
     16 C12         1.1756  -10.2855   -1.5735 C.ar      1 <0>         0.0937
     17 C13         0.3082  -11.0388   -0.7960 C.ar      1 <0>        -0.1638
     18 C14        -0.8354  -10.4613   -0.2803 C.ar      1 <0>        -0.1672
     19 C15        -1.1140   -9.1265   -0.5354 C.ar      1 <0>         0.1111
     20 O3         -2.2372   -8.5563   -0.0229 O.3       1 <0>        -0.3149
     21 C16        -3.0823   -9.3894    0.7732 C.3       1 <0>         0.0284
     22 O4          2.3014  -10.8542   -2.0817 O.3       1 <0>        -0.3174
     23 C17         2.5280  -12.2313   -1.7744 C.3       1 <0>         0.0276
     24 N3          0.7849   -0.3856    1.3065 N.pl3     1 <0>        -0.8432
     25 C18         2.0920   -1.6418    3.5072 C.1       1 <0>         0.2733
     26 N4          2.5686   -1.0332    4.3395 N.1       1 <0>        -0.4293
     27 H1          2.3690   -6.0683    5.6167 H         1 <0>         0.0639
     28 H2          2.8905   -7.4969    4.6917 H         1 <0>         0.0806
     29 H3          3.9073   -6.0362    4.7217 H         1 <0>         0.0643
     30 H4          2.6662   -6.2129    2.5823 H         1 <0>         0.0746
     31 H5          1.1279   -6.2450    3.4773 H         1 <0>         0.0734
     32 H6         -0.2184   -2.1070   -0.4564 H         1 <0>         0.1464
     33 H7         -0.7132   -4.3294   -1.2170 H         1 <0>         0.4216
     34 H8         -1.6327   -6.7935   -1.6917 H         1 <0>         0.1130
     35 H9         -0.0701   -6.6265   -2.5275 H         1 <0>         0.1091
     36 H10         1.5696   -8.3661   -2.4384 H         1 <0>         0.1371
     37 H11         0.5270  -12.0770   -0.5944 H         1 <0>         0.1309
     38 H12        -1.5111  -11.0479    0.3244 H         1 <0>         0.1316
     39 H13        -3.4285  -10.2326    0.1754 H         1 <0>         0.0547
     40 H14        -2.5230   -9.7587    1.6327 H         1 <0>         0.0549
     41 H15        -3.9401   -8.8124    1.1185 H         1 <0>         0.0997
     42 H16         3.4575  -12.5592   -2.2399 H         1 <0>         0.1005
     43 H17         2.5992  -12.3555   -0.6939 H         1 <0>         0.0547
     44 H18         1.7002  -12.8295   -2.1552 H         1 <0>         0.0545
     45 H19         1.1847    0.1551    2.0056 H         1 <0>         0.4070
     46 H20         0.3401    0.0415    0.5577 H         1 <0>         0.4117
@<TRIPOS>BOND
     1    1    2 1
     2    1   27 1
     3    1   28 1
     4    1   29 1
     5    2    3 1
     6    2   30 1
     7    2   31 1
     8    3    4 1
     9    4    9 ar
    10    4    5 ar
    11    5    6 ar
    12    5   25 1
    13    6    7 ar
    14    6   24 1
    15    7    8 ar
    16    7   32 1
    17    8    9 ar
    18    8   10 1
    19   10   11 am
    20   10   33 1
    21   11   12 2
    22   11   13 1
    23   13   14 1
    24   13   34 1
    25   13   35 1
    26   14   19 ar
    27   14   15 ar
    28   15   16 ar
    29   15   36 1
    30   16   17 ar
    31   16   22 1
    32   17   18 ar
    33   17   37 1
    34   18   19 ar
    35   18   38 1
    36   19   20 1
    37   20   21 1
    38   21   39 1
    39   21   40 1
    40   21   41 1
    41   22   23 1
    42   23   42 1
    43   23   43 1
    44   23   44 1
    45   24   45 1
    46   24   46 1
    47   25   26 3
@<TRIPOS>MOLECULE
ZINC14960076
   52    53     0     0     0
SMALL
USER_CHARGES

@<TRIPOS>ATOM
      1 C1         -5.4208   -6.4939    0.0106 C.3       1 <0>        -0.1557
      2 C2         -3.9952   -5.9383    0.0069 C.3       1 <0>         0.0698
      3 O1         -4.0406   -4.5100    0.0098 O.3       1 <0>        -0.2967
      4 C3         -2.8538   -3.8570    0.0071 C.ar      1 <0>         0.4427
      5 C4         -2.8315   -2.4543    0.0154 C.ar      1 <0>        -0.2150
      6 C5         -1.5851   -1.7943    0.0124 C.ar      1 <0>         0.3541
      7 C6         -0.4304   -2.5691    0.0013 C.ar      1 <0>        -0.3262
      8 C7         -0.5404   -3.9520   -0.0065 C.ar      1 <0>         0.4657
      9 N1         -1.7265   -4.5463    0.0020 N.ar      1 <0>        -0.5647
     10 N2          0.6133   -4.7292   -0.0176 N.am      1 <0>        -0.6585
     11 C8          0.5231   -6.0705    0.0781 C.2       1 <0>         0.5096
     12 O2         -0.5647   -6.6065    0.0809 O.2       1 <0>        -0.4490
     13 C9          1.7742   -6.9043    0.1815 C.3       1 <0>        -0.1005
     14 C10         1.4005   -8.3612    0.2762 C.ar      1 <0>        -0.0097
     15 C11         1.2846   -8.9656    1.5131 C.ar      1 <0>        -0.1732
     16 C12         0.9402  -10.3061    1.6002 C.ar      1 <0>         0.1867
     17 C13         0.7121  -11.0401    0.4454 C.ar      1 <0>        -0.6495
     18 C14         0.8280  -10.4359   -0.7910 C.ar      1 <0>        -0.0768
     19 C15         1.1673   -9.0936   -0.8780 C.ar      1 <0>         0.0953
     20 O3          1.2759   -8.4973   -2.0953 O.3       1 <0>        -0.3118
     21 C16         1.0218   -9.3117   -3.2417 C.3       1 <0>         0.0217
     22 S1          0.2752  -12.7435    0.5561 S.o2      1 <0>         2.5043
     23 O4         -0.8080  -12.7810    1.4752 O.2       1 <0>        -0.9229
     24 O5          0.0973  -13.1605   -0.7906 O.2       1 <0>        -0.9428
     25 C17         1.7316  -13.5527    1.2736 C.3       1 <0>        -0.6470
     26 O6          0.8266  -10.9012    2.8177 O.3       1 <0>        -0.3136
     27 C18         1.0761  -10.0856    3.9642 C.3       1 <0>         0.0242
     28 N3         -1.5129   -0.4096    0.0200 N.pl3     1 <0>        -0.8428
     29 C19        -4.0524   -1.7060    0.0263 C.1       1 <0>         0.2721
     30 N4         -5.0209   -1.1124    0.0350 N.1       1 <0>        -0.4271
     31 H1         -5.3861   -7.5834    0.0084 H         1 <0>         0.0821
     32 H2         -5.9429   -6.1488    0.9030 H         1 <0>         0.0644
     33 H3         -5.9488   -6.1454   -0.8769 H         1 <0>         0.0644
     34 H4         -3.4671   -6.2868    0.8945 H         1 <0>         0.0741
     35 H5         -3.4730   -6.2834   -0.8854 H         1 <0>         0.0737
     36 H6          0.5420   -2.0992   -0.0017 H         1 <0>         0.1465
     37 H7          1.4826   -4.3058   -0.0943 H         1 <0>         0.4220
     38 H8          2.3916   -6.7443   -0.7024 H         1 <0>         0.1190
     39 H9          2.3319   -6.6137    1.0718 H         1 <0>         0.1121
     40 H10         1.4625   -8.3942    2.4121 H         1 <0>         0.1445
     41 H11         0.6511  -11.0075   -1.6901 H         1 <0>         0.1580
     42 H12         1.7256  -10.1438   -3.2594 H         1 <0>         0.0597
     43 H13         0.0036   -9.6979   -3.1945 H         1 <0>         0.0602
     44 H14         1.1424   -8.7145   -4.1455 H         1 <0>         0.1043
     45 H15         1.9385  -13.1250    2.2545 H         1 <0>         0.1355
     46 H16         1.5402  -14.6209    1.3760 H         1 <0>         0.1332
     47 H17         2.5911  -13.3985    0.6213 H         1 <0>         0.1298
     48 H18         0.9517  -10.6818    4.8682 H         1 <0>         0.1097
     49 H19         2.0945   -9.6995    3.9208 H         1 <0>         0.0613
     50 H20         0.3723   -9.2533    3.9782 H         1 <0>         0.0633
     51 H21        -2.3266    0.1184    0.0274 H         1 <0>         0.4074
     52 H22        -0.6488    0.0310    0.0178 H         1 <0>         0.4118
@<TRIPOS>BOND
     1    1    2 1
     2    1   31 1
     3    1   32 1
     4    1   33 1
     5    2    3 1
     6    2   34 1
     7    2   35 1
     8    3    4 1
     9    4    9 ar
    10    4    5 ar
    11    5    6 ar
    12    5   29 1
    13    6    7 ar
    14    6   28 1
    15    7    8 ar
    16    7   36 1
    17    8    9 ar
    18    8   10 1
    19   10   11 am
    20   10   37 1
    21   11   12 2
    22   11   13 1
    23   13   14 1
    24   13   38 1
    25   13   39 1
    26   14   19 ar
    27   14   15 ar
    28   15   16 ar
    29   15   40 1
    30   16   17 ar
    31   16   26 1
    32   17   18 ar
    33   17   22 1
    34   18   19 ar
    35   18   41 1
    36   19   20 1
    37   20   21 1
    38   21   42 1
    39   21   43 1
    40   21   44 1
    41   22   23 2
    42   22   24 2
    43   22   25 1
    44   25   45 1
    45   25   46 1
    46   25   47 1
    47   26   27 1
    48   27   48 1
    49   27   49 1
    50   27   50 1
    51   28   51 1
    52   28   52 1
    53   29   30 3
@<TRIPOS>MOLECULE
ZINC34802946
   67    71     0     0     0
SMALL
USER_CHARGES

@<TRIPOS>ATOM
      1 C1         -0.0483    1.5024    0.0098 C.3       1 <0>        -0.1268
      2 C2         -0.0195   -0.0043    0.0016 C.ar      1 <0>        -0.0386
      3 C3         -0.0178   -0.6868   -1.1996 C.ar      1 <0>        -0.1235
      4 C4          0.0085   -2.0667   -1.2158 C.ar      1 <0>        -0.0785
      5 C5          0.0330   -2.7811   -0.0158 C.ar      1 <0>        -0.1428
      6 C6          0.0314   -2.0969    1.1984 C.ar      1 <0>        -0.0380
      7 C7          0.0111   -0.7058    1.2063 C.ar      1 <0>        -0.0517
      8 C8          0.0158    0.0300    2.4946 C.ar      1 <0>        -0.0766
      9 C9          0.9293    1.0770    2.6951 C.ar      1 <0>        -0.0509
     10 C10         0.9551    1.7681    3.8654 C.ar      1 <0>        -0.1204
     11 C11         0.0589    1.4368    4.8939 C.ar      1 <0>         0.2183
     12 C12        -0.8687    0.3799    4.7012 C.ar      1 <0>        -0.2144
     13 C13        -0.8839   -0.3174    3.4865 C.ar      1 <0>        -0.0354
     14 C14        -1.7564    0.0690    5.7490 C.ar      1 <0>         0.2451
     15 N1         -1.6869    0.7718    6.8601 N.ar      1 <0>        -0.5576
     16 C15        -0.8035    1.7573    7.0067 C.ar      1 <0>         0.5740
     17 N2          0.0519    2.0930    6.0606 N.ar      1 <0>        -0.5737
     18 N3         -0.7822    2.4573    8.1995 N.pl3     1 <0>        -0.6964
     19 C16        -1.7195    2.1088    9.2701 C.3       1 <0>         0.1398
     20 C17        -1.4872    3.0285   10.4706 C.3       1 <0>         0.0428
     21 N4         -2.4271    2.6791   11.5442 N.3       1 <0>        -0.5321
     22 C18        -3.8120    2.9741   11.1487 C.3       1 <0>         0.0117
     23 C19        -4.7604    2.5406   12.2697 C.3       1 <0>         0.0630
     24 O1         -4.3910    3.2025   13.4824 O.3       1 <0>        -0.3850
     25 C20        -3.0483    2.9369   13.8974 C.3       1 <0>         0.0630
     26 C21        -2.0826    3.3743   12.7929 C.3       1 <0>         0.0183
     27 C22         0.0602   -4.2590   -0.0337 C.2       1 <0>         0.5622
     28 O2          0.0816   -4.8792    1.0117 O.2       1 <0>        -0.5109
     29 N5          0.0613   -4.9189   -1.2088 N.am      1 <0>        -0.6699
     30 C23         0.1847   -6.3117   -1.2285 C.ar      1 <0>         0.1443
     31 C24         0.8894   -6.9337   -2.2514 C.ar      1 <0>        -0.1118
     32 C25         1.0099   -8.3092   -2.2677 C.ar      1 <0>        -0.0994
     33 C26         0.4298   -9.0675   -1.2671 C.ar      1 <0>        -0.0865
     34 C27        -0.2722   -8.4516   -0.2475 C.ar      1 <0>        -0.1641
     35 C28        -0.3920   -7.0758   -0.2225 C.ar      1 <0>        -0.0722
     36 C29        -0.9025   -9.2820    0.8407 C.3       1 <0>         0.5092
     37 F1         -0.6426  -10.6360    0.6040 F         1 <0>        -0.1761
     38 F2         -0.3653   -8.9135    2.0788 F         1 <0>        -0.1725
     39 F3         -2.2849   -9.0671    0.8497 F         1 <0>        -0.1757
     40 H1          0.9721    1.8854   -0.0029 H         1 <0>         0.0793
     41 H2         -0.5817    1.8604   -0.8708 H         1 <0>         0.0726
     42 H3         -0.5562    1.8513    0.9089 H         1 <0>         0.0756
     43 H4         -0.0375   -0.1384   -2.1297 H         1 <0>         0.1346
     44 H5          0.0097   -2.5949   -2.1579 H         1 <0>         0.1271
     45 H6          0.0504   -2.6442    2.1292 H         1 <0>         0.1408
     46 H7          1.6219    1.3369    1.9082 H         1 <0>         0.1341
     47 H8          1.6644    2.5707    4.0039 H         1 <0>         0.1396
     48 H9         -1.5883   -1.1204    3.3272 H         1 <0>         0.1367
     49 H10        -2.4780   -0.7275    5.6434 H         1 <0>         0.1790
     50 H11        -0.1467    3.1789    8.3270 H         1 <0>         0.4144
     51 H12        -2.7417    2.2301    8.9119 H         1 <0>         0.0688
     52 H13        -1.5600    1.0730    9.5698 H         1 <0>         0.0789
     53 H14        -0.4650    2.9072   10.8288 H         1 <0>         0.0845
     54 H15        -1.6467    4.0643   10.1709 H         1 <0>         0.0436
     55 H16        -3.9204    4.0444   10.9738 H         1 <0>         0.0453
     56 H17        -4.0538    2.4291   10.2363 H         1 <0>         0.0911
     57 H18        -5.7831    2.8094   12.0054 H         1 <0>         0.1000
     58 H19        -4.6911    1.4617   12.4082 H         1 <0>         0.0622
     59 H20        -2.8329    3.4922   14.8102 H         1 <0>         0.1003
     60 H21        -2.9293    1.8694   14.0832 H         1 <0>         0.0619
     61 H22        -1.0621    3.1215   13.0806 H         1 <0>         0.0888
     62 H23        -2.1634    4.4511   12.6442 H         1 <0>         0.0455
     63 H24        -0.0236   -4.4277   -2.0409 H         1 <0>         0.4141
     64 H25         1.3423   -6.3421   -3.0333 H         1 <0>         0.1370
     65 H26         1.5573   -8.7933   -3.0629 H         1 <0>         0.1416
     66 H27         0.5252  -10.1432   -1.2823 H         1 <0>         0.1414
     67 H28        -0.9370   -6.5950    0.5764 H         1 <0>         0.1510
@<TRIPOS>BOND
     1    1    2 1
     2    1   40 1
     3    1   41 1
     4    1   42 1
     5    2    7 ar
     6    2    3 ar
     7    3    4 ar
     8    3   43 1
     9    4    5 ar
    10    4   44 1
    11    5    6 ar
    12    5   27 1
    13    6    7 ar
    14    6   45 1
    15    7    8 1
    16    8   13 ar
    17    8    9 ar
    18    9   10 ar
    19    9   46 1
    20   10   11 ar
    21   10   47 1
    22   11   17 ar
    23   11   12 ar
    24   12   13 ar
    25   12   14 ar
    26   13   48 1
    27   14   15 ar
    28   14   49 1
    29   15   16 ar
    30   16   17 ar
    31   16   18 1
    32   18   19 1
    33   18   50 1
    34   19   20 1
    35   19   51 1
    36   19   52 1
    37   20   21 1
    38   20   53 1
    39   20   54 1
    40   21   26 1
    41   21   22 1
    42   22   23 1
    43   22   55 1
    44   22   56 1
    45   23   24 1
    46   23   57 1
    47   23   58 1
    48   24   25 1
    49   25   26 1
    50   25   59 1
    51   25   60 1
    52   26   61 1
    53   26   62 1
    54   27   28 2
    55   27   29 am
    56   29   30 1
    57   29   63 1
    58   30   35 ar
    59   30   31 ar
    60   31   32 ar
    61   31   64 1
    62   32   33 ar
    63   32   65 1
    64   33   34 ar
    65   33   66 1
    66   34   35 ar
    67   34   36 1
    68   35   67 1
    69   36   37 1
    70   36   38 1
    71   36   39 1
@<TRIPOS>MOLECULE
ZINC34802946
   68    72     0     0     0
SMALL
USER_CHARGES

@<TRIPOS>ATOM
      1 C1         -0.0483    1.5024    0.0098 C.3       1 <0>        -0.1276
      2 C2         -0.0195   -0.0043    0.0016 C.ar      1 <0>        -0.0366
      3 C3         -0.0178   -0.6868   -1.1996 C.ar      1 <0>        -0.1221
      4 C4          0.0085   -2.0667   -1.2158 C.ar      1 <0>        -0.0731
      5 C5          0.0330   -2.7811   -0.0158 C.ar      1 <0>        -0.1410
      6 C6          0.0314   -2.0969    1.1984 C.ar      1 <0>        -0.0362
      7 C7          0.0111   -0.7058    1.2063 C.ar      1 <0>        -0.0635
      8 C8          0.0158    0.0300    2.4946 C.ar      1 <0>        -0.0553
      9 C9          0.9293    1.0770    2.6951 C.ar      1 <0>        -0.0467
     10 C10         0.9551    1.7681    3.8654 C.ar      1 <0>        -0.1170
     11 C11         0.0589    1.4368    4.8939 C.ar      1 <0>         0.2111
     12 C12        -0.8687    0.3799    4.7012 C.ar      1 <0>        -0.2001
     13 C13        -0.8839   -0.3174    3.4865 C.ar      1 <0>        -0.0453
     14 C14        -1.7564    0.0690    5.7490 C.ar      1 <0>         0.2479
     15 N1         -1.6869    0.7718    6.8601 N.ar      1 <0>        -0.5684
     16 C15        -0.8035    1.7573    7.0067 C.ar      1 <0>         0.5623
     17 N2          0.0519    2.0930    6.0606 N.ar      1 <0>        -0.5576
     18 N3         -0.7822    2.4573    8.1995 N.pl3     1 <0>        -0.7040
     19 C16        -1.7195    2.1088    9.2701 C.3       1 <0>         0.1188
     20 C17        -1.4872    3.0285   10.4706 C.3       1 <0>        -0.0230
     21 N4         -2.4271    2.6791   11.5442 N.4       1 <0>        -0.3805
     22 C18        -3.8007    2.9572   11.1027 C.3       1 <0>        -0.0511
     23 C19        -4.7779    2.5921   12.2228 C.3       1 <0>         0.0367
     24 O1         -4.4442    3.3332   13.3998 O.3       1 <0>        -0.3561
     25 C20        -3.1064    3.1140   13.8559 C.3       1 <0>         0.0359
     26 C21        -2.1261    3.4800   12.7388 C.3       1 <0>        -0.0426
     27 C22         0.0602   -4.2590   -0.0337 C.2       1 <0>         0.5618
     28 O2          0.0816   -4.8792    1.0117 O.2       1 <0>        -0.5123
     29 N5          0.0613   -4.9189   -1.2088 N.am      1 <0>        -0.6683
     30 C23         0.1847   -6.3117   -1.2285 C.ar      1 <0>         0.1414
     31 C24         0.8894   -6.9337   -2.2514 C.ar      1 <0>        -0.1102
     32 C25         1.0099   -8.3092   -2.2677 C.ar      1 <0>        -0.0984
     33 C26         0.4298   -9.0675   -1.2671 C.ar      1 <0>        -0.0844
     34 C27        -0.2722   -8.4516   -0.2475 C.ar      1 <0>        -0.1647
     35 C28        -0.3920   -7.0758   -0.2225 C.ar      1 <0>        -0.0721
     36 C29        -0.9025   -9.2820    0.8407 C.3       1 <0>         0.5095
     37 F1         -0.6426  -10.6360    0.6040 F         1 <0>        -0.1749
     38 F2         -0.3653   -8.9135    2.0788 F         1 <0>        -0.1737
     39 F3         -2.2849   -9.0671    0.8497 F         1 <0>        -0.1759
     40 H1          0.9721    1.8854   -0.0029 H         1 <0>         0.0806
     41 H2         -0.5817    1.8604   -0.8708 H         1 <0>         0.0754
     42 H3         -0.5562    1.8513    0.9089 H         1 <0>         0.0730
     43 H4         -0.0375   -0.1384   -2.1297 H         1 <0>         0.1371
     44 H5          0.0097   -2.5949   -2.1579 H         1 <0>         0.1298
     45 H6          0.0504   -2.6442    2.1292 H         1 <0>         0.1405
     46 H7          1.6219    1.3369    1.9082 H         1 <0>         0.1398
     47 H8          1.6644    2.5707    4.0039 H         1 <0>         0.1435
     48 H9         -1.5883   -1.1204    3.3272 H         1 <0>         0.1410
     49 H10        -2.4780   -0.7275    5.6434 H         1 <0>         0.1829
     50 H11        -0.1467    3.1789    8.3270 H         1 <0>         0.4205
     51 H12        -2.7417    2.2301    8.9119 H         1 <0>         0.0871
     52 H13        -1.5600    1.0730    9.5698 H         1 <0>         0.0876
     53 H14        -0.4650    2.9072   10.8288 H         1 <0>         0.1408
     54 H15        -1.6467    4.0643   10.1709 H         1 <0>         0.1388
     55 H16        -3.8989    4.0165   10.8654 H         1 <0>         0.1412
     56 H17        -4.0250    2.3635   10.2165 H         1 <0>         0.1457
     57 H18        -5.7940    2.8378   11.9139 H         1 <0>         0.1434
     58 H19        -4.7086    1.5248   12.4329 H         1 <0>         0.0831
     59 H20        -2.9127    3.7373   14.7289 H         1 <0>         0.1435
     60 H21        -2.9799    2.0645   14.1218 H         1 <0>         0.0826
     61 H22        -1.1073    3.2744   13.0672 H         1 <0>         0.1445
     62 H23        -2.2249    4.5391   12.5009 H         1 <0>         0.1407
     63 H24        -0.0236   -4.4277   -2.0409 H         1 <0>         0.4145
     64 H25         1.3423   -6.3421   -3.0333 H         1 <0>         0.1377
     65 H26         1.5573   -8.7933   -3.0629 H         1 <0>         0.1430
     66 H27         0.5252  -10.1432   -1.2823 H         1 <0>         0.1425
     67 H28        -0.9370   -6.5950    0.5764 H         1 <0>         0.1500
     68 H29        -2.3364    1.6987   11.7648 H         1 <0>         0.4260
@<TRIPOS>BOND
     1    1    2 1
     2    1   40 1
     3    1   41 1
     4    1   42 1
     5    2    7 ar
     6    2    3 ar
     7    3    4 ar
     8    3   43 1
     9    4    5 ar
    10    4   44 1
    11    5    6 ar
    12    5   27 1
    13    6    7 ar
    14    6   45 1
    15    7    8 1
    16    8   13 ar
    17    8    9 ar
    18    9   10 ar
    19    9   46 1
    20   10   11 ar
    21   10   47 1
    22   11   17 ar
    23   11   12 ar
    24   12   13 ar
    25   12   14 ar
    26   13   48 1
    27   14   15 ar
    28   14   49 1
    29   15   16 ar
    30   16   17 ar
    31   16   18 1
    32   18   19 1
    33   18   50 1
    34   19   20 1
    35   19   51 1
    36   19   52 1
    37   20   21 1
    38   20   53 1
    39   20   54 1
    40   21   26 1
    41   21   22 1
    42   21   68 1
    43   22   23 1
    44   22   55 1
    45   22   56 1
    46   23   24 1
    47   23   57 1
    48   23   58 1
    49   24   25 1
    50   25   26 1
    51   25   59 1
    52   25   60 1
    53   26   61 1
    54   26   62 1
    55   27   28 2
    56   27   29 am
    57   29   30 1
    58   29   63 1
    59   30   35 ar
    60   30   31 ar
    61   31   32 ar
    62   31   64 1
    63   32   33 ar
    64   32   65 1
    65   33   34 ar
    66   33   66 1
    67   34   35 ar
    68   34   36 1
    69   35   67 1
    70   36   37 1
    71   36   38 1
    72   36   39 1
@<TRIPOS>MOLECULE
ZINC02272106
   37    38     0     0     0
SMALL
USER_CHARGES
2-(2-butoxypyrimidin-4-yl)aminobenzoic acid
@<TRIPOS>ATOM
      1 C1         -5.0174    8.1828   -0.0456 C.3       1 <0>        -0.1509
      2 C2         -3.5965    7.6164   -0.0805 C.3       1 <0>        -0.1198
      3 C3         -3.6555    6.0881   -0.0395 C.3       1 <0>        -0.1210
      4 C4         -2.2347    5.5217   -0.0744 C.3       1 <0>         0.0789
      5 O1         -2.2898    4.0943   -0.0361 O.3       1 <0>        -0.2953
      6 C5         -1.1082    3.4324   -0.0603 C.ar      1 <0>         0.5336
      7 N1          0.0178    4.1252   -0.1171 N.ar      1 <0>        -0.6152
      8 C6          1.1932    3.5142   -0.1428 C.ar      1 <0>         0.1982
      9 C7          1.2376    2.1338   -0.1096 C.ar      1 <0>        -0.3006
     10 C8          0.0330    1.4308   -0.0498 C.ar      1 <0>         0.5143
     11 N2         -1.1097    2.1101   -0.0326 N.ar      1 <0>        -0.5833
     12 N3          0.0283    0.0443   -0.0147 N.pl3     1 <0>        -0.6337
     13 C9          1.2228   -0.6579   -0.1265 C.ar      1 <0>         0.1564
     14 C10         1.5660   -1.2653   -1.3279 C.ar      1 <0>        -0.1319
     15 C11         2.7541   -1.9581   -1.4376 C.ar      1 <0>        -0.1175
     16 C12         3.6089   -2.0624   -0.3514 C.ar      1 <0>        -0.1318
     17 C13         3.2836   -1.4715    0.8496 C.ar      1 <0>        -0.0736
     18 C14         2.0859   -0.7620    0.9758 C.ar      1 <0>        -0.1106
     19 C15         1.7319   -0.1271    2.2571 C.2       1 <0>         0.4866
     20 O2          0.6410    0.3894    2.3984 O.co2     1 <0>        -0.6127
     21 H1         -5.5137    7.8628    0.8706 H         1 <0>         0.0554
     22 H2         -4.9754    9.2716   -0.0748 H         1 <0>         0.0549
     23 H3         -5.5755    7.8174   -0.9077 H         1 <0>         0.0545
     24 H4         -3.0385    7.9817    0.7816 H         1 <0>         0.0659
     25 H5         -3.1003    7.9364   -0.9967 H         1 <0>         0.0647
     26 H6         -4.2136    5.7228   -0.9016 H         1 <0>         0.0717
     27 H7         -4.1518    5.7681    0.8767 H         1 <0>         0.0732
     28 H8         -1.6766    5.8870    0.7877 H         1 <0>         0.0676
     29 H9         -1.7384    5.8417   -0.9906 H         1 <0>         0.0660
     30 H10         2.1064    4.0889   -0.1888 H         1 <0>         0.1638
     31 H11         2.1823    1.6107   -0.1298 H         1 <0>         0.1370
     32 H12        -0.8086   -0.4354    0.0878 H         1 <0>         0.4122
     33 H13         0.9037   -1.1923   -2.1778 H         1 <0>         0.1213
     34 H14         3.0181   -2.4253   -2.3748 H         1 <0>         0.1205
     35 H15         4.5347   -2.6103   -0.4471 H         1 <0>         0.1205
     36 H16         3.9530   -1.5566    1.6928 H         1 <0>         0.1349
     37 O3          2.6178   -0.1191    3.2726 O.co2     1 <0>        -0.7541
@<TRIPOS>BOND
     1    1    2 1
     2    1   21 1
     3    1   22 1
     4    1   23 1
     5    2    3 1
     6    2   24 1
     7    2   25 1
     8    3    4 1
     9    3   26 1
    10    3   27 1
    11    4    5 1
    12    4   28 1
    13    4   29 1
    14    5    6 1
    15    6   11 ar
    16    6    7 ar
    17    7    8 ar
    18    8    9 ar
    19    8   30 1
    20    9   10 ar
    21    9   31 1
    22   10   11 ar
    23   10   12 1
    24   12   13 1
    25   12   32 1
    26   13   18 ar
    27   13   14 ar
    28   14   15 ar
    29   14   33 1
    30   15   16 ar
    31   15   34 1
    32   16   17 ar
    33   16   35 1
    34   17   18 ar
    35   17   36 1
    36   18   19 1
    37   19   20 2
    38   19   37 1
@<TRIPOS>MOLECULE
ZINC00959125
   36    38     0     0     0
SMALL
USER_CHARGES
2-(2-anilinopyrimidin-4-yl)aminobenzoic acid
@<TRIPOS>ATOM
      1 C1         -3.7282   -8.8882   -0.5109 C.ar      1 <0>        -0.1500
      2 C2         -4.7662   -8.2300    0.1229 C.ar      1 <0>        -0.1025
      3 C3         -4.7179   -6.8598    0.2888 C.ar      1 <0>        -0.1592
      4 C4         -3.6252   -6.1429   -0.1816 C.ar      1 <0>         0.1820
      5 C5         -2.5870   -6.8064   -0.8228 C.ar      1 <0>        -0.1139
      6 C6         -2.6389   -8.1775   -0.9804 C.ar      1 <0>        -0.1006
      7 N1         -3.5732   -4.7556   -0.0152 N.pl3     1 <0>        -0.6444
      8 C7         -2.3547   -4.1269    0.1815 C.ar      1 <0>         0.5874
      9 N2         -1.2611   -4.8638    0.3117 N.ar      1 <0>        -0.5986
     10 C8         -0.0781   -4.2989    0.5015 C.ar      1 <0>         0.1979
     11 C9          0.0118   -2.9213    0.5585 C.ar      1 <0>        -0.3143
     12 C10        -1.1582   -2.1714    0.4233 C.ar      1 <0>         0.5191
     13 N3         -2.3118   -2.8043    0.2353 N.ar      1 <0>        -0.6105
     14 N4         -1.1164   -0.7861    0.4787 N.pl3     1 <0>        -0.6380
     15 C11         0.1064   -0.1305    0.5639 C.ar      1 <0>         0.1577
     16 C12         0.5731    0.3202    1.7924 C.ar      1 <0>        -0.1320
     17 C13         1.7873    0.9703    1.8744 C.ar      1 <0>        -0.1185
     18 C14         2.5504    1.1788    0.7362 C.ar      1 <0>        -0.1318
     19 C15         2.1044    0.7397   -0.4909 C.ar      1 <0>        -0.0739
     20 C16         0.8765    0.0794   -0.5910 C.ar      1 <0>        -0.1090
     21 C17         0.3964   -0.3987   -1.8992 C.2       1 <0>         0.4853
     22 O1         -0.6498   -1.0122   -1.9752 O.co2     1 <0>        -0.6108
     23 H1         -3.7686   -9.9598   -0.6397 H         1 <0>         0.1166
     24 H2         -5.6154   -8.7881    0.4887 H         1 <0>         0.1197
     25 H3         -5.5291   -6.3463    0.7836 H         1 <0>         0.1202
     26 H4         -1.7382   -6.2513   -1.1940 H         1 <0>         0.1390
     27 H5         -1.8299   -8.6945   -1.4749 H         1 <0>         0.1208
     28 H6         -4.3904   -4.2335   -0.0374 H         1 <0>         0.4189
     29 H7          0.8073   -4.9084    0.6066 H         1 <0>         0.1615
     30 H8          0.9648   -2.4357    0.7082 H         1 <0>         0.1328
     31 H9         -1.9405   -0.2749    0.4580 H         1 <0>         0.4092
     32 H10        -0.0153    0.1618    2.6840 H         1 <0>         0.1205
     33 H11         2.1456    1.3187    2.8318 H         1 <0>         0.1200
     34 H12         3.4995    1.6885    0.8118 H         1 <0>         0.1201
     35 H13         2.7031    0.9049   -1.3745 H         1 <0>         0.1344
     36 O2          1.1174   -0.1555   -3.0115 O.co2     1 <0>        -0.7554
@<TRIPOS>BOND
     1    1    6 ar
     2    1    2 ar
     3    1   23 1
     4    2    3 ar
     5    2   24 1
     6    3    4 ar
     7    3   25 1
     8    4    5 ar
     9    4    7 1
    10    5    6 ar
    11    5   26 1
    12    6   27 1
    13    7    8 1
    14    7   28 1
    15    8   13 ar
    16    8    9 ar
    17    9   10 ar
    18   10   11 ar
    19   10   29 1
    20   11   12 ar
    21   11   30 1
    22   12   13 ar
    23   12   14 1
    24   14   15 1
    25   14   31 1
    26   15   20 ar
    27   15   16 ar
    28   16   17 ar
    29   16   32 1
    30   17   18 ar
    31   17   33 1
    32   18   19 ar
    33   18   34 1
    34   19   20 ar
    35   19   35 1
    36   20   21 1
    37   21   22 2
    38   21   36 1
@<TRIPOS>MOLECULE
ZINC13979479
   60    64     0     0     0
SMALL
USER_CHARGES
5-[(6-chloro-1-oxo-4-phenyl-3-propanoyl-2-isoquinolyl)methyl]-N-cyclopropyl-2-methyl-pyrazole-3-carboxamide
@<TRIPOS>ATOM
      1 C1          0.9163    3.4726    1.3152 C.3       1 <0>        -0.1432
      2 C2          1.1917    1.9738    1.1794 C.3       1 <0>        -0.1662
      3 C3          0.1156    1.3397    0.3362 C.2       1 <0>         0.3766
      4 O1         -0.7254    2.0339   -0.1974 O.2       1 <0>        -0.3879
      5 C4          0.0887   -0.0671    0.1613 C.2       1 <0>         0.0981
      6 C5          1.2611   -0.7313   -0.1558 C.2       1 <0>        -0.0730
      7 C6          1.2298   -2.1912   -0.3308 C.ar      1 <0>         0.0188
      8 C7          2.3780   -2.9148   -0.6455 C.ar      1 <0>        -0.1060
      9 C8          2.2980   -4.2836   -0.8061 C.ar      1 <0>        -0.0005
     10 C9          1.0848   -4.9432   -0.6569 C.ar      1 <0>        -0.1213
     11 C10        -0.0624   -4.2444   -0.3456 C.ar      1 <0>        -0.0341
     12 C11        -0.0038   -2.8623   -0.1790 C.ar      1 <0>        -0.1365
     13 C12        -1.2010   -2.0757    0.1527 C.2       1 <0>         0.5529
     14 O2         -2.2759   -2.6304    0.2892 O.2       1 <0>        -0.5080
     15 N1         -1.1071   -0.7416    0.3058 N.am      1 <0>        -0.4994
     16 C13        -2.3142    0.0200    0.6362 C.3       1 <0>         0.1860
     17 C14        -3.0719    0.3338   -0.6280 C.2       1 <0>        -0.0085
     18 C15        -4.1302   -0.4078   -1.1581 C.2       1 <0>        -0.1559
     19 C16        -4.5019    0.2579   -2.3132 C.2       1 <0>        -0.0515
     20 N2         -3.6707    1.3370   -2.4164 N.pl3     1 <0>        -0.2504
     21 N3         -2.8589    1.3527   -1.4211 N.2       1 <0>        -0.2143
     22 C17        -3.7040    2.3283   -3.4945 C.3       1 <0>         0.0838
     23 C18        -5.5775   -0.1207   -3.2436 C.2       1 <0>         0.6000
     24 O3         -5.8613    0.6090   -4.1743 O.2       1 <0>        -0.5368
     25 N4         -6.2480   -1.2760   -3.0642 N.am      1 <0>        -0.6873
     26 C19        -7.2421   -1.7067   -4.0504 C.3       1 <0>         0.0778
     27 C20        -8.5682   -2.2577   -3.5225 C.3       1 <0>        -0.1898
     28 C21        -7.5395   -3.2044   -4.1459 C.3       1 <0>        -0.1860
     29 Cl1         3.7265   -5.1885   -1.1988 Cl        1 <0>        -0.0536
     30 C22         2.5272    0.0153   -0.3107 C.ar      1 <0>        -0.0459
     31 C23         2.7041    0.8793   -1.3935 C.ar      1 <0>        -0.1045
     32 C24         3.8860    1.5773   -1.5288 C.ar      1 <0>        -0.1132
     33 C25         4.8998    1.4140   -0.6012 C.ar      1 <0>        -0.1090
     34 C26         4.7333    0.5555    0.4713 C.ar      1 <0>        -0.1147
     35 C27         3.5543   -0.1444    0.6220 C.ar      1 <0>        -0.1019
     36 H1          1.6947    3.9313    1.9250 H         1 <0>         0.0647
     37 H2          0.9113    3.9321    0.3268 H         1 <0>         0.0635
     38 H3         -0.0531    3.6224    1.7904 H         1 <0>         0.0594
     39 H4          1.1964    1.5523    2.0862 H         1 <0>         0.0885
     40 H5          2.1612    1.8240    0.7041 H         1 <0>         0.1150
     41 H6          3.3247   -2.4083   -0.7626 H         1 <0>         0.1466
     42 H7          1.0394   -6.0144   -0.7863 H         1 <0>         0.1453
     43 H8         -1.0013   -4.7656   -0.2311 H         1 <0>         0.1511
     44 H9         -2.9452   -0.5698    1.3011 H         1 <0>         0.1174
     45 H10        -2.0332    0.9493    1.1316 H         1 <0>         0.1051
     46 H11        -4.5656   -1.3093   -0.7529 H         1 <0>         0.1630
     47 H12        -4.3143    3.1779   -3.1882 H         1 <0>         0.0874
     48 H13        -2.6903    2.6672   -3.7079 H         1 <0>         0.0935
     49 H14        -4.1323    1.8773   -4.3897 H         1 <0>         0.1117
     50 H15        -6.0723   -1.8224   -2.2822 H         1 <0>         0.4064
     51 H16        -7.2694   -1.1283   -4.9739 H         1 <0>         0.1405
     52 H17        -8.7010   -2.2997   -2.4414 H         1 <0>         0.0992
     53 H18        -9.4679   -2.0421   -4.0988 H         1 <0>         0.1053
     54 H19        -7.7629   -3.6113   -5.1322 H         1 <0>         0.1068
     55 H20        -6.9953   -3.8694   -3.4753 H         1 <0>         0.0998
     56 H21         1.9156    1.0037   -2.1210 H         1 <0>         0.1227
     57 H22         4.0225    2.2491   -2.3633 H         1 <0>         0.1276
     58 H23         5.8251    1.9593   -0.7145 H         1 <0>         0.1265
     59 H24         5.5284    0.4330    1.1919 H         1 <0>         0.1291
     60 H25         3.4256   -0.8140    1.4595 H         1 <0>         0.1290
@<TRIPOS>BOND
     1    1    2 1
     2    1   36 1
     3    1   37 1
     4    1   38 1
     5    2    3 1
     6    2   39 1
     7    2   40 1
     8    3    4 2
     9    3    5 1
    10    5   15 1
    11    5    6 2
    12    6    7 1
    13    6   30 1
    14    7   12 ar
    15    7    8 ar
    16    8    9 ar
    17    8   41 1
    18    9   10 ar
    19    9   29 1
    20   10   11 ar
    21   10   42 1
    22   11   12 ar
    23   11   43 1
    24   12   13 1
    25   13   14 2
    26   13   15 am
    27   15   16 1
    28   16   17 1
    29   16   44 1
    30   16   45 1
    31   17   21 2
    32   17   18 1
    33   18   19 2
    34   18   46 1
    35   19   20 1
    36   19   23 1
    37   20   21 1
    38   20   22 1
    39   22   47 1
    40   22   48 1
    41   22   49 1
    42   23   24 2
    43   23   25 am
    44   25   26 1
    45   25   50 1
    46   26   28 1
    47   26   27 1
    48   26   51 1
    49   27   28 1
    50   27   52 1
    51   27   53 1
    52   28   54 1
    53   28   55 1
    54   30   35 ar
    55   30   31 ar
    56   31   32 ar
    57   31   56 1
    58   32   33 ar
    59   32   57 1
    60   33   34 ar
    61   33   58 1
    62   34   35 ar
    63   34   59 1
    64   35   60 1
@<TRIPOS>MOLECULE
ZINC02576349
   43    46     0     0     0
SMALL
USER_CHARGES
7-(1-naphthyl)-9-tert-butyl-2,4,8,9-tetrazabicyclo[4.3.0]nona-1,3,5,7-tetraen-5-amine
@<TRIPOS>ATOM
      1 C1         -2.2648    1.4156   -1.1798 C.3       1 <0>        -0.1444
      2 C2         -1.0921    2.2875   -0.7266 C.3       1 <0>         0.1895
      3 C3         -1.4339    2.9467    0.6111 C.3       1 <0>        -0.1619
      4 C4         -0.8260    3.3695   -1.7751 C.3       1 <0>        -0.1623
      5 N1          0.1032    1.4552   -0.5696 N.pl3     1 <0>        -0.3674
      6 C5          1.3308    1.9052   -0.1828 C.ar      1 <0>         0.3804
      7 C6          2.1889    0.7898   -0.1661 C.ar      1 <0>        -0.3265
      8 C7          1.3808   -0.3606   -0.5722 C.2       1 <0>         0.1648
      9 N2          0.1635    0.0765   -0.7990 N.2       1 <0>        -0.2277
     10 C8          1.8488   -1.7584   -0.7026 C.ar      1 <0>        -0.0125
     11 C9          2.9319   -2.0612   -1.5103 C.ar      1 <0>        -0.0976
     12 C10         3.3811   -3.3708   -1.6324 C.ar      1 <0>        -0.1175
     13 C11         2.7643   -4.3918   -0.9743 C.ar      1 <0>        -0.0881
     14 C12         1.6574   -4.1307   -0.1487 C.ar      1 <0>        -0.0497
     15 C13         1.1904   -2.8012   -0.0075 C.ar      1 <0>        -0.0279
     16 C14         0.0864   -2.5419    0.8173 C.ar      1 <0>        -0.1006
     17 C15        -0.5230   -3.5696    1.4714 C.ar      1 <0>        -0.1104
     18 C16        -0.0653   -4.8782    1.3334 C.ar      1 <0>        -0.1109
     19 C17         1.0037   -5.1664    0.5416 C.ar      1 <0>        -0.1058
     20 C18         3.5302    0.9803    0.2031 C.ar      1 <0>         0.5194
     21 N3          3.9291    2.2083    0.5206 N.ar      1 <0>        -0.6077
     22 C19         3.0891    3.2274    0.4913 C.ar      1 <0>         0.3852
     23 N4          1.8252    3.0965    0.1525 N.ar      1 <0>        -0.5722
     24 N5          4.4132   -0.0817    0.2360 N.pl3     1 <0>        -0.8244
     25 H1         -2.4544    0.6447   -0.4329 H         1 <0>         0.0672
     26 H2         -3.1541    2.0348   -1.2967 H         1 <0>         0.0758
     27 H3         -2.0213    0.9459   -2.1329 H         1 <0>         0.0677
     28 H4         -0.5984    3.5679    0.9340 H         1 <0>         0.0772
     29 H5         -2.3232    3.5660    0.4943 H         1 <0>         0.0800
     30 H6         -1.6235    2.1759    1.3581 H         1 <0>         0.0594
     31 H7         -0.5825    2.8999   -2.7281 H         1 <0>         0.0596
     32 H8         -1.7154    3.9888   -1.8919 H         1 <0>         0.0799
     33 H9          0.0094    3.9907   -1.4522 H         1 <0>         0.0773
     34 H10         3.4359   -1.2709   -2.0469 H         1 <0>         0.1296
     35 H11         4.2309   -3.5835   -2.2641 H         1 <0>         0.1329
     36 H12         3.1262   -5.4030   -1.0874 H         1 <0>         0.1333
     37 H13        -0.2792   -1.5323    0.9330 H         1 <0>         0.1262
     38 H14        -1.3729   -3.3671    2.1063 H         1 <0>         0.1247
     39 H15        -0.5658   -5.6756    1.8626 H         1 <0>         0.1263
     40 H16         1.3482   -6.1854    0.4444 H         1 <0>         0.1313
     41 H17         3.4552    4.2081    0.7568 H         1 <0>         0.2041
     42 H18         4.0875   -0.9872    0.1138 H         1 <0>         0.4127
     43 H19         5.3589    0.0781    0.3813 H         1 <0>         0.4111
@<TRIPOS>BOND
     1    1    2 1
     2    1   25 1
     3    1   26 1
     4    1   27 1
     5    2    3 1
     6    2    4 1
     7    2    5 1
     8    3   28 1
     9    3   29 1
    10    3   30 1
    11    4   31 1
    12    4   32 1
    13    4   33 1
    14    5    9 1
    15    5    6 1
    16    6   23 ar
    17    6    7 ar
    18    7    8 1
    19    7   20 ar
    20    8    9 2
    21    8   10 1
    22   10   15 ar
    23   10   11 ar
    24   11   12 ar
    25   11   34 1
    26   12   13 ar
    27   12   35 1
    28   13   14 ar
    29   13   36 1
    30   14   19 ar
    31   14   15 ar
    32   15   16 ar
    33   16   17 ar
    34   16   37 1
    35   17   18 ar
    36   17   38 1
    37   18   19 ar
    38   18   39 1
    39   19   40 1
    40   20   21 ar
    41   20   24 1
    42   21   22 ar
    43   22   23 ar
    44   22   41 1
    45   24   42 1
    46   24   43 1
@<TRIPOS>MOLECULE
ZINC14951176
   39    42     0     0     0
SMALL
USER_CHARGES

@<TRIPOS>ATOM
      1 C1          0.2405    1.0255    0.8302 C.ar      1 <0>        -0.0645
      2 C2          1.4224    1.7334    0.7710 C.ar      1 <0>        -0.1488
      3 C3          2.3671    1.4303   -0.1967 C.ar      1 <0>         0.1270
      4 C4          2.1300    0.4154   -1.1103 C.ar      1 <0>        -0.1484
      5 C5          0.9516   -0.2992   -1.0607 C.ar      1 <0>        -0.0503
      6 C6         -0.0037    0.0016   -0.0874 C.ar      1 <0>        -0.0633
      7 C7         -1.2678   -0.7602   -0.0291 C.2       1 <0>         0.1046
      8 C8         -1.3961   -2.1162   -0.0863 C.2       1 <0>         0.0796
      9 N1         -2.7456   -2.4073    0.0017 N.pl3     1 <0>        -0.5519
     10 C9         -3.4195   -1.2472    0.1100 C.2       1 <0>         0.4661
     11 C10        -4.8730   -1.1131    0.2269 C.2       1 <0>        -0.2712
     12 C11        -5.4545    0.1603    0.3285 C.2       1 <0>        -0.0131
     13 C12        -6.8063    0.2847    0.4372 C.2       1 <0>        -0.2432
     14 C13        -7.6177   -0.8599    0.4477 C.2       1 <0>         0.3274
     15 O1         -8.9418   -0.7377    0.5542 O.2       1 <0>        -0.6199
     16 C14        -7.0368   -2.1329    0.3456 C.2       1 <0>        -0.2432
     17 C15        -5.6854   -2.2577    0.2315 C.2       1 <0>        -0.0132
     18 N2         -2.5363   -0.2302    0.0993 N.pl3     1 <0>        -0.5537
     19 C16        -0.2980   -3.0933   -0.2185 C.ar      1 <0>         0.0029
     20 C17         0.8460   -3.0046    0.5859 C.ar      1 <0>        -0.1375
     21 C18         1.8471   -3.9391    0.4288 C.ar      1 <0>         0.1110
     22 N3          1.7384   -4.9058   -0.4634 N.ar      1 <0>        -0.4697
     23 C19         0.6787   -5.0262   -1.2411 C.ar      1 <0>         0.1111
     24 C20        -0.3725   -4.1394   -1.1479 C.ar      1 <0>        -0.1541
     25 F1          3.5233    2.1271   -0.2501 F         1 <0>        -0.1285
     26 H1         -0.4930    1.2596    1.5875 H         1 <0>         0.1388
     27 H2          1.6122    2.5258    1.4800 H         1 <0>         0.1474
     28 H3          2.8693    0.1839   -1.8628 H         1 <0>         0.1469
     29 H4          0.7677   -1.0896   -1.7733 H         1 <0>         0.1375
     30 H5         -3.1383   -3.2941   -0.0126 H         1 <0>         0.4530
     31 H6         -4.8300    1.0414    0.3209 H         1 <0>         0.1049
     32 H7         -7.2538    1.2645    0.5158 H         1 <0>         0.1221
     33 H8         -7.6616   -3.0138    0.3533 H         1 <0>         0.1221
     34 H9         -5.2386   -3.2374    0.1489 H         1 <0>         0.1046
     35 H10        -2.7542    0.7126    0.1673 H         1 <0>         0.4532
     36 H11         0.9421   -2.2159    1.3174 H         1 <0>         0.1420
     37 H12         2.7328   -3.8793    1.0439 H         1 <0>         0.1658
     38 H13         0.6328   -5.8333   -1.9573 H         1 <0>         0.1659
     39 H14        -1.2383   -4.2467   -1.7845 H         1 <0>         0.1405
@<TRIPOS>BOND
     1    1    6 ar
     2    1    2 ar
     3    1   26 1
     4    2    3 ar
     5    2   27 1
     6    3    4 ar
     7    3   25 1
     8    4    5 ar
     9    4   28 1
    10    5    6 ar
    11    5   29 1
    12    6    7 1
    13    7   18 1
    14    7    8 2
    15    8    9 1
    16    8   19 1
    17    9   10 1
    18    9   30 1
    19   10   11 2
    20   10   18 1
    21   11   17 1
    22   11   12 1
    23   12   13 2
    24   12   31 1
    25   13   14 1
    26   13   32 1
    27   14   15 2
    28   14   16 1
    29   16   17 2
    30   16   33 1
    31   17   34 1
    32   18   35 1
    33   19   24 ar
    34   19   20 ar
    35   20   21 ar
    36   20   36 1
    37   21   22 ar
    38   21   37 1
    39   22   23 ar
    40   23   24 ar
    41   23   38 1
    42   24   39 1
@<TRIPOS>MOLECULE
ZINC14951176
   40    43     0     0     0
SMALL
USER_CHARGES

@<TRIPOS>ATOM
      1 C1          0.2405    1.0255    0.8302 C.ar      1 <0>        -0.0528
      2 C2          1.4224    1.7334    0.7710 C.ar      1 <0>        -0.1439
      3 C3          2.3671    1.4303   -0.1967 C.ar      1 <0>         0.1411
      4 C4          2.1300    0.4154   -1.1103 C.ar      1 <0>        -0.1508
      5 C5          0.9516   -0.2992   -1.0607 C.ar      1 <0>        -0.0597
      6 C6         -0.0037    0.0016   -0.0874 C.ar      1 <0>        -0.0905
      7 C7         -1.2678   -0.7602   -0.0291 C.2       1 <0>         0.1717
      8 C8         -1.3961   -2.1162   -0.0863 C.2       1 <0>         0.0049
      9 N1         -2.7456   -2.4073    0.0017 N.pl3     1 <0>        -0.5619
     10 C9         -3.4195   -1.2472    0.1100 C.2       1 <0>         0.4672
     11 C10        -4.8730   -1.1131    0.2269 C.2       1 <0>        -0.2599
     12 C11        -5.6849   -2.2580    0.2378 C.2       1 <0>        -0.0193
     13 C12        -7.0367   -2.1330    0.3465 C.2       1 <0>        -0.2271
     14 C13        -7.6177   -0.8599    0.4475 C.2       1 <0>         0.3291
     15 O1         -8.9418   -0.7377    0.5539 O.2       1 <0>        -0.5899
     16 C14        -6.8064    0.2847    0.4370 C.2       1 <0>        -0.2265
     17 C15        -5.4541    0.1600    0.3338 C.2       1 <0>        -0.0193
     18 N2         -2.5363   -0.2302    0.0993 N.pl3     1 <0>        -0.5609
     19 C16        -0.2980   -3.0933   -0.2185 C.ar      1 <0>         0.1131
     20 C17         0.8460   -3.0046    0.5859 C.ar      1 <0>        -0.1113
     21 C18         1.8471   -3.9391    0.4288 C.ar      1 <0>         0.1475
     22 N3          1.7384   -4.9058   -0.4634 N.ar      1 <0>        -0.4453
     23 C19         0.6789   -5.0260   -1.2413 C.ar      1 <0>         0.1502
     24 C20        -0.3725   -4.1394   -1.1479 C.ar      1 <0>        -0.1247
     25 F1          3.5233    2.1271   -0.2501 F         1 <0>        -0.1206
     26 H1         -0.4930    1.2596    1.5875 H         1 <0>         0.1448
     27 H2          1.6122    2.5258    1.4800 H         1 <0>         0.1545
     28 H3          2.8693    0.1839   -1.8628 H         1 <0>         0.1503
     29 H4          0.7677   -1.0896   -1.7733 H         1 <0>         0.1343
     30 H5         -3.1383   -3.2941   -0.0126 H         1 <0>         0.4541
     31 H6         -5.2377   -3.2379    0.1597 H         1 <0>         0.1066
     32 H7         -7.6615   -3.0138    0.3545 H         1 <0>         0.1278
     33 H8         -7.2539    1.2645    0.5152 H         1 <0>         0.1286
     34 H9         -4.8293    1.0409    0.3299 H         1 <0>         0.1087
     35 H10        -2.7542    0.7126    0.1673 H         1 <0>         0.4588
     36 H11         0.9421   -2.2159    1.3174 H         1 <0>         0.1893
     37 H12         2.7328   -3.8793    1.0439 H         1 <0>         0.2181
     38 H13         0.6331   -5.8328   -1.9578 H         1 <0>         0.2182
     39 H14        -1.2383   -4.2467   -1.7845 H         1 <0>         0.1884
     40 H15         2.4602   -5.5480   -0.5503 H         1 <0>         0.4572
@<TRIPOS>BOND
     1    1    6 ar
     2    1    2 ar
     3    1   26 1
     4    2    3 ar
     5    2   27 1
     6    3    4 ar
     7    3   25 1
     8    4    5 ar
     9    4   28 1
    10    5    6 ar
    11    5   29 1
    12    6    7 1
    13    7   18 1
    14    7    8 2
    15    8    9 1
    16    8   19 1
    17    9   10 1
    18    9   30 1
    19   10   11 2
    20   10   18 1
    21   11   17 1
    22   11   12 1
    23   12   13 2
    24   12   31 1
    25   13   14 1
    26   13   32 1
    27   14   15 2
    28   14   16 1
    29   16   17 2
    30   16   33 1
    31   17   34 1
    32   18   35 1
    33   19   24 ar
    34   19   20 ar
    35   20   21 ar
    36   20   36 1
    37   21   22 ar
    38   21   37 1
    39   22   23 ar
    40   22   40 1
    41   23   24 ar
    42   23   38 1
    43   24   39 1
@<TRIPOS>MOLECULE
ZINC14951176
   39    42     0     0     0
SMALL
USER_CHARGES

@<TRIPOS>ATOM
      1 C1         -0.0169    1.3921    0.0097 C.ar      1 <0>        -0.0566
      2 C2          1.1683    2.0955    0.0022 C.ar      1 <0>        -0.1420
      3 C3          2.3804    1.4175   -0.0135 C.ar      1 <0>         0.1205
      4 C4          2.4035    0.0288   -0.0217 C.ar      1 <0>        -0.1413
      5 C5          1.2227   -0.6820   -0.0137 C.ar      1 <0>        -0.0915
      6 C6          0.0021   -0.0041    0.0020 C.ar      1 <0>        -0.0305
      7 C7         -1.2663   -0.7622    0.0101 C.2       1 <0>         0.2668
      8 N1         -2.4688   -0.2344    0.0239 N.2       1 <0>        -0.4516
      9 H1         -0.6429   -2.7598   -0.0166 H         1 <0>         0.4248
     10 C8         -3.3891   -1.2133    0.0276 C.2       1 <0>         0.0607
     11 C9         -2.7170   -2.4244    0.0153 C.2       1 <0>         0.0509
     12 N2         -1.3752   -2.1239   -0.0017 N.pl3     1 <0>        -0.5528
     13 C10        -3.3214   -3.7709    0.0147 C.ar      1 <0>        -0.0389
     14 C11        -4.3834   -4.0632    0.8738 C.ar      1 <0>        -0.0572
     15 C12        -4.9440   -5.3230    0.8688 C.ar      1 <0>        -0.1473
     16 C13        -4.4555   -6.2985    0.0139 C.ar      1 <0>         0.1118
     17 C14        -3.4017   -6.0145   -0.8405 C.ar      1 <0>        -0.1493
     18 C15        -2.8374   -4.7564   -0.8492 C.ar      1 <0>        -0.0780
     19 F1         -5.0084   -7.5311    0.0136 F         1 <0>        -0.1337
     20 C16        -4.8582   -1.0303    0.0430 C.ar      1 <0>         0.0400
     21 C17        -5.7004   -1.9173   -0.6371 C.ar      1 <0>        -0.1586
     22 C18        -7.0629   -1.7095   -0.5964 C.ar      1 <0>         0.1014
     23 N3         -7.5737   -0.6921    0.0713 N.ar      1 <0>        -0.4840
     24 C19        -6.8154    0.1672    0.7258 C.ar      1 <0>         0.1006
     25 C20        -5.4433    0.0310    0.7427 C.ar      1 <0>        -0.1465
     26 O1          3.5463    2.1144   -0.0214 O.3       1 <0>        -0.4977
     27 H2         -0.9589    1.9200    0.0260 H         1 <0>         0.1437
     28 H3          1.1545    3.1754    0.0081 H         1 <0>         0.1381
     29 H4          3.3480   -0.4948   -0.0346 H         1 <0>         0.1359
     30 H5          1.2415   -1.7618   -0.0204 H         1 <0>         0.1230
     31 H6         -4.7644   -3.3041    1.5409 H         1 <0>         0.1365
     32 H7         -5.7651   -5.5501    1.5325 H         1 <0>         0.1435
     33 H8         -3.0248   -6.7788   -1.5040 H         1 <0>         0.1419
     34 H9         -2.0195   -4.5348   -1.5187 H         1 <0>         0.1326
     35 H10        -5.2894   -2.7518   -1.1857 H         1 <0>         0.1340
     36 H11        -7.7211   -2.3883   -1.1184 H         1 <0>         0.1574
     37 H12        -7.2760    0.9856    1.2591 H         1 <0>         0.1586
     38 H13        -4.8292    0.7351    1.2845 H         1 <0>         0.1395
     39 H14         3.8927    2.3115    0.8597 H         1 <0>         0.3954
@<TRIPOS>BOND
     1    1    6 ar
     2    1    2 ar
     3    1   27 1
     4    2    3 ar
     5    2   28 1
     6    3    4 ar
     7    3   26 1
     8    4    5 ar
     9    4   29 1
    10    5    6 ar
    11    5   30 1
    12    6    7 1
    13    7    8 2
    14    7   12 1
    15    8   10 1
    16    9   12 1
    17   10   20 1
    18   10   11 2
    19   11   13 1
    20   11   12 1
    21   13   18 ar
    22   13   14 ar
    23   14   15 ar
    24   14   31 1
    25   15   16 ar
    26   15   32 1
    27   16   17 ar
    28   16   19 1
    29   17   18 ar
    30   17   33 1
    31   18   34 1
    32   20   25 ar
    33   20   21 ar
    34   21   22 ar
    35   21   35 1
    36   22   23 ar
    37   22   36 1
    38   23   24 ar
    39   24   25 ar
    40   24   37 1
    41   25   38 1
    42   26   39 1
@<TRIPOS>MOLECULE
ZINC14951176
   40    43     0     0     0
SMALL
USER_CHARGES

@<TRIPOS>ATOM
      1 C1         -0.0079    1.3560    0.4128 C.ar      1 <0>        -0.0502
      2 C2          1.1789    2.0446    0.5411 C.ar      1 <0>        -0.1379
      3 C3          2.3872    1.3600    0.5181 C.ar      1 <0>         0.1743
      4 C4          2.4048   -0.0205    0.3656 C.ar      1 <0>        -0.1372
      5 C5          1.2223   -0.7164    0.2363 C.ar      1 <0>        -0.0529
      6 C6          0.0054   -0.0319    0.2597 C.ar      1 <0>        -0.1114
      7 C7         -1.2648   -0.7743    0.1224 C.cat     1 <0>         0.3974
      8 N1         -2.5103   -0.2175    0.1240 N.pl3     1 <0>        -0.5055
      9 H1         -2.7195    0.7253    0.2141 H         1 <0>         0.4639
     10 C8         -3.4150   -1.2456   -0.0267 C.2       1 <0>         0.1188
     11 C9         -2.6710   -2.4104   -0.1160 C.2       1 <0>         0.1124
     12 N2         -1.3744   -2.0755   -0.0265 N.pl3     1 <0>        -0.4709
     13 C10        -3.2098   -3.7802   -0.2862 C.ar      1 <0>        -0.0876
     14 C11        -4.1834   -4.0340   -1.2519 C.ar      1 <0>        -0.0424
     15 C12        -4.6816   -5.3110   -1.4069 C.ar      1 <0>        -0.1470
     16 C13        -4.2164   -6.3406   -0.6047 C.ar      1 <0>         0.1433
     17 C14        -3.2491   -6.0935    0.3562 C.ar      1 <0>        -0.1478
     18 C15        -2.7406   -4.8209    0.5148 C.ar      1 <0>        -0.0599
     19 F1         -4.7080   -7.5895   -0.7596 F         1 <0>        -0.1208
     20 C16        -4.8840   -1.1288   -0.0821 C.ar      1 <0>        -0.0205
     21 C17        -5.7034   -1.9735    0.6798 C.ar      1 <0>        -0.1289
     22 C18        -7.0715   -1.8287    0.5974 C.ar      1 <0>         0.1171
     23 N3         -7.6107   -0.9116   -0.1841 N.ar      1 <0>        -0.4578
     24 C19        -6.8767   -0.0959   -0.9180 C.ar      1 <0>         0.1165
     25 C20        -5.5005   -0.1662   -0.8936 C.ar      1 <0>        -0.1481
     26 O1          3.5548    2.0423    0.6448 O.3       1 <0>        -0.4899
     27 H2         -0.9472    1.8885    0.4352 H         1 <0>         0.1371
     28 H3          1.1694    3.1181    0.6592 H         1 <0>         0.1540
     29 H4          3.3464   -0.5492    0.3479 H         1 <0>         0.1543
     30 H5          1.2369   -1.7897    0.1170 H         1 <0>         0.1372
     31 H6         -4.5471   -3.2320   -1.8771 H         1 <0>         0.1402
     32 H7         -5.4356   -5.5085   -2.1544 H         1 <0>         0.1527
     33 H8         -2.8897   -6.8992    0.9791 H         1 <0>         0.1527
     34 H9         -1.9838   -4.6301    1.2612 H         1 <0>         0.1391
     35 H10        -5.2693   -2.7263    1.3211 H         1 <0>         0.1460
     36 H11        -7.7114   -2.4748    1.1801 H         1 <0>         0.1719
     37 H12        -7.3614    0.6395   -1.5430 H         1 <0>         0.1713
     38 H13        -4.9063    0.5074   -1.4932 H         1 <0>         0.1422
     39 H14         3.8545    2.1428    1.5587 H         1 <0>         0.4115
     40 H15        -0.6320   -2.6987   -0.0633 H         1 <0>         0.4629
@<TRIPOS>BOND
     1    1    6 ar
     2    1    2 ar
     3    1   27 1
     4    2    3 ar
     5    2   28 1
     6    3    4 ar
     7    3   26 1
     8    4    5 ar
     9    4   29 1
    10    5    6 ar
    11    5   30 1
    12    6    7 1
    13    7   12 2
    14    7    8 1
    15    8    9 1
    16    8   10 1
    17   10   11 2
    18   10   20 1
    19   11   12 1
    20   11   13 1
    21   12   40 1
    22   13   18 ar
    23   13   14 ar
    24   14   15 ar
    25   14   31 1
    26   15   16 ar
    27   15   32 1
    28   16   17 ar
    29   16   19 1
    30   17   18 ar
    31   17   33 1
    32   18   34 1
    33   20   25 ar
    34   20   21 ar
    35   21   22 ar
    36   21   35 1
    37   22   23 ar
    38   22   36 1
    39   23   24 ar
    40   24   25 ar
    41   24   37 1
    42   25   38 1
    43   26   39 1
@<TRIPOS>MOLECULE
ZINC14951176
   40    43     0     0     0
SMALL
USER_CHARGES

@<TRIPOS>ATOM
      1 C1         -0.0268    1.3873   -0.2487 C.ar      1 <0>        -0.0533
      2 C2          1.1507    2.0881   -0.3954 C.ar      1 <0>        -0.1372
      3 C3          2.3508    1.4075   -0.5560 C.ar      1 <0>         0.1741
      4 C4          2.3694    0.0187   -0.5693 C.ar      1 <0>        -0.1379
      5 C5          1.1963   -0.6894   -0.4227 C.ar      1 <0>        -0.0501
      6 C6         -0.0123   -0.0089   -0.2611 C.ar      1 <0>        -0.1113
      7 C7         -1.2726   -0.7643   -0.1040 C.cat     1 <0>         0.3964
      8 N1         -1.3739   -2.1224    0.0021 N.pl3     1 <0>        -0.5087
      9 H1         -0.6406   -2.7573   -0.0113 H         1 <0>         0.4641
     10 C8         -2.7098   -2.4213    0.1324 C.2       1 <0>         0.1445
     11 C9         -3.3862   -1.2129    0.1003 C.2       1 <0>         0.0865
     12 N2         -2.4734   -0.2367   -0.0386 N.pl3     1 <0>        -0.4668
     13 C10        -4.8514   -1.0295    0.2063 C.ar      1 <0>        -0.0181
     14 C11        -5.5878   -1.6830    1.2008 C.ar      1 <0>        -0.1314
     15 C12        -6.9507   -1.4834    1.2636 C.ar      1 <0>         0.1177
     16 N3         -7.5598   -0.6900    0.4025 N.ar      1 <0>        -0.4587
     17 C13        -6.9031   -0.0552   -0.5501 C.ar      1 <0>         0.1173
     18 C14        -5.5375   -0.1932   -0.6817 C.ar      1 <0>        -0.1516
     19 C15        -3.3053   -3.7640    0.2776 C.ar      1 <0>        -0.0905
     20 C16        -4.4063   -4.1307   -0.5000 C.ar      1 <0>        -0.0398
     21 C17        -4.9583   -5.3865   -0.3599 C.ar      1 <0>        -0.1481
     22 C18        -4.4232   -6.2840    0.5507 C.ar      1 <0>         0.1454
     23 C19        -3.3311   -5.9257    1.3253 C.ar      1 <0>        -0.1491
     24 C20        -2.7664   -4.6752    1.1893 C.ar      1 <0>        -0.0562
     25 F1         -4.9685   -7.5129    0.6840 F         1 <0>        -0.1204
     26 O1          3.5092    2.1019   -0.7007 O.3       1 <0>        -0.4899
     27 H2         -0.9590    1.9172   -0.1198 H         1 <0>         0.1369
     28 H3          1.1404    3.1680   -0.3860 H         1 <0>         0.1542
     29 H4          3.3045   -0.5068   -0.6950 H         1 <0>         0.1540
     30 H5          1.2115   -1.7693   -0.4335 H         1 <0>         0.1375
     31 H6         -5.0961   -2.3342    1.9084 H         1 <0>         0.1454
     32 H7         -7.5277   -1.9833    2.0275 H         1 <0>         0.1715
     33 H8         -7.4422    0.5842   -1.2336 H         1 <0>         0.1711
     34 H9         -5.0059    0.3326   -1.4610 H         1 <0>         0.1417
     35 H10        -4.8245   -3.4319   -1.2094 H         1 <0>         0.1408
     36 H11        -5.8095   -5.6711   -0.9606 H         1 <0>         0.1531
     37 H12        -2.9189   -6.6290    2.0337 H         1 <0>         0.1530
     38 H13        -1.9125   -4.3987    1.7900 H         1 <0>         0.1398
     39 H14         3.9581    2.2964    0.1334 H         1 <0>         0.4114
     40 H15        -2.6712    0.7118   -0.0857 H         1 <0>         0.4627
@<TRIPOS>BOND
     1    1    6 ar
     2    1    2 ar
     3    1   27 1
     4    2    3 ar
     5    2   28 1
     6    3    4 ar
     7    3   26 1
     8    4    5 ar
     9    4   29 1
    10    5    6 ar
    11    5   30 1
    12    6    7 1
    13    7   12 2
    14    7    8 1
    15    8    9 1
    16    8   10 1
    17   10   11 2
    18   10   19 1
    19   11   12 1
    20   11   13 1
    21   12   40 1
    22   13   18 ar
    23   13   14 ar
    24   14   15 ar
    25   14   31 1
    26   15   16 ar
    27   15   32 1
    28   16   17 ar
    29   17   18 ar
    30   17   33 1
    31   18   34 1
    32   19   24 ar
    33   19   20 ar
    34   20   21 ar
    35   20   35 1
    36   21   22 ar
    37   21   36 1
    38   22   23 ar
    39   22   25 1
    40   23   24 ar
    41   23   37 1
    42   24   38 1
    43   26   39 1
@<TRIPOS>MOLECULE
ZINC14960000
   43    44     0     0     0
SMALL
USER_CHARGES

@<TRIPOS>ATOM
      1 C1         -0.0187    1.5258    0.0104 C.3       1 <0>        -0.1552
      2 C2          0.0021   -0.0041    0.0020 C.3       1 <0>         0.0652
      3 O1          0.6932   -0.4774    1.1597 O.3       1 <0>        -0.2910
      4 C3          0.8018   -1.8222    1.3054 C.ar      1 <0>         0.3800
      5 C4          1.4590   -2.3416    2.4157 C.ar      1 <0>        -0.1786
      6 C5          1.5655   -3.7224    2.5576 C.ar      1 <0>         0.2924
      7 C6          1.0042   -4.5362    1.5726 C.ar      1 <0>        -0.2069
      8 C7          0.3629   -3.9442    0.4918 C.ar      1 <0>         0.1594
      9 N1          0.2777   -2.6207    0.3945 N.ar      1 <0>        -0.5477
     10 C8         -0.2370   -4.7963   -0.5606 C.2       1 <0>         0.5761
     11 O2         -0.1668   -6.0066   -0.4758 O.2       1 <0>        -0.5207
     12 N2         -0.8608   -4.2295   -1.6123 N.am      1 <0>        -0.7068
     13 C9         -1.4543   -5.0724   -2.6532 C.3       1 <0>         0.1517
     14 C10        -2.0848   -4.1995   -3.7075 C.ar      1 <0>        -0.0560
     15 C11        -3.4061   -3.8121   -3.5845 C.ar      1 <0>        -0.1188
     16 C12        -3.9845   -3.0114   -4.5516 C.ar      1 <0>        -0.0244
     17 C13        -3.2415   -2.5977   -5.6414 C.ar      1 <0>        -0.6522
     18 C14        -1.9200   -2.9843   -5.7639 C.ar      1 <0>        -0.0244
     19 C15        -1.3403   -3.7815   -4.7947 C.ar      1 <0>        -0.1188
     20 S1         -3.9791   -1.5780   -6.8747 S.o2      1 <0>         2.4986
     21 O3         -3.2380   -1.8456   -8.0572 O.2       1 <0>        -0.9353
     22 O4         -5.3673   -1.8740   -6.8072 O.2       1 <0>        -0.9353
     23 C16        -3.6748    0.1213   -6.3177 C.3       1 <0>        -0.6498
     24 N3          2.2170   -4.2783    3.6563 N.pl3     1 <0>        -0.8449
     25 Cl1         2.1389   -1.2807    3.6098 Cl        1 <0>        -0.0379
     26 H1          1.0039    1.9031    0.0027 H         1 <0>         0.0668
     27 H2         -0.5459    1.8868   -0.8726 H         1 <0>         0.0806
     28 H3         -0.5289    1.8773    0.9072 H         1 <0>         0.0668
     29 H4         -1.0205   -0.3814    0.0098 H         1 <0>         0.0685
     30 H5          0.5123   -0.3556   -0.8948 H         1 <0>         0.0685
     31 H6          1.0678   -5.6116    1.6494 H         1 <0>         0.1582
     32 H7         -0.9169   -3.2635   -1.6800 H         1 <0>         0.4133
     33 H8         -0.6786   -5.6885   -3.1080 H         1 <0>         0.0871
     34 H9         -2.2155   -5.7148   -2.2105 H         1 <0>         0.0872
     35 H10        -3.9866   -4.1354   -2.7331 H         1 <0>         0.1367
     36 H11        -5.0170   -2.7094   -4.4559 H         1 <0>         0.1456
     37 H12        -1.3396   -2.6613   -6.6155 H         1 <0>         0.1456
     38 H13        -0.3068   -4.0804   -4.8885 H         1 <0>         0.1367
     39 H14        -2.6009    0.2922   -6.2426 H         1 <0>         0.1319
     40 H15        -4.1048    0.8210   -7.0343 H         1 <0>         0.1344
     41 H16        -4.1358    0.2718   -5.3415 H         1 <0>         0.1319
     42 H17         2.6033   -3.7017    4.3339 H         1 <0>         0.4093
     43 H18         2.2845   -5.2420    3.7436 H         1 <0>         0.4123
@<TRIPOS>BOND
     1    1    2 1
     2    1   26 1
     3    1   27 1
     4    1   28 1
     5    2    3 1
     6    2   29 1
     7    2   30 1
     8    3    4 1
     9    4    9 ar
    10    4    5 ar
    11    5    6 ar
    12    5   25 1
    13    6    7 ar
    14    6   24 1
    15    7    8 ar
    16    7   31 1
    17    8    9 ar
    18    8   10 1
    19   10   11 2
    20   10   12 am
    21   12   13 1
    22   12   32 1
    23   13   14 1
    24   13   33 1
    25   13   34 1
    26   14   19 ar
    27   14   15 ar
    28   15   16 ar
    29   15   35 1
    30   16   17 ar
    31   16   36 1
    32   17   18 ar
    33   17   20 1
    34   18   19 ar
    35   18   37 1
    36   19   38 1
    37   20   21 2
    38   20   22 2
    39   20   23 1
    40   23   39 1
    41   23   40 1
    42   23   41 1
    43   24   42 1
    44   24   43 1
@<TRIPOS>MOLECULE
ZINC14959984
   43    44     0     0     0
SMALL
USER_CHARGES

@<TRIPOS>ATOM
      1 C1         -0.0187    1.5258    0.0104 C.3       1 <0>        -0.1579
      2 C2          0.0021   -0.0041    0.0020 C.3       1 <0>         0.0624
      3 O1         -1.3386   -0.4987    0.0122 O.3       1 <0>        -0.2942
      4 C3         -1.4978   -1.8442    0.0065 C.ar      1 <0>         0.4169
      5 C4         -2.7916   -2.3917    0.0100 C.ar      1 <0>        -0.1678
      6 C5         -2.9371   -3.7908    0.0035 C.ar      1 <0>         0.3307
      7 C6         -1.7827   -4.5744   -0.0062 C.ar      1 <0>        -0.2164
      8 C7         -0.5411   -3.9531   -0.0092 C.ar      1 <0>         0.1827
      9 N1         -0.4370   -2.6274   -0.0079 N.ar      1 <0>        -0.5624
     10 C8          0.6885   -4.7811   -0.0190 C.2       1 <0>         0.5763
     11 O2          0.6047   -5.9933   -0.0244 O.2       1 <0>        -0.5051
     12 N2          1.8994   -4.1893   -0.0219 N.am      1 <0>        -0.7127
     13 C9          3.1145   -5.0075   -0.0316 C.3       1 <0>         0.1044
     14 C10         4.3248   -4.1096   -0.0331 C.ar      1 <0>        -0.0123
     15 C11         4.9948   -3.8544   -1.2152 C.ar      1 <0>        -0.1174
     16 C12         6.1048   -3.0309   -1.2165 C.ar      1 <0>        -0.0593
     17 C13         6.5448   -2.4618   -0.0358 C.ar      1 <0>        -0.1290
     18 C14         5.8744   -2.7161    1.1458 C.ar      1 <0>        -0.0166
     19 C15         4.7615   -3.5365    1.1464 C.ar      1 <0>        -0.6619
     20 S1          3.9032   -3.8558    2.6517 S.o2      1 <0>         2.6959
     21 O3          3.7291   -5.2640    2.7291 O.2       1 <0>        -0.9530
     22 O4          4.5691   -3.1138    3.6642 O.2       1 <0>        -0.9606
     23 N3          2.3903   -3.1994    2.5014 N.pl3     1 <0>        -1.2450
     24 N4         -4.1940   -4.3755    0.0072 N.pl3     1 <0>        -0.8360
     25 C16        -3.9426   -1.5399    0.0206 C.1       1 <0>         0.2633
     26 N5         -4.8558   -0.8642    0.0289 N.1       1 <0>        -0.4083
     27 H1          1.0039    1.9031    0.0027 H         1 <0>         0.0836
     28 H2         -0.5459    1.8868   -0.8726 H         1 <0>         0.0668
     29 H3         -0.5289    1.8773    0.9072 H         1 <0>         0.0673
     30 H4          0.5123   -0.3556   -0.8948 H         1 <0>         0.0733
     31 H5          0.5293   -0.3651    0.8851 H         1 <0>         0.0728
     32 H6         -1.8542   -5.6520   -0.0111 H         1 <0>         0.1623
     33 H7          1.9663   -3.2216   -0.0176 H         1 <0>         0.4074
     34 H8          3.1331   -5.6410    0.8552 H         1 <0>         0.1256
     35 H9          3.1247   -5.6324   -0.9247 H         1 <0>         0.1003
     36 H10         4.6511   -4.2990   -2.1375 H         1 <0>         0.1386
     37 H11         6.6286   -2.8321   -2.1398 H         1 <0>         0.1370
     38 H12         7.4125   -1.8189   -0.0367 H         1 <0>         0.1387
     39 H13         6.2183   -2.2719    2.0682 H         1 <0>         0.1495
     40 H14         2.1381   -2.7448    1.6826 H         1 <0>         0.4109
     41 H15         1.7564   -3.2696    3.2323 H         1 <0>         0.4232
     42 H16        -4.9880   -3.8184    0.0143 H         1 <0>         0.4094
     43 H17        -4.2795   -5.3417    0.0026 H         1 <0>         0.4166
@<TRIPOS>BOND
     1    1    2 1
     2    1   27 1
     3    1   28 1
     4    1   29 1
     5    2    3 1
     6    2   30 1
     7    2   31 1
     8    3    4 1
     9    4    9 ar
    10    4    5 ar
    11    5    6 ar
    12    5   25 1
    13    6    7 ar
    14    6   24 1
    15    7    8 ar
    16    7   32 1
    17    8    9 ar
    18    8   10 1
    19   10   11 2
    20   10   12 am
    21   12   13 1
    22   12   33 1
    23   13   14 1
    24   13   34 1
    25   13   35 1
    26   14   19 ar
    27   14   15 ar
    28   15   16 ar
    29   15   36 1
    30   16   17 ar
    31   16   37 1
    32   17   18 ar
    33   17   38 1
    34   18   19 ar
    35   18   39 1
    36   19   20 1
    37   20   21 2
    38   20   22 2
    39   20   23 1
    40   23   40 1
    41   23   41 1
    42   24   42 1
    43   24   43 1
    44   25   26 3
@<TRIPOS>MOLECULE
ZINC29063500
   51    54     0     0     0
SMALL
USER_CHARGES
6-bromo-2-(cyclohexylmethyl)-3-(hydroxymethyl)-4-phenyl-isoquinolin-1-one
@<TRIPOS>ATOM
      1 C1         -2.0360   -1.9088    0.9603 C.ar      1 <0>        -0.1153
      2 C2         -0.9316   -2.6246    1.3866 C.ar      1 <0>        -0.1151
      3 C3          0.2039   -1.9617    1.8055 C.ar      1 <0>        -0.0989
      4 C4          0.2367   -0.5678    1.7984 C.ar      1 <0>        -0.0279
      5 C5         -0.8814    0.1482    1.3726 C.ar      1 <0>        -0.1108
      6 C6         -2.0092   -0.5257    0.9506 C.ar      1 <0>        -0.1173
      7 C7          1.4531    0.1500    2.2475 C.2       1 <0>        -0.1200
      8 C8          1.8326    0.1546    3.6684 C.ar      1 <0>         0.0238
      9 C9          1.0775   -0.5046    4.6361 C.ar      1 <0>        -0.0913
     10 C10         1.4831   -0.4658    5.9535 C.ar      1 <0>        -0.0543
     11 C11         2.6331    0.2226    6.3215 C.ar      1 <0>        -0.1115
     12 C12         3.3883    0.8755    5.3878 C.ar      1 <0>        -0.0389
     13 C13         3.0010    0.8524    4.0478 C.ar      1 <0>        -0.1395
     14 C14         3.7743    1.5358    3.0049 C.2       1 <0>         0.5471
     15 O1          4.7872    2.1472    3.2934 O.2       1 <0>        -0.5129
     16 N1          3.3583    1.4770    1.7250 N.am      1 <0>        -0.5018
     17 C15         2.2297    0.8100    1.3534 C.2       1 <0>         0.1698
     18 C16         1.8348    0.8005   -0.1009 C.3       1 <0>         0.1056
     19 O2          2.6344   -0.1516   -0.8054 O.3       1 <0>        -0.5885
     20 C17         4.1452    2.1604    0.6955 C.3       1 <0>         0.0954
     21 C18         3.9417    3.6719    0.8175 C.3       1 <0>        -0.1056
     22 C19         2.4815    4.0158    0.5166 C.3       1 <0>        -0.1163
     23 C20         2.2779    5.5273    0.6387 C.3       1 <0>        -0.1193
     24 C21         3.1874    6.2466   -0.3595 C.3       1 <0>        -0.1205
     25 C22         4.6476    5.9027   -0.0587 C.3       1 <0>        -0.1198
     26 C23         4.8511    4.3912   -0.1807 C.3       1 <0>        -0.1098
     27 Br1         0.4638   -1.3578    7.2730 Br        1 <0>        -0.0371
     28 H1         -2.9225   -2.4319    0.6334 H         1 <0>         0.1235
     29 H2         -0.9583   -3.7042    1.3920 H         1 <0>         0.1253
     30 H3          1.0657   -2.5215    2.1378 H         1 <0>         0.1231
     31 H4         -0.8632    1.2280    1.3688 H         1 <0>         0.1226
     32 H5         -2.8743    0.0277    0.6163 H         1 <0>         0.1250
     33 H6          0.1829   -1.0413    4.3569 H         1 <0>         0.1438
     34 H7          2.9340    0.2416    7.3586 H         1 <0>         0.1419
     35 H8          4.2802    1.4064    5.6859 H         1 <0>         0.1476
     36 H9          0.7734    0.5260   -0.1908 H         1 <0>         0.0806
     37 H10         1.9924    1.8009   -0.5302 H         1 <0>         0.0669
     38 H11         2.4889   -0.3000   -1.8856 H         1 <0>         0.4193
     39 H12         5.2106    1.9219    0.8298 H         1 <0>         0.0923
     40 H13         3.8170    1.8254   -0.2995 H         1 <0>         0.1022
     41 H14         4.1914    3.9942    1.8392 H         1 <0>         0.0864
     42 H15         2.2320    3.6936   -0.5051 H         1 <0>         0.0628
     43 H16         1.8276    3.4986    1.2342 H         1 <0>         0.0579
     44 H17         1.2281    5.7745    0.4224 H         1 <0>         0.0630
     45 H18         2.5275    5.8496    1.6604 H         1 <0>         0.0623
     46 H19         2.9378    5.9243   -1.3812 H         1 <0>         0.0618
     47 H20         3.0411    7.3333   -0.2718 H         1 <0>         0.0626
     48 H21         5.3014    6.4198   -0.7764 H         1 <0>         0.0649
     49 H22         4.8973    6.2250    0.9629 H         1 <0>         0.0633
     50 H23         5.9009    4.1439    0.0356 H         1 <0>         0.0672
     51 H24         4.6015    4.0689   -1.2024 H         1 <0>         0.0640
@<TRIPOS>BOND
     1    1    6 ar
     2    1    2 ar
     3    1   28 1
     4    2    3 ar
     5    2   29 1
     6    3    4 ar
     7    3   30 1
     8    4    5 ar
     9    4    7 1
    10    5    6 ar
    11    5   31 1
    12    6   32 1
    13    7   17 2
    14    7    8 1
    15    8   13 ar
    16    8    9 ar
    17    9   10 ar
    18    9   33 1
    19   10   11 ar
    20   10   27 1
    21   11   12 ar
    22   11   34 1
    23   12   13 ar
    24   12   35 1
    25   13   14 1
    26   14   15 2
    27   14   16 am
    28   16   17 1
    29   16   20 1
    30   17   18 1
    31   18   19 1
    32   18   36 1
    33   18   37 1
    34   19   38 1
    35   20   21 1
    36   20   39 1
    37   20   40 1
    38   21   26 1
    39   21   22 1
    40   21   41 1
    41   22   23 1
    42   22   42 1
    43   22   43 1
    44   23   24 1
    45   23   44 1
    46   23   45 1
    47   24   25 1
    48   24   46 1
    49   24   47 1
    50   25   26 1
    51   25   48 1
    52   25   49 1
    53   26   50 1
    54   26   51 1
