@<TRIPOS>MOLECULE
ZINC03832073
   39    42     0     0     0
SMALL
USER_CHARGES

@<TRIPOS>ATOM
      1 C1          0.4374    0.9197    0.3645 C.ar      1 <0>        -0.0693
      2 C2          1.7301    1.3958    0.4360 C.ar      1 <0>        -0.1506
      3 C3          2.7999    0.5258    0.3005 C.ar      1 <0>         0.1017
      4 C4          2.5777   -0.8261    0.0927 C.ar      1 <0>        -0.1512
      5 C5          1.2889   -1.3124    0.0196 C.ar      1 <0>        -0.0734
      6 C6          0.2082   -0.4406    0.1555 C.ar      1 <0>        -0.0067
      7 C7         -1.1771   -0.9571    0.0784 C.2       1 <0>        -0.2402
      8 C8         -1.7925   -1.5086   -1.0319 C.2       1 <0>         0.2412
      9 N1         -3.0722   -1.8595   -0.6780 N.pl3     1 <0>        -0.4871
     10 N2         -3.2874   -1.5349    0.6650 N.am      1 <0>        -0.3483
     11 C9         -2.1609   -0.9894    1.1656 C.2       1 <0>         0.5466
     12 O1         -1.9928   -0.5949    2.3051 O.2       1 <0>        -0.5036
     13 C10        -4.4746   -1.7467    1.3740 C.ar      1 <0>         0.1667
     14 C11        -4.5640   -1.3727    2.7086 C.ar      1 <0>        -0.1264
     15 C12        -5.7372   -1.5830    3.4062 C.ar      1 <0>        -0.0733
     16 C13        -6.8231   -2.1657    2.7767 C.ar      1 <0>        -0.0529
     17 C14        -6.7367   -2.5392    1.4470 C.ar      1 <0>        -0.0769
     18 C15        -5.5678   -2.3260    0.7430 C.ar      1 <0>        -0.1459
     19 Cl1        -8.2961   -2.4290    3.6567 Cl        1 <0>        -0.0601
     20 C16        -1.1805   -1.6879   -2.3638 C.ar      1 <0>        -0.0076
     21 C17        -1.3085   -2.8974   -3.0583 C.ar      1 <0>        -0.1514
     22 C18        -0.7205   -3.0205   -4.3008 C.ar      1 <0>         0.1068
     23 N3         -0.0466   -2.0198   -4.8336 N.ar      1 <0>        -0.4700
     24 C19         0.0985   -0.8643   -4.2146 C.ar      1 <0>         0.1090
     25 C20        -0.4605   -0.6511   -2.9709 C.ar      1 <0>        -0.1268
     26 F1          4.0641    0.9971    0.3707 F         1 <0>        -0.1386
     27 H1         -0.3958    1.5980    0.4747 H         1 <0>         0.1330
     28 H2          1.9086    2.4487    0.5975 H         1 <0>         0.1383
     29 H3          3.4150   -1.5000   -0.0127 H         1 <0>         0.1371
     30 H4          1.1167   -2.3662   -0.1427 H         1 <0>         0.1295
     31 H5         -3.7250   -2.2682   -1.2677 H         1 <0>         0.4460
     32 H6         -3.7167   -0.9183    3.2005 H         1 <0>         0.1682
     33 H7         -5.8071   -1.2927    4.4441 H         1 <0>         0.1465
     34 H8         -7.5857   -2.9937    0.9580 H         1 <0>         0.1434
     35 H9         -5.5025   -2.6133   -0.2960 H         1 <0>         0.1302
     36 H10        -1.8586   -3.7212   -2.6280 H         1 <0>         0.1400
     37 H11        -0.8132   -3.9493   -4.8441 H         1 <0>         0.1645
     38 H12         0.6590   -0.0726   -4.6893 H         1 <0>         0.1660
     39 H13        -0.3412    0.2991   -2.4717 H         1 <0>         0.1454
@<TRIPOS>BOND
     1    1    6 ar
     2    1    2 ar
     3    1   27 1
     4    2    3 ar
     5    2   28 1
     6    3    4 ar
     7    3   26 1
     8    4    5 ar
     9    4   29 1
    10    5    6 ar
    11    5   30 1
    12    6    7 1
    13    7    8 2
    14    7   11 1
    15    8    9 1
    16    8   20 1
    17    9   10 1
    18    9   31 1
    19   10   11 am
    20   10   13 1
    21   11   12 2
    22   13   18 ar
    23   13   14 ar
    24   14   15 ar
    25   14   32 1
    26   15   16 ar
    27   15   33 1
    28   16   17 ar
    29   16   19 1
    30   17   18 ar
    31   17   34 1
    32   18   35 1
    33   20   25 ar
    34   20   21 ar
    35   21   22 ar
    36   21   36 1
    37   22   23 ar
    38   22   37 1
    39   23   24 ar
    40   24   25 ar
    41   24   38 1
    42   25   39 1
