@<TRIPOS>MOLECULE
ZINC06733272
   46    48     0     0     0
SMALL
USER_CHARGES
3,4-bis(2-hydroxyethylsulfanyl)-1-(4-phenylphenyl)-pyrrole-2,5-dione
@<TRIPOS>ATOM
      1 C1         -8.2884  -10.4819   -1.0283 C.ar      1 <0>        -0.1165
      2 C2         -8.6802   -9.2327   -0.5818 C.ar      1 <0>        -0.1170
      3 C3         -7.7519   -8.2190   -0.4575 C.ar      1 <0>        -0.1095
      4 C4         -6.4176   -8.4560   -0.7824 C.ar      1 <0>        -0.0485
      5 C5         -6.0294   -9.7151   -1.2364 C.ar      1 <0>        -0.1095
      6 C6         -6.9654  -10.7226   -1.3526 C.ar      1 <0>        -0.1169
      7 C7         -5.4153   -7.3702   -0.6514 C.ar      1 <0>        -0.0468
      8 C8         -4.0810   -7.6088   -0.9768 C.ar      1 <0>        -0.0884
      9 C9         -3.1514   -6.5980   -0.8547 C.ar      1 <0>        -0.1320
     10 C10        -3.5436   -5.3422   -0.4076 C.ar      1 <0>         0.1233
     11 C11        -4.8720   -5.1035   -0.0772 C.ar      1 <0>        -0.1319
     12 C12        -5.8063   -6.1095   -0.2031 C.ar      1 <0>        -0.0884
     13 N1         -2.5977   -4.3174   -0.2843 N.am      1 <0>        -0.5177
     14 C13        -1.2892   -4.4374   -0.5692 C.2       1 <0>         0.5585
     15 O1         -0.7400   -5.4432   -0.9724 O.2       1 <0>        -0.4220
     16 C14        -0.6337   -3.1403   -0.3153 C.2       1 <0>        -0.1038
     17 C15        -1.6092   -2.2933    0.1274 C.2       1 <0>        -0.1048
     18 C16        -2.8643   -3.0685    0.1367 C.2       1 <0>         0.5587
     19 O2         -3.9549   -2.6493    0.4691 O.2       1 <0>        -0.4220
     20 S1         -1.4094   -0.6047    0.5894 S.3       1 <0>        -0.0107
     21 C17        -1.7811   -0.5886    2.3649 C.3       1 <0>        -0.1221
     22 C18        -1.6278    0.8346    2.9051 C.3       1 <0>         0.0952
     23 O3         -1.8585    0.8362    4.3154 O.3       1 <0>        -0.5675
     24 S2          1.0723   -2.7598   -0.5370 S.3       1 <0>        -0.0093
     25 C19         1.3299   -2.9239   -2.3251 C.3       1 <0>        -0.1226
     26 C20         2.7838   -2.5887   -2.6638 C.3       1 <0>         0.0953
     27 O4          3.0030   -2.7794   -4.0630 O.3       1 <0>        -0.5674
     28 H1         -9.0182  -11.2721   -1.1244 H         1 <0>         0.1240
     29 H2         -9.7145   -9.0502   -0.3302 H         1 <0>         0.1256
     30 H3         -8.0590   -7.2438   -0.1094 H         1 <0>         0.1260
     31 H4         -4.9975   -9.9029   -1.4938 H         1 <0>         0.1260
     32 H5         -6.6651  -11.6997   -1.7011 H         1 <0>         0.1256
     33 H6         -3.7756   -8.5849   -1.3240 H         1 <0>         0.1368
     34 H7         -2.1176   -6.7824   -1.1070 H         1 <0>         0.1559
     35 H8         -5.1737   -4.1279    0.2743 H         1 <0>         0.1559
     36 H9         -6.8395   -5.9223    0.0496 H         1 <0>         0.1368
     37 H10        -1.0910   -1.2516    2.8866 H         1 <0>         0.1014
     38 H11        -2.8039   -0.9298    2.5251 H         1 <0>         0.1011
     39 H12        -0.6190    1.1938    2.7015 H         1 <0>         0.0622
     40 H13        -2.3514    1.4881    2.4179 H         1 <0>         0.0609
     41 H14        -1.8446    1.7166    4.7152 H         1 <0>         0.3901
     42 H15         1.1121   -3.9472   -2.6311 H         1 <0>         0.1021
     43 H16         0.6666   -2.2381   -2.8522 H         1 <0>         0.1008
     44 H17         2.9877   -1.5504   -2.4023 H         1 <0>         0.0627
     45 H18         3.4484   -3.2429   -2.0995 H         1 <0>         0.0604
     46 H19         3.9210   -2.6507   -4.3384 H         1 <0>         0.3901
@<TRIPOS>BOND
     1    1    6 ar
     2    1    2 ar
     3    1   28 1
     4    2    3 ar
     5    2   29 1
     6    3    4 ar
     7    3   30 1
     8    4    5 ar
     9    4    7 1
    10    5    6 ar
    11    5   31 1
    12    6   32 1
    13    7   12 ar
    14    7    8 ar
    15    8    9 ar
    16    8   33 1
    17    9   10 ar
    18    9   34 1
    19   10   11 ar
    20   10   13 1
    21   11   12 ar
    22   11   35 1
    23   12   36 1
    24   13   18 am
    25   13   14 am
    26   14   15 2
    27   14   16 1
    28   16   17 2
    29   16   24 1
    30   17   18 1
    31   17   20 1
    32   18   19 2
    33   20   21 1
    34   21   22 1
    35   21   37 1
    36   21   38 1
    37   22   23 1
    38   22   39 1
    39   22   40 1
    40   23   41 1
    41   24   25 1
    42   25   26 1
    43   25   42 1
    44   25   43 1
    45   26   27 1
    46   26   44 1
    47   26   45 1
    48   27   46 1
@<TRIPOS>MOLECULE
ZINC00468456
   17    18     0     0     0
SMALL
USER_CHARGES
6,7-dichloroquinoline-5,8-dione
@<TRIPOS>ATOM
      1 C1          2.2959    5.9902   -0.8568 C.ar      1 <0>        -0.1455
      2 C2          2.3980    4.6307   -0.5875 C.ar      1 <0>        -0.0137
      3 C3          1.2294    3.9336   -0.2938 C.ar      1 <0>        -0.1750
      4 C4          0.0035    4.6200   -0.2797 C.ar      1 <0>         0.1123
      5 N1         -0.0391    5.9147   -0.5426 N.ar      1 <0>        -0.4313
      6 C5          1.0534    6.5983   -0.8239 C.ar      1 <0>         0.1297
      7 C6         -1.2340    3.8611    0.0349 C.2       1 <0>         0.4382
      8 O1         -2.2646    4.4483    0.2960 O.2       1 <0>        -0.3567
      9 C7         -1.1978    2.3856    0.0207 C.2       1 <0>        -0.0683
     10 C8         -0.0215    1.7317    0.0116 C.2       1 <0>        -0.0721
     11 C9          1.2502    2.4846    0.0035 C.2       1 <0>         0.4401
     12 O2          2.2999    1.9203    0.2385 O.2       1 <0>        -0.3844
     13 Cl1         0.0021   -0.0041    0.0020 Cl        1 <0>         0.0121
     14 Cl2        -2.6831    1.4870    0.0225 Cl        1 <0>         0.0149
     15 H1          3.1787    6.5671   -1.0898 H         1 <0>         0.1593
     16 H2          3.3549    4.1302   -0.6055 H         1 <0>         0.1615
     17 H3          0.9764    7.6550   -1.0333 H         1 <0>         0.1788
@<TRIPOS>BOND
     1    1    6 ar
     2    1    2 ar
     3    1   15 1
     4    2    3 ar
     5    2   16 1
     6    3   11 1
     7    3    4 ar
     8    4    5 ar
     9    4    7 1
    10    5    6 ar
    11    6   17 1
    12    7    8 2
    13    7    9 1
    14    9   10 2
    15    9   14 1
    16   10   11 1
    17   10   13 1
    18   11   12 2
@<TRIPOS>MOLECULE
ZINC00901191
   20    21     0     0     0
SMALL
USER_CHARGES
5,8-dihydroxynaphthalene-1,4-dione
@<TRIPOS>ATOM
      1 C1          1.1956   -0.6856   -0.0131 C.ar      1 <0>        -0.1087
      2 C2          0.0021   -0.0041    0.0020 C.ar      1 <0>        -0.1087
      3 C3         -0.0169    1.3937    0.0097 C.ar      1 <0>         0.1561
      4 C4          1.1850    2.1028    0.0020 C.ar      1 <0>        -0.1452
      5 C5          2.4090    1.4038   -0.0134 C.ar      1 <0>        -0.1453
      6 C6          2.4090    0.0083   -0.0209 C.ar      1 <0>         0.1562
      7 O1          3.5812   -0.6717   -0.0353 O.3       1 <0>        -0.4752
      8 C7          3.6728    2.1606   -0.0218 C.2       1 <0>         0.4112
      9 O2          4.7367    1.5719   -0.0347 O.2       1 <0>        -0.4064
     10 C8          3.6429    3.6345   -0.0141 C.2       1 <0>        -0.1399
     11 C9          2.4792    4.2991    0.0005 C.2       1 <0>        -0.1399
     12 C10         1.1946    3.5759    0.0093 C.2       1 <0>         0.4112
     13 O3          0.1470    4.1930    0.0222 O.2       1 <0>        -0.4064
     14 O4         -1.1982    2.0577    0.0189 O.3       1 <0>        -0.4751
     15 H1          1.1958   -1.7656   -0.0185 H         1 <0>         0.1499
     16 H2         -0.9282   -0.5526    0.0083 H         1 <0>         0.1499
     17 H3          3.9131   -0.8645   -0.9228 H         1 <0>         0.4012
     18 H4          4.5714    4.1861   -0.0199 H         1 <0>         0.1570
     19 H5          2.4826    5.3790    0.0063 H         1 <0>         0.1570
     20 H6         -1.5369    2.2456    0.9049 H         1 <0>         0.4012
@<TRIPOS>BOND
     1    1    6 ar
     2    1    2 ar
     3    1   15 1
     4    2    3 ar
     5    2   16 1
     6    3    4 ar
     7    3   14 1
     8    4   12 1
     9    4    5 ar
    10    5    6 ar
    11    5    8 1
    12    6    7 1
    13    7   17 1
    14    8    9 2
    15    8   10 1
    16   10   11 2
    17   10   18 1
    18   11   12 1
    19   11   19 1
    20   12   13 2
    21   14   20 1
@<TRIPOS>MOLECULE
ZINC01648910
   17    18     0     0     0
SMALL
USER_CHARGES
quinoline-5,8-dione
@<TRIPOS>ATOM
      1 C1         -3.6663    3.3188    0.0611 C.ar      1 <0>        -0.1522
      2 C2         -2.4983    4.0193    0.3362 C.ar      1 <0>        -0.0226
      3 C3         -1.2960    3.3173    0.3180 C.ar      1 <0>        -0.1827
      4 C4         -1.3059    1.9434    0.0188 C.ar      1 <0>         0.1024
      5 N1         -2.4453    1.3233   -0.2295 N.ar      1 <0>        -0.4389
      6 C5         -3.5975    1.9651   -0.2183 C.ar      1 <0>         0.1225
      7 C6         -0.0144    1.2101    0.0087 C.2       1 <0>         0.4186
      8 O1          0.0021   -0.0041    0.0020 O.2       1 <0>        -0.3889
      9 C7          1.2493    1.9738    0.0007 C.2       1 <0>        -0.1334
     10 C8          1.2542    3.2863    0.2800 C.2       1 <0>        -0.1391
     11 C9         -0.0076    3.9868    0.5995 C.2       1 <0>         0.4193
     12 O2          0.0134    5.0988    1.0879 O.2       1 <0>        -0.4163
     13 H1         -4.6196    3.8263    0.0655 H         1 <0>         0.1539
     14 H2         -2.5223    5.0761    0.5579 H         1 <0>         0.1559
     15 H3         -4.5066    1.4228   -0.4321 H         1 <0>         0.1733
     16 H4          2.1769    1.4721   -0.2320 H         1 <0>         0.1653
     17 H5          2.1850    3.8339    0.2709 H         1 <0>         0.1629
@<TRIPOS>BOND
     1    1    6 ar
     2    1    2 ar
     3    1   13 1
     4    2    3 ar
     5    2   14 1
     6    3   11 1
     7    3    4 ar
     8    4    5 ar
     9    4    7 1
    10    5    6 ar
    11    6   15 1
    12    7    8 2
    13    7    9 1
    14    9   10 2
    15    9   16 1
    16   10   11 1
    17   10   17 1
    18   11   12 2
@<TRIPOS>MOLECULE
ZINC01642928
   35    37     0     0     0
SMALL
USER_CHARGES

@<TRIPOS>ATOM
      1 C1         -0.0167    1.3827    0.0096 C.ar      1 <0>        -0.1586
      2 C2          1.1766    2.0854    0.0020 C.ar      1 <0>        -0.0540
      3 C3          2.3708    1.3579   -0.0141 C.ar      1 <0>        -0.0755
      4 C4          2.3035   -0.0486   -0.0244 C.ar      1 <0>         0.0629
      5 N1          1.1372   -0.6719   -0.0141 N.ar      1 <0>        -0.4432
      6 C5          0.0021   -0.0041    0.0020 C.ar      1 <0>         0.0795
      7 C6          3.5802   -0.8075   -0.0506 C.2       1 <0>         0.4631
      8 O1          3.6593   -1.9560    0.3349 O.2       1 <0>        -0.4147
      9 C7          4.7668   -0.0579   -0.5869 C.2       1 <0>         0.2011
     10 N2          5.7005   -0.6523   -1.2796 N.2       1 <0>        -0.5409
     11 C8          6.8407    0.1171   -1.7837 C.3       1 <0>         0.0470
     12 C9          8.1241   -0.3723   -1.1098 C.3       1 <0>        -0.0735
     13 C10         9.2971    0.4192   -1.6283 C.ar      1 <0>        -0.0658
     14 C11         9.9847   -0.0178   -2.7453 C.ar      1 <0>        -0.0592
     15 C12        11.0613    0.7059   -3.2228 C.ar      1 <0>        -0.1127
     16 C13        11.4514    1.8725   -2.5803 C.ar      1 <0>         0.1513
     17 C14        10.7590    2.3091   -1.4596 C.ar      1 <0>        -0.1105
     18 C15         9.6800    1.5841   -0.9895 C.ar      1 <0>        -0.0560
     19 Br1        11.2867    3.8981   -0.5806 Br        1 <0>        -0.0277
     20 O2         12.5099    2.5860   -3.0474 O.3       1 <0>        -0.4755
     21 Br2        12.0020    0.1067   -4.7499 Br        1 <0>        -0.0318
     22 C16         4.8197    1.3829   -0.2896 C.2       1 <0>        -0.4539
     23 C17         3.6705    2.0463   -0.0191 C.2       1 <0>         0.3018
     24 O3          3.7189    3.3731    0.2520 O.3       1 <0>        -0.6915
     25 H1         -0.9579    1.9122    0.0260 H         1 <0>         0.1361
     26 H2          1.1847    3.1654    0.0080 H         1 <0>         0.1472
     27 H3         -0.9317   -0.5466    0.0095 H         1 <0>         0.1579
     28 H4          6.9222   -0.0184   -2.8622 H         1 <0>         0.0723
     29 H5          6.6932    1.1738   -1.5604 H         1 <0>         0.0617
     30 H6          8.0426   -0.2367   -0.0313 H         1 <0>         0.0782
     31 H7          8.2716   -1.4289   -1.3331 H         1 <0>         0.0837
     32 H8          9.6807   -0.9258   -3.2449 H         1 <0>         0.1445
     33 H9          9.1383    1.9255   -0.1198 H         1 <0>         0.1463
     34 H10        12.2733    3.2590   -3.7002 H         1 <0>         0.3951
     35 H11         5.7650    1.9053   -0.2868 H         1 <0>         0.1154
@<TRIPOS>BOND
     1    1    6 ar
     2    1    2 ar
     3    1   25 1
     4    2    3 ar
     5    2   26 1
     6    3   23 1
     7    3    4 ar
     8    4    5 ar
     9    4    7 1
    10    5    6 ar
    11    6   27 1
    12    7    8 2
    13    7    9 1
    14    9   10 2
    15    9   22 1
    16   10   11 1
    17   11   12 1
    18   11   28 1
    19   11   29 1
    20   12   13 1
    21   12   30 1
    22   12   31 1
    23   13   18 ar
    24   13   14 ar
    25   14   15 ar
    26   14   32 1
    27   15   16 ar
    28   15   21 1
    29   16   17 ar
    30   16   20 1
    31   17   18 ar
    32   17   19 1
    33   18   33 1
    34   20   34 1
    35   22   23 2
    36   22   35 1
    37   23   24 1
@<TRIPOS>MOLECULE
ZINC01642928
   35    37     0     0     0
SMALL
USER_CHARGES

@<TRIPOS>ATOM
      1 C1         -0.0522    0.8971    0.5348 C.ar      1 <0>        -0.1546
      2 C2          1.0527    1.7045    0.3165 C.ar      1 <0>        -0.0269
      3 C3          2.3081    1.0944    0.2233 C.ar      1 <0>        -0.1731
      4 C4          2.3970   -0.3034    0.3632 C.ar      1 <0>         0.1113
      5 N1          1.3075   -1.0282    0.5639 N.ar      1 <0>        -0.4401
      6 C5          0.1156   -0.4742    0.6511 C.ar      1 <0>         0.1227
      7 C6          3.7308   -0.9584    0.2948 C.2       1 <0>         0.4532
      8 O1          3.8842   -2.1215    0.6071 O.2       1 <0>        -0.3774
      9 C7          4.8731   -0.1177   -0.1768 C.2       1 <0>         0.0992
     10 N2          5.8027   -0.5931   -0.9343 N.2       1 <0>        -0.4200
     11 C8          6.9808    0.2199   -1.2462 C.3       1 <0>         0.0204
     12 C9          6.9920    0.5493   -2.7403 C.3       1 <0>        -0.0392
     13 C10         8.2039    1.3856   -3.0612 C.ar      1 <0>        -0.2346
     14 C11         8.1299    2.7643   -2.9878 C.ar      1 <0>        -0.0195
     15 C12         9.2399    3.5339   -3.2820 C.ar      1 <0>        -0.2200
     16 C13        10.4293    2.9215   -3.6509 C.ar      1 <0>         0.3082
     17 C14        10.5008    1.5375   -3.7233 C.ar      1 <0>        -0.2204
     18 C15         9.3892    0.7726   -3.4229 C.ar      1 <0>        -0.0171
     19 Br1        12.1194    0.6984   -4.2254 Br        1 <0>        -0.0890
     20 O2         11.5222    3.6759   -3.9412 O.3       1 <0>        -0.6649
     21 Br2         9.1374    5.4195   -3.1826 Br        1 <0>        -0.0891
     22 C16         4.8761    1.3289    0.2867 C.3       1 <0>        -0.1753
     23 C17         3.5119    1.9067   -0.0216 C.2       1 <0>         0.4116
     24 O3          3.4107    3.0296   -0.4671 O.2       1 <0>        -0.4237
     25 H1         -1.0365    1.3334    0.6184 H         1 <0>         0.1512
     26 H2          0.9474    2.7750    0.2205 H         1 <0>         0.1549
     27 H3         -0.7483   -1.1008    0.8168 H         1 <0>         0.1718
     28 H4          6.9467    1.1448   -0.6705 H         1 <0>         0.0636
     29 H5          7.8833   -0.3348   -0.9896 H         1 <0>         0.1090
     30 H6          7.0260   -0.3756   -3.3160 H         1 <0>         0.0724
     31 H7          6.0895    1.1040   -2.9968 H         1 <0>         0.0593
     32 H8          7.2040    3.2403   -2.7006 H         1 <0>         0.1052
     33 H9          9.4454   -0.3047   -3.4752 H         1 <0>         0.1077
     34 H10         5.0635    1.3737    1.3596 H         1 <0>         0.1335
     35 H11         5.6444    1.8875   -0.2479 H         1 <0>         0.1298
@<TRIPOS>BOND
     1    1    6 ar
     2    1    2 ar
     3    1   25 1
     4    2    3 ar
     5    2   26 1
     6    3   23 1
     7    3    4 ar
     8    4    5 ar
     9    4    7 1
    10    5    6 ar
    11    6   27 1
    12    7    8 2
    13    7    9 1
    14    9   10 2
    15    9   22 1
    16   10   11 1
    17   11   12 1
    18   11   28 1
    19   11   29 1
    20   12   13 1
    21   12   30 1
    22   12   31 1
    23   13   18 ar
    24   13   14 ar
    25   14   15 ar
    26   14   32 1
    27   15   16 ar
    28   15   21 1
    29   16   17 ar
    30   16   20 1
    31   17   18 ar
    32   17   19 1
    33   18   33 1
    34   22   23 1
    35   22   34 1
    36   22   35 1
    37   23   24 2
@<TRIPOS>MOLECULE
ZINC01642928
   36    38     0     0     0
SMALL
USER_CHARGES

@<TRIPOS>ATOM
      1 C1          2.8621   -5.0362   -4.1390 C.ar      1 <0>        -0.1508
      2 C2          4.0460   -4.3682   -4.4082 C.ar      1 <0>        -0.0245
      3 C3          4.3637   -3.2489   -3.6317 C.ar      1 <0>        -0.1791
      4 C4          3.4694   -2.8453   -2.6224 C.ar      1 <0>         0.1099
      5 N1          2.3546   -3.5247   -2.4030 N.ar      1 <0>        -0.4383
      6 C5          2.0383   -4.5834   -3.1200 C.ar      1 <0>         0.1281
      7 C6          3.7841   -1.6391   -1.8107 C.2       1 <0>         0.4498
      8 O1          2.9606   -1.1366   -1.0737 O.2       1 <0>        -0.3689
      9 C7          5.1618   -1.0750   -1.9446 C.2       1 <0>         0.1193
     10 N2          5.8027   -0.5931   -0.9343 N.2       1 <0>        -0.4288
     11 C8          7.0840    0.0876   -1.1365 C.3       1 <0>         0.0214
     12 C9          8.2026   -0.7261   -0.4826 C.3       1 <0>        -0.0740
     13 C10         9.5207   -0.0258   -0.6906 C.ar      1 <0>        -0.0839
     14 C11        10.2806   -0.3044   -1.8115 C.ar      1 <0>        -0.0580
     15 C12        11.4904    0.3361   -2.0047 C.ar      1 <0>        -0.1139
     16 C13        11.9416    1.2598   -1.0725 C.ar      1 <0>         0.1637
     17 C14        11.1765    1.5378    0.0514 C.ar      1 <0>        -0.1140
     18 C15         9.9651    0.8982    0.2369 C.ar      1 <0>        -0.0546
     19 Br1        11.7872    2.7958    1.3245 Br        1 <0>        -0.0186
     20 O2         13.1310    1.8908   -1.2598 O.3       1 <0>        -0.4729
     21 Br2        12.5296   -0.0465   -3.5375 Br        1 <0>        -0.0187
     22 C16         5.7640   -1.1024   -3.3390 C.3       1 <0>        -0.1766
     23 C17         5.6167   -2.5121   -3.8690 C.2       1 <0>         0.4133
     24 O3          6.5233   -3.0313   -4.4839 O.2       1 <0>        -0.4247
     25 H1          2.5810   -5.9009   -4.7218 H         1 <0>         0.1543
     26 H2          4.7053   -4.7028   -5.1955 H         1 <0>         0.1560
     27 H3          1.1185   -5.1091   -2.9101 H         1 <0>         0.1750
     28 H4          7.2805    0.1825   -2.2045 H         1 <0>         0.0666
     29 H5          7.0441    1.0789   -0.6850 H         1 <0>         0.1113
     30 H6          8.0062   -0.8209    0.5854 H         1 <0>         0.0959
     31 H7          8.2425   -1.7173   -0.9341 H         1 <0>         0.0824
     32 H8          9.9290   -1.0234   -2.5367 H         1 <0>         0.1441
     33 H9          9.3674    1.1171    1.1094 H         1 <0>         0.1467
     34 H10        13.0633    2.7190   -1.7543 H         1 <0>         0.3998
     35 H11         5.2312   -0.4058   -3.9863 H         1 <0>         0.1380
     36 H12         6.8191   -0.8327   -3.2921 H         1 <0>         0.1247
@<TRIPOS>BOND
     1    1    6 ar
     2    1    2 ar
     3    1   25 1
     4    2    3 ar
     5    2   26 1
     6    3   23 1
     7    3    4 ar
     8    4    5 ar
     9    4    7 1
    10    5    6 ar
    11    6   27 1
    12    7    8 2
    13    7    9 1
    14    9   10 2
    15    9   22 1
    16   10   11 1
    17   11   12 1
    18   11   28 1
    19   11   29 1
    20   12   13 1
    21   12   30 1
    22   12   31 1
    23   13   18 ar
    24   13   14 ar
    25   14   15 ar
    26   14   32 1
    27   15   16 ar
    28   15   21 1
    29   16   17 ar
    30   16   20 1
    31   17   18 ar
    32   17   19 1
    33   18   33 1
    34   20   34 1
    35   22   23 1
    36   22   35 1
    37   22   36 1
    38   23   24 2
@<TRIPOS>MOLECULE
ZINC01642928
   36    38     0     0     0
SMALL
USER_CHARGES

@<TRIPOS>ATOM
      1 C1          9.8274   -1.5522    3.7083 C.ar      1 <0>        -0.1491
      2 C2          8.8779   -0.5582    3.5333 C.ar      1 <0>        -0.0258
      3 C3          8.2588   -0.4492    2.2836 C.ar      1 <0>        -0.1765
      4 C4          8.6302   -1.3418    1.2605 C.ar      1 <0>         0.0993
      5 N1          9.5390   -2.2781    1.4843 N.ar      1 <0>        -0.4392
      6 C5         10.1313   -2.4003    2.6546 C.ar      1 <0>         0.1247
      7 C6          7.9989   -1.2154   -0.0804 C.2       1 <0>         0.4006
      8 O1          8.4245   -1.8211   -1.0427 O.2       1 <0>        -0.3830
      9 C7          6.8159   -0.3082   -0.1876 C.2       1 <0>         0.1228
     10 C8          6.8752    0.9694    0.6322 C.3       1 <0>        -0.1120
     11 C9          7.2334    0.5819    2.0505 C.2       1 <0>         0.4091
     12 O2          6.6800    1.1158    2.9877 O.2       1 <0>        -0.4209
     13 N2          5.8030   -0.5935   -0.9336 N.2       1 <0>        -0.4246
     14 C10         5.7231   -1.8997   -1.5921 C.3       1 <0>         0.0177
     15 C11         5.8068   -1.7124   -3.1083 C.3       1 <0>        -0.0661
     16 C12         5.7246   -3.0560   -3.7857 C.ar      1 <0>        -0.0833
     17 C13         6.8793   -3.7737   -4.0372 C.ar      1 <0>        -0.0521
     18 C14         6.8069   -5.0063   -4.6589 C.ar      1 <0>        -0.1143
     19 C15         5.5737   -5.5234   -5.0301 C.ar      1 <0>         0.1625
     20 C16         4.4163   -4.8010   -4.7760 C.ar      1 <0>        -0.1154
     21 C17         4.4942   -3.5713   -4.1494 C.ar      1 <0>        -0.0562
     22 Br1         2.7337   -5.5015   -5.2800 Br        1 <0>        -0.0208
     23 O3          5.4996   -6.7350   -5.6420 O.3       1 <0>        -0.4732
     24 Br2         8.3867   -5.9866   -5.0036 Br        1 <0>        -0.0199
     25 H1         10.3305   -1.6625    4.6575 H         1 <0>         0.1541
     26 H2          8.6226    0.1135    4.3395 H         1 <0>         0.1569
     27 H3         10.8686   -3.1767    2.7959 H         1 <0>         0.1736
     28 H4          7.6372    1.6348    0.2264 H         1 <0>         0.1370
     29 H5          5.9042    1.4643    0.6174 H         1 <0>         0.1332
     30 H6          6.5495   -2.5265   -1.2572 H         1 <0>         0.0675
     31 H7          4.7775   -2.3780   -1.3368 H         1 <0>         0.1042
     32 H8          4.9804   -1.0855   -3.4431 H         1 <0>         0.0927
     33 H9          6.7524   -1.2340   -3.3636 H         1 <0>         0.0849
     34 H10         7.8387   -3.3708   -3.7481 H         1 <0>         0.1465
     35 H11         3.5936   -3.0105   -3.9477 H         1 <0>         0.1457
     36 H12         5.4060   -7.4789   -5.0313 H         1 <0>         0.3990
@<TRIPOS>BOND
     1    1    6 ar
     2    1    2 ar
     3    1   25 1
     4    2    3 ar
     5    2   26 1
     6    3   11 1
     7    3    4 ar
     8    4    5 ar
     9    4    7 1
    10    5    6 ar
    11    6   27 1
    12    7    8 2
    13    7    9 1
    14    9   13 2
    15    9   10 1
    16   10   11 1
    17   10   28 1
    18   10   29 1
    19   11   12 2
    20   13   14 1
    21   14   15 1
    22   14   30 1
    23   14   31 1
    24   15   16 1
    25   15   32 1
    26   15   33 1
    27   16   21 ar
    28   16   17 ar
    29   17   18 ar
    30   17   34 1
    31   18   19 ar
    32   18   24 1
    33   19   20 ar
    34   19   23 1
    35   20   21 ar
    36   20   22 1
    37   21   35 1
    38   23   36 1
@<TRIPOS>MOLECULE
ZINC01642928
   36    38     0     0     0
SMALL
USER_CHARGES

@<TRIPOS>ATOM
      1 C1         -0.0167    1.3798    0.0096 C.ar      1 <0>        -0.1459
      2 C2          1.1842    2.0792    0.0019 C.ar      1 <0>        -0.0284
      3 C3          2.3670    1.3466   -0.0130 C.ar      1 <0>        -0.1656
      4 C4          2.3062   -0.0567   -0.0196 C.ar      1 <0>         0.0984
      5 N1          1.1372   -0.6750   -0.0125 N.ar      1 <0>        -0.4361
      6 C5          0.0021   -0.0041    0.0020 C.ar      1 <0>         0.1162
      7 C6          3.5771   -0.8241   -0.0342 C.2       1 <0>         0.4362
      8 O1          3.5759   -2.0118   -0.2836 O.2       1 <0>        -0.3884
      9 C7          4.8501   -0.1176    0.2602 C.2       1 <0>         0.1856
     10 N2          5.9906   -0.8417    0.5297 N.pl3     1 <0>        -0.7016
     11 C8          7.2475   -0.1474    0.8204 C.3       1 <0>         0.1173
     12 C9          8.3494   -1.1760    1.0823 C.3       1 <0>        -0.0913
     13 C10         9.6424   -0.4619    1.3813 C.ar      1 <0>        -0.0833
     14 C11        10.5043   -0.1349    0.3509 C.ar      1 <0>        -0.0549
     15 C12        11.6912    0.5198    0.6223 C.ar      1 <0>        -0.1145
     16 C13        12.0170    0.8492    1.9305 C.ar      1 <0>         0.1653
     17 C14        11.1497    0.5202    2.9627 C.ar      1 <0>        -0.1146
     18 C15         9.9618   -0.1299    2.6849 C.ar      1 <0>        -0.0550
     19 Br1        11.5893    0.9670    4.7468 Br        1 <0>        -0.0184
     20 O2         13.1836    1.4926    2.2003 O.3       1 <0>        -0.4732
     21 Br2        12.8700    0.9655   -0.7875 Br        1 <0>        -0.0181
     22 C16         4.8936    1.2371    0.2640 C.2       1 <0>        -0.3043
     23 C17         3.6873    2.0173   -0.0216 C.2       1 <0>         0.4404
     24 O3          3.7694    3.2062   -0.2643 O.2       1 <0>        -0.4448
     25 H1         -0.9565    1.9116    0.0259 H         1 <0>         0.1533
     26 H2          1.1989    3.1591    0.0070 H         1 <0>         0.1564
     27 H3         -0.9323   -0.5457    0.0078 H         1 <0>         0.1732
     28 H4          7.5250    0.4735   -0.0314 H         1 <0>         0.0791
     29 H5          7.1200    0.4809    1.7019 H         1 <0>         0.0792
     30 H6          8.0719   -1.7969    1.9341 H         1 <0>         0.0910
     31 H7          8.4769   -1.8044    0.2008 H         1 <0>         0.0913
     32 H8         10.2502   -0.3915   -0.6669 H         1 <0>         0.1456
     33 H9          9.2846   -0.3826    3.4874 H         1 <0>         0.1456
     34 H10        13.1139    2.4570    2.1838 H         1 <0>         0.4006
     35 H11         5.8226    1.7440    0.4795 H         1 <0>         0.1511
     36 H12         5.9614   -1.8112    0.5271 H         1 <0>         0.4127
@<TRIPOS>BOND
     1    1    6 ar
     2    1    2 ar
     3    1   25 1
     4    2    3 ar
     5    2   26 1
     6    3   23 1
     7    3    4 ar
     8    4    5 ar
     9    4    7 1
    10    5    6 ar
    11    6   27 1
    12    7    8 2
    13    7    9 1
    14    9   10 1
    15    9   22 2
    16   10   11 1
    17   10   36 1
    18   11   12 1
    19   11   28 1
    20   11   29 1
    21   12   13 1
    22   12   30 1
    23   12   31 1
    24   13   18 ar
    25   13   14 ar
    26   14   15 ar
    27   14   32 1
    28   15   16 ar
    29   15   21 1
    30   16   17 ar
    31   16   20 1
    32   17   18 ar
    33   17   19 1
    34   18   33 1
    35   20   34 1
    36   22   23 1
    37   22   35 1
    38   23   24 2
@<TRIPOS>MOLECULE
ZINC49739406
   38    40     0     0     0
SMALL
USER_CHARGES

@<TRIPOS>ATOM
      1 C1         -0.0167    1.3821    0.0096 C.ar      1 <0>        -0.1484
      2 C2          1.1794    2.0817    0.0020 C.ar      1 <0>        -0.0198
      3 C3          2.3718    1.3504   -0.0155 C.ar      1 <0>        -0.1764
      4 C4          2.3071   -0.0556   -0.0335 C.ar      1 <0>         0.1071
      5 N1          1.1364   -0.6735   -0.0182 N.ar      1 <0>        -0.4368
      6 C5          0.0021   -0.0041    0.0020 C.ar      1 <0>         0.1293
      7 C6          3.5689   -0.8418   -0.0816 C.2       1 <0>         0.4012
      8 O1          3.5656   -2.0358   -0.3012 O.2       1 <0>        -0.3675
      9 C7          4.8411   -0.0929    0.1525 C.2       1 <0>         0.1080
     10 C8          4.9154    1.3032   -0.4418 C.3       1 <0>        -0.0039
     11 C9          3.6697    2.0464   -0.0107 C.2       1 <0>         0.4104
     12 O2          3.7397    3.2059    0.3364 O.2       1 <0>        -0.3963
     13 Cl1         4.9760    1.2008   -2.2409 Cl        1 <0>        -0.0949
     14 N2          5.8194   -0.6026    0.8210 N.2       1 <0>        -0.4016
     15 C10         5.7022   -1.9532    1.3761 C.3       1 <0>         0.0070
     16 C11         6.7187   -2.8736    0.6975 C.3       1 <0>         0.0728
     17 N3          6.6012   -4.2279    1.2542 N.3       1 <0>        -0.5348
     18 C12         7.0050   -4.2535    2.6675 C.3       1 <0>         0.0118
     19 C13         6.8109   -5.6670    3.2227 C.3       1 <0>         0.0633
     20 O3          7.5587   -6.5923    2.4291 O.3       1 <0>        -0.3843
     21 C14         7.1907   -6.5942    1.0470 C.3       1 <0>         0.0633
     22 C15         7.3888   -5.1901    0.4699 C.3       1 <0>         0.0196
     23 H1         -0.9571    1.9131    0.0259 H         1 <0>         0.1567
     24 H2          1.1908    3.1616    0.0089 H         1 <0>         0.1589
     25 H3         -0.9320   -0.5460    0.0132 H         1 <0>         0.1762
     26 H4          5.8012    1.8176   -0.0692 H         1 <0>         0.1628
     27 H5          5.8977   -1.9237    2.4481 H         1 <0>         0.1036
     28 H6          4.6953   -2.3320    1.2007 H         1 <0>         0.0864
     29 H7          6.5233   -2.9031   -0.3744 H         1 <0>         0.0825
     30 H8          7.7256   -2.4948    0.8729 H         1 <0>         0.0503
     31 H9          8.0543   -3.9705    2.7514 H         1 <0>         0.0476
     32 H10         6.3919   -3.5526    3.2340 H         1 <0>         0.0862
     33 H11         7.1625   -5.7046    4.2537 H         1 <0>         0.1001
     34 H12         5.7535   -5.9295    3.1883 H         1 <0>         0.0612
     35 H13         7.8171   -7.3024    0.5046 H         1 <0>         0.1010
     36 H14         6.1444   -6.8836    0.9494 H         1 <0>         0.0620
     37 H15         7.0558   -5.1729   -0.5679 H         1 <0>         0.0891
     38 H16         8.4442   -4.9221    0.5186 H         1 <0>         0.0464
@<TRIPOS>BOND
     1    1    6 ar
     2    1    2 ar
     3    1   23 1
     4    2    3 ar
     5    2   24 1
     6    3   11 1
     7    3    4 ar
     8    4    5 ar
     9    4    7 1
    10    5    6 ar
    11    6   25 1
    12    7    8 2
    13    7    9 1
    14    9   14 2
    15    9   10 1
    16   10   11 1
    17   10   13 1
    18   10   26 1
    19   11   12 2
    20   14   15 1
    21   15   16 1
    22   15   27 1
    23   15   28 1
    24   16   17 1
    25   16   29 1
    26   16   30 1
    27   17   22 1
    28   17   18 1
    29   18   19 1
    30   18   31 1
    31   18   32 1
    32   19   20 1
    33   19   33 1
    34   19   34 1
    35   20   21 1
    36   21   22 1
    37   21   35 1
    38   21   36 1
    39   22   37 1
    40   22   38 1
@<TRIPOS>MOLECULE
ZINC49739406
   38    40     0     0     0
SMALL
USER_CHARGES

@<TRIPOS>ATOM
      1 C1         -0.0858    1.3073    0.4490 C.ar      1 <0>        -0.1492
      2 C2          1.0934    2.0345    0.4803 C.ar      1 <0>        -0.0190
      3 C3          2.3002    1.3417    0.3368 C.ar      1 <0>        -0.1779
      4 C4          2.2660   -0.0542    0.1588 C.ar      1 <0>         0.1150
      5 N1          1.1107   -0.7004    0.1437 N.ar      1 <0>        -0.4356
      6 C5         -0.0366   -0.0679    0.2808 C.ar      1 <0>         0.1318
      7 C6          3.5422   -0.7961   -0.0239 C.2       1 <0>         0.4530
      8 O1          3.5571   -1.9568   -0.3795 O.2       1 <0>        -0.3603
      9 C7          4.8055   -0.0457    0.2504 C.2       1 <0>         0.1106
     10 C8          4.8263    1.4107   -0.1809 C.3       1 <0>        -0.0694
     11 C9          3.5816    2.0666    0.3764 C.2       1 <0>         0.4132
     12 O2          3.6389    3.1801    0.8523 O.2       1 <0>        -0.3996
     13 Cl1         4.8210    1.5167   -1.9808 Cl        1 <0>        -0.0940
     14 N2          5.8194   -0.6026    0.8210 N.2       1 <0>        -0.4016
     15 C10         7.0871    0.1232    0.9324 C.3       1 <0>         0.0149
     16 C11         7.3861    0.4042    2.4064 C.3       1 <0>         0.0601
     17 N3          8.6572    1.1319    2.5182 N.3       1 <0>        -0.5367
     18 C12         9.7853    0.2901    2.0937 C.3       1 <0>         0.0107
     19 C13        11.0795    1.1046    2.1690 C.3       1 <0>         0.0632
     20 O3         11.2463    1.6031    3.4991 O.3       1 <0>        -0.3837
     21 C14        10.1660    2.4275    3.9447 C.3       1 <0>         0.0634
     22 C15         8.8626    1.6264    3.8873 C.3       1 <0>         0.0180
     23 H1         -1.0364    1.8079    0.5594 H         1 <0>         0.1568
     24 H2          1.0811    3.1064    0.6114 H         1 <0>         0.1581
     25 H3         -0.9574   -0.6320    0.2621 H         1 <0>         0.1773
     26 H4          5.7139    1.9023    0.2173 H         1 <0>         0.1565
     27 H5          7.8896   -0.4798    0.5075 H         1 <0>         0.1156
     28 H6          7.0149    1.0660    0.3902 H         1 <0>         0.0728
     29 H7          6.5836    1.0072    2.8313 H         1 <0>         0.0799
     30 H8          7.4583   -0.5386    2.9486 H         1 <0>         0.0557
     31 H9          9.8612   -0.5756    2.7516 H         1 <0>         0.0492
     32 H10         9.6246   -0.0439    1.0686 H         1 <0>         0.0888
     33 H11        11.9256    0.4682    1.9100 H         1 <0>         0.1010
     34 H12        11.0247    1.9403    1.4713 H         1 <0>         0.0617
     35 H13        10.3515    2.7478    4.9699 H         1 <0>         0.1013
     36 H14        10.0847    3.3016    3.2986 H         1 <0>         0.0620
     37 H15         8.0284    2.2678    4.1716 H         1 <0>         0.0887
     38 H16         8.9238    0.7821    4.5739 H         1 <0>         0.0477
@<TRIPOS>BOND
     1    1    6 ar
     2    1    2 ar
     3    1   23 1
     4    2    3 ar
     5    2   24 1
     6    3   11 1
     7    3    4 ar
     8    4    5 ar
     9    4    7 1
    10    5    6 ar
    11    6   25 1
    12    7    8 2
    13    7    9 1
    14    9   14 2
    15    9   10 1
    16   10   11 1
    17   10   13 1
    18   10   26 1
    19   11   12 2
    20   14   15 1
    21   15   16 1
    22   15   27 1
    23   15   28 1
    24   16   17 1
    25   16   29 1
    26   16   30 1
    27   17   22 1
    28   17   18 1
    29   18   19 1
    30   18   31 1
    31   18   32 1
    32   19   20 1
    33   19   33 1
    34   19   34 1
    35   20   21 1
    36   21   22 1
    37   21   35 1
    38   21   36 1
    39   22   37 1
    40   22   38 1
@<TRIPOS>MOLECULE
ZINC01270317
   43    45     0     0     0
SMALL
USER_CHARGES

@<TRIPOS>ATOM
      1 C1         -1.1590    0.9270    0.9888 C.2       1 <0>        -0.1536
      2 C2         -1.0962   -0.3724    0.8349 C.2       1 <0>        -0.1889
      3 C3         -2.2574   -1.1162    0.2271 C.3       1 <0>         0.1258
      4 N1         -1.7818   -1.9340   -0.8915 N.pl3     1 <0>        -0.4490
      5 C4         -1.7963   -1.6046   -2.2273 C.2       1 <0>         0.2257
      6 N2         -1.2786   -2.6191   -2.8799 N.2       1 <0>        -0.2599
      7 N3         -0.9461   -3.5473   -2.0557 N.2       1 <0>        -0.2902
      8 C5         -1.2262   -3.1798   -0.8251 C.2       1 <0>         0.1535
      9 S1         -0.9418   -4.1208    0.6371 S.3       1 <0>         0.0604
     10 C6         -0.1908   -5.6569    0.0313 C.3       1 <0>        -0.1689
     11 C7          0.1068   -6.5643    1.1971 C.2       1 <0>         0.4213
     12 O1         -0.1613   -6.2097    2.3256 O.2       1 <0>        -0.4302
     13 C8          0.7215   -7.8781    0.9668 C.ar      1 <0>        -0.1602
     14 C9          1.0372   -8.2871   -0.3345 C.ar      1 <0>        -0.0604
     15 C10         1.6138   -9.5190   -0.5476 C.ar      1 <0>        -0.1419
     16 C11         1.8834  -10.3588    0.5257 C.ar      1 <0>         0.1213
     17 C12         1.5720   -9.9587    1.8251 C.ar      1 <0>         0.0694
     18 C13         0.9990   -8.7229    2.0485 C.ar      1 <0>        -0.0657
     19 O2          1.8374  -10.7844    2.8727 O.3       1 <0>        -0.4829
     20 O3          2.4513  -11.5727    0.3092 O.3       1 <0>        -0.4852
     21 C14        -2.3002   -0.3458   -2.8164 C.ar      1 <0>        -0.0058
     22 C15        -2.9144   -0.3553   -4.0700 C.ar      1 <0>        -0.0694
     23 C16        -3.3827    0.8224   -4.6147 C.ar      1 <0>        -0.1014
     24 C17        -3.2449    2.0119   -3.9217 C.ar      1 <0>        -0.0936
     25 C18        -2.6364    2.0290   -2.6782 C.ar      1 <0>        -0.0337
     26 C19        -2.1691    0.8558   -2.1193 C.ar      1 <0>        -0.1098
     27 Cl1        -2.4672    3.5267   -1.8168 Cl        1 <0>        -0.0588
     28 H1         -0.3469    1.4540    1.4674 H         1 <0>         0.1155
     29 H2         -2.0210    1.4719    0.6331 H         1 <0>         0.1054
     30 H3         -0.2122   -0.9106    1.1436 H         1 <0>         0.1259
     31 H4         -2.7111   -1.7599    0.9807 H         1 <0>         0.1136
     32 H5         -2.9974   -0.4020   -0.1339 H         1 <0>         0.1081
     33 H6         -0.8810   -6.1548   -0.6497 H         1 <0>         0.1351
     34 H7          0.7353   -5.4257   -0.4948 H         1 <0>         0.1351
     35 H8          0.8280   -7.6367   -1.1709 H         1 <0>         0.1438
     36 H9          1.8568   -9.8335   -1.5518 H         1 <0>         0.1447
     37 H10         0.7612   -8.4103    3.0546 H         1 <0>         0.1478
     38 H11         2.7164  -10.6623    3.2568 H         1 <0>         0.3910
     39 H12         3.4181  -11.5635    0.3273 H         1 <0>         0.3957
     40 H13        -3.0225   -1.2829   -4.6125 H         1 <0>         0.1421
     41 H14        -3.8576    0.8159   -5.5847 H         1 <0>         0.1440
     42 H15        -3.6133    2.9311   -4.3527 H         1 <0>         0.1411
     43 H16        -1.6988    0.8690   -1.1471 H         1 <0>         0.1434
@<TRIPOS>BOND
     1    1    2 2
     2    1   28 1
     3    1   29 1
     4    2    3 1
     5    2   30 1
     6    3    4 1
     7    3   31 1
     8    3   32 1
     9    4    8 1
    10    4    5 1
    11    5    6 2
    12    5   21 1
    13    6    7 1
    14    7    8 2
    15    8    9 1
    16    9   10 1
    17   10   11 1
    18   10   33 1
    19   10   34 1
    20   11   12 2
    21   11   13 1
    22   13   18 ar
    23   13   14 ar
    24   14   15 ar
    25   14   35 1
    26   15   16 ar
    27   15   36 1
    28   16   17 ar
    29   16   20 1
    30   17   18 ar
    31   17   19 1
    32   18   37 1
    33   19   38 1
    34   20   39 1
    35   21   26 ar
    36   21   22 ar
    37   22   23 ar
    38   22   40 1
    39   23   24 ar
    40   23   41 1
    41   24   25 ar
    42   24   42 1
    43   25   26 ar
    44   25   27 1
    45   26   43 1
@<TRIPOS>MOLECULE
ZINC01615742
   34    35     0     0     0
SMALL
USER_CHARGES

@<TRIPOS>ATOM
      1 C1          0.1022    1.4445    0.3855 C.ar      1 <0>        -0.0944
      2 C2          1.3035    2.1259    0.3705 C.ar      1 <0>        -0.0943
      3 C3          2.4998    1.4371    0.2398 C.ar      1 <0>        -0.0621
      4 C4          2.4903    0.0530    0.1238 C.ar      1 <0>        -0.1192
      5 C5          1.2677   -0.6405    0.1395 C.ar      1 <0>        -0.1193
      6 C6          0.0773    0.0629    0.2705 C.ar      1 <0>        -0.0620
      7 C7          1.2649   -2.1159    0.0159 C.2       1 <0>         0.4253
      8 O1          0.2138   -2.7267    0.0278 O.2       1 <0>        -0.3993
      9 C8          2.5375   -2.8406   -0.1219 C.2       1 <0>        -0.0968
     10 C9          3.7223   -2.1684   -0.1372 C.2       1 <0>        -0.0987
     11 C10         3.7556   -0.7029   -0.0162 C.2       1 <0>         0.4256
     12 O2          4.8191   -0.1141   -0.0308 O.2       1 <0>        -0.3995
     13 S1          5.2306   -3.0640   -0.3035 S.3       1 <0>        -0.0607
     14 C11         5.8822   -2.5313   -1.9104 C.3       1 <0>        -0.1134
     15 C12         7.1446   -3.3309   -2.2393 C.3       1 <0>         0.0958
     16 O3          7.5961   -2.9899   -3.5515 O.3       1 <0>        -0.5685
     17 S2          2.5294   -4.5965   -0.2681 S.3       1 <0>        -0.0580
     18 C13         1.8639   -5.1660    1.3204 C.3       1 <0>        -0.1145
     19 C14         1.9232   -6.6937    1.3798 C.3       1 <0>         0.0961
     20 O4          1.3000   -7.1481    2.5829 O.3       1 <0>        -0.5685
     21 H1         -0.8233    1.9908    0.4919 H         1 <0>         0.1426
     22 H2          1.3112    3.2021    0.4607 H         1 <0>         0.1426
     23 H3          3.4361    1.9751    0.2280 H         1 <0>         0.1467
     24 H4         -0.8650   -0.4647    0.2831 H         1 <0>         0.1467
     25 H5          5.1318   -2.7035   -2.6820 H         1 <0>         0.0960
     26 H6          6.1250   -1.4695   -1.8702 H         1 <0>         0.0985
     27 H7          7.9234   -3.0947   -1.5142 H         1 <0>         0.0595
     28 H8          6.9206   -4.3968   -2.1977 H         1 <0>         0.0611
     29 H9          8.3490   -3.5142   -3.8569 H         1 <0>         0.3886
     30 H10         2.4567   -4.7475    2.1337 H         1 <0>         0.0950
     31 H11         0.8290   -4.8385    1.4192 H         1 <0>         0.1002
     32 H12         1.4001   -7.1114    0.5196 H         1 <0>         0.0588
     33 H13         2.9638   -7.0178    1.3648 H         1 <0>         0.0615
     34 H14         1.3677   -8.1023    2.7247 H         1 <0>         0.3886
@<TRIPOS>BOND
     1    1    6 ar
     2    1    2 ar
     3    1   21 1
     4    2    3 ar
     5    2   22 1
     6    3    4 ar
     7    3   23 1
     8    4   11 1
     9    4    5 ar
    10    5    6 ar
    11    5    7 1
    12    6   24 1
    13    7    8 2
    14    7    9 1
    15    9   10 2
    16    9   17 1
    17   10   11 1
    18   10   13 1
    19   11   12 2
    20   13   14 1
    21   14   15 1
    22   14   25 1
    23   14   26 1
    24   15   16 1
    25   15   27 1
    26   15   28 1
    27   16   29 1
    28   17   18 1
    29   18   19 1
    30   18   30 1
    31   18   31 1
    32   19   20 1
    33   19   32 1
    34   19   33 1
    35   20   34 1
@<TRIPOS>MOLECULE
ZINC00526257
   19    20     0     0     0
SMALL
USER_CHARGES

@<TRIPOS>ATOM
      1 C1         -0.0166    1.3735    0.0096 C.ar      1 <0>        -0.0807
      2 C2          1.1695    2.0972    0.0022 C.ar      1 <0>        -0.0758
      3 C3          2.3856    1.4299   -0.0127 C.ar      1 <0>        -0.1119
      4 C4          2.4130    0.0213   -0.0201 C.ar      1 <0>        -0.1608
      5 C5          1.2157   -0.6943   -0.0126 C.ar      1 <0>         0.1640
      6 C6          0.0021   -0.0041    0.0020 C.ar      1 <0>        -0.1269
      7 O1          1.2302   -2.0495   -0.0206 O.3       1 <0>        -0.4763
      8 C7          3.7170   -0.6682   -0.0346 C.2       1 <0>         0.4090
      9 O2          3.7816   -1.8558   -0.2856 O.2       1 <0>        -0.4049
     10 C8          4.9435    0.1011    0.2587 C.2       1 <0>        -0.1378
     11 C9          4.9196    1.4427    0.2653 C.2       1 <0>        -0.1447
     12 C10         3.6665    2.1697   -0.0205 C.2       1 <0>         0.4151
     13 O3          3.6872    3.3611   -0.2587 O.2       1 <0>        -0.4186
     14 H1         -0.9618    1.8957    0.0259 H         1 <0>         0.1441
     15 H2          1.1447    3.1769    0.0076 H         1 <0>         0.1463
     16 H3         -0.9277   -0.5534    0.0081 H         1 <0>         0.1450
     17 H4          1.2430   -2.4478    0.8605 H         1 <0>         0.3989
     18 H5          5.8658   -0.4199    0.4697 H         1 <0>         0.1578
     19 H6          5.8226    1.9944    0.4812 H         1 <0>         0.1581
@<TRIPOS>BOND
     1    1    6 ar
     2    1    2 ar
     3    1   14 1
     4    2    3 ar
     5    2   15 1
     6    3   12 1
     7    3    4 ar
     8    4    5 ar
     9    4    8 1
    10    5    6 ar
    11    5    7 1
    12    6   16 1
    13    7   17 1
    14    8    9 2
    15    8   10 1
    16   10   11 2
    17   10   18 1
    18   11   12 1
    19   11   19 1
    20   12   13 2
@<TRIPOS>MOLECULE
ZINC01237385
   49    52     0     0     0
SMALL
USER_CHARGES
2-[[4-(4-chlorophenyl)-5-(p-tolyl)-1,2,4-triazol-3-yl]sulfanyl]-1-(3,4-dihydroxyphenyl)-ethanone
@<TRIPOS>ATOM
      1 C1          2.7669    7.2872    0.0120 C.3       1 <0>        -0.1206
      2 C2          2.3598    5.8362    0.0091 C.ar      1 <0>        -0.0643
      3 C3          1.0609    5.4848    0.3311 C.ar      1 <0>        -0.1196
      4 C4          0.6815    4.1584    0.3299 C.ar      1 <0>        -0.0658
      5 C5          1.6115    3.1700    0.0033 C.ar      1 <0>        -0.0337
      6 C6          2.9219    3.5310   -0.3146 C.ar      1 <0>        -0.0995
      7 C7          3.2866    4.8615   -0.3152 C.ar      1 <0>        -0.1176
      8 C8          1.2120    1.7470   -0.0001 C.2       1 <0>         0.2443
      9 N1         -0.0153    1.2807    0.0091 N.2       1 <0>        -0.2626
     10 N2          0.0021   -0.0041    0.0020 N.2       1 <0>        -0.2833
     11 C9          1.2422   -0.4398   -0.0122 C.2       1 <0>         0.1538
     12 N3          2.0572    0.6590   -0.0140 N.pl3     1 <0>        -0.4166
     13 C10         3.4592    0.6746   -0.0278 C.ar      1 <0>         0.1049
     14 C11         4.1593    1.1898    1.0547 C.ar      1 <0>        -0.0826
     15 C12         5.5403    1.2002    1.0407 C.ar      1 <0>        -0.0957
     16 C13         6.2260    0.7068   -0.0554 C.ar      1 <0>        -0.0180
     17 C14         5.5302    0.1971   -1.1376 C.ar      1 <0>        -0.0934
     18 C15         4.1493    0.1802   -1.1262 C.ar      1 <0>        -0.0866
     19 Cl1         7.9618    0.7268   -0.0726 Cl        1 <0>        -0.0487
     20 S1          1.7584   -2.1244   -0.0267 S.3       1 <0>         0.0740
     21 C16         0.1463   -2.9472   -0.0154 C.3       1 <0>        -0.1611
     22 C17         0.3447   -4.4411   -0.0257 C.2       1 <0>         0.4188
     23 O1          1.4658   -4.9039   -0.0393 O.2       1 <0>        -0.4299
     24 C18        -0.8194   -5.3365   -0.0192 C.ar      1 <0>        -0.1609
     25 C19        -2.1143   -4.8045    0.0023 C.ar      1 <0>        -0.0600
     26 C20        -3.2038   -5.6461    0.0015 C.ar      1 <0>        -0.1418
     27 C21        -3.0223   -7.0234   -0.0076 C.ar      1 <0>         0.1216
     28 C22        -1.7354   -7.5613   -0.0227 C.ar      1 <0>         0.0691
     29 C23        -0.6374   -6.7250   -0.0288 C.ar      1 <0>        -0.0652
     30 O2         -1.5626   -8.9102   -0.0320 O.3       1 <0>        -0.4828
     31 O3         -4.1005   -7.8481   -0.0021 O.3       1 <0>        -0.4851
     32 H1          3.1312    7.5603    1.0024 H         1 <0>         0.0755
     33 H2          3.5573    7.4442   -0.7219 H         1 <0>         0.0698
     34 H3          1.9067    7.9065   -0.2422 H         1 <0>         0.0708
     35 H4          0.3424    6.2505    0.5837 H         1 <0>         0.1326
     36 H5         -0.3327    3.8854    0.5815 H         1 <0>         0.1378
     37 H6          3.6473    2.7708   -0.5639 H         1 <0>         0.1260
     38 H7          4.2990    5.1425   -0.5653 H         1 <0>         0.1293
     39 H8          3.6245    1.5791    1.9084 H         1 <0>         0.1422
     40 H9          6.0855    1.5975    1.8841 H         1 <0>         0.1496
     41 H10         6.0675   -0.1874   -1.9919 H         1 <0>         0.1504
     42 H11         3.6067   -0.2170   -1.9713 H         1 <0>         0.1445
     43 H12        -0.3568   -2.6834    0.8076 H         1 <0>         0.1202
     44 H13        -0.4196   -2.6498   -0.8982 H         1 <0>         0.1367
     45 H14        -2.2584   -3.7342    0.0145 H         1 <0>         0.1440
     46 H15        -4.2023   -5.2346    0.0128 H         1 <0>         0.1448
     47 H16         0.3595   -7.1403   -0.0405 H         1 <0>         0.1478
     48 H17        -1.5039   -9.3053    0.8487 H         1 <0>         0.3910
     49 H18        -4.4046   -8.0921    0.8829 H         1 <0>         0.3957
@<TRIPOS>BOND
     1    1    2 1
     2    1   32 1
     3    1   33 1
     4    1   34 1
     5    2    7 ar
     6    2    3 ar
     7    3    4 ar
     8    3   35 1
     9    4    5 ar
    10    4   36 1
    11    5    6 ar
    12    5    8 1
    13    6    7 ar
    14    6   37 1
    15    7   38 1
    16    8   12 1
    17    8    9 2
    18    9   10 1
    19   10   11 2
    20   11   12 1
    21   11   20 1
    22   12   13 1
    23   13   18 ar
    24   13   14 ar
    25   14   15 ar
    26   14   39 1
    27   15   16 ar
    28   15   40 1
    29   16   17 ar
    30   16   19 1
    31   17   18 ar
    32   17   41 1
    33   18   42 1
    34   20   21 1
    35   21   22 1
    36   21   43 1
    37   21   44 1
    38   22   23 2
    39   22   24 1
    40   24   29 ar
    41   24   25 ar
    42   25   26 ar
    43   25   45 1
    44   26   27 ar
    45   26   46 1
    46   27   28 ar
    47   27   31 1
    48   28   29 ar
    49   28   30 1
    50   29   47 1
    51   30   48 1
    52   31   49 1
@<TRIPOS>MOLECULE
ZINC14628736
   30    31     0     0     0
SMALL
USER_CHARGES
2-[[3-(carboxymethylsulfanyl)-1,4-dioxo-2-naphthyl]sulfanyl]acetic acid
@<TRIPOS>ATOM
      1 C1         -0.0442    1.1135    0.4125 C.ar      1 <0>        -0.1056
      2 C2         -1.2419    1.8014    0.4132 C.ar      1 <0>        -0.1055
      3 C3         -1.2583    3.1825    0.2915 C.ar      1 <0>        -0.0706
      4 C4         -0.0636    3.8779    0.1575 C.ar      1 <0>        -0.1089
      5 C5          1.1551    3.1774    0.1514 C.ar      1 <0>        -0.1091
      6 C6          1.1563    1.7944    0.2794 C.ar      1 <0>        -0.0704
      7 C7          2.4250    3.9249    0.0076 C.2       1 <0>         0.4228
      8 O1          3.4852    3.3300    0.0013 O.2       1 <0>        -0.4086
      9 C8          2.4002    5.3894   -0.1271 C.2       1 <0>        -0.1261
     10 C9          1.2192    6.0683   -0.1212 C.2       1 <0>        -0.1272
     11 C10        -0.0577    5.3522    0.0206 C.2       1 <0>         0.4232
     12 O2         -1.1054    5.9690    0.0253 O.2       1 <0>        -0.4088
     13 S1          1.2213    7.8227   -0.2844 S.3       1 <0>        -0.0243
     14 C11         0.4041    8.1163   -1.8771 C.3       1 <0>        -0.1439
     15 C12         0.4494    9.5873   -2.2013 C.2       1 <0>         0.4864
     16 O3          0.8906   10.3706   -1.3940 O.co2     1 <0>        -0.6095
     17 S2          3.9139    6.2750   -0.2974 S.3       1 <0>        -0.0224
     18 C13         4.7697    5.9879    1.2760 C.3       1 <0>        -0.1450
     19 C14         6.0380    6.8009    1.3137 C.2       1 <0>         0.4855
     20 O4          6.2859    7.5754    0.4200 O.co2     1 <0>        -0.6078
     21 H1         -0.0429    0.0380    0.5117 H         1 <0>         0.1339
     22 H2         -2.1713    1.2604    0.5129 H         1 <0>         0.1339
     23 H3         -2.1976    3.7155    0.2969 H         1 <0>         0.1426
     24 H4          2.0897    1.2510    0.2758 H         1 <0>         0.1426
     25 H5          0.9183    7.5561   -2.6580 H         1 <0>         0.0864
     26 H6         -0.6339    7.7889   -1.8186 H         1 <0>         0.0859
     27 H7          4.1227    6.2856    2.1011 H         1 <0>         0.0865
     28 H8          5.0136    4.9296    1.3692 H         1 <0>         0.0864
     29 O5         -0.0004   10.0274   -3.3870 O.co2     1 <0>        -0.7608
     30 O6          6.8923    6.6648    2.3400 O.co2     1 <0>        -0.7615
@<TRIPOS>BOND
     1    1    6 ar
     2    1    2 ar
     3    1   21 1
     4    2    3 ar
     5    2   22 1
     6    3    4 ar
     7    3   23 1
     8    4   11 1
     9    4    5 ar
    10    5    6 ar
    11    5    7 1
    12    6   24 1
    13    7    8 2
    14    7    9 1
    15    9   10 2
    16    9   17 1
    17   10   11 1
    18   10   13 1
    19   11   12 2
    20   13   14 1
    21   14   15 1
    22   14   25 1
    23   14   26 1
    24   15   16 2
    25   15   29 1
    26   17   18 1
    27   18   19 1
    28   18   27 1
    29   18   28 1
    30   19   20 2
    31   19   30 1
@<TRIPOS>MOLECULE
ZINC02562310
   30    31     0     0     0
SMALL
USER_CHARGES
3-[(3-methyl-1,4-dioxo-2-naphthyl)sulfanyl]propanoic acid
@<TRIPOS>ATOM
      1 C1          3.6926    6.1204   -0.2436 C.3       1 <0>        -0.1193
      2 C2          2.3978    5.3607   -0.1117 C.2       1 <0>        -0.0859
      3 C3          1.2372    6.0492    0.0190 C.2       1 <0>        -0.1362
      4 C4         -0.0554    5.3293    0.1520 C.2       1 <0>         0.4199
      5 O1         -1.0951    5.9449    0.2700 O.2       1 <0>        -0.3989
      6 C5         -0.0549    3.8504    0.1389 C.ar      1 <0>        -0.1134
      7 C6         -1.2378    3.1314    0.2606 C.ar      1 <0>        -0.0667
      8 C7         -1.2043    1.7460    0.2400 C.ar      1 <0>        -0.0988
      9 C8         -0.0018    1.0777    0.1107 C.ar      1 <0>        -0.1030
     10 C9          1.1858    1.7825   -0.0116 C.ar      1 <0>        -0.0672
     11 C10         1.1690    3.1709    0.0015 C.ar      1 <0>        -0.1249
     12 C11         2.4226    3.9470   -0.1269 C.2       1 <0>         0.4283
     13 O2          3.4839    3.3634   -0.2460 O.2       1 <0>        -0.4238
     14 S1          1.2623    7.8110    0.0319 S.3       1 <0>        -0.1178
     15 C12         0.3658    8.1493   -1.5037 C.3       1 <0>        -0.0689
     16 C13         0.3708    9.6548   -1.7761 C.3       1 <0>        -0.1448
     17 C14        -0.3756    9.9365   -3.0546 C.2       1 <0>         0.4689
     18 O3         -0.8618    9.0264   -3.6833 O.co2     1 <0>        -0.6373
     19 H1          4.5266    5.4186   -0.2501 H         1 <0>         0.0803
     20 H2          3.6878    6.6876   -1.1744 H         1 <0>         0.0936
     21 H3          3.7999    6.8045    0.5982 H         1 <0>         0.0871
     22 H4         -2.1793    3.6498    0.3663 H         1 <0>         0.1447
     23 H5         -2.1231    1.1855    0.3296 H         1 <0>         0.1378
     24 H6          0.0125   -0.0021    0.1003 H         1 <0>         0.1368
     25 H7          2.1213    1.2532   -0.1164 H         1 <0>         0.1430
     26 H8          0.8506    7.6289   -2.3297 H         1 <0>         0.0875
     27 H9         -0.6626    7.8008   -1.4083 H         1 <0>         0.0923
     28 H10        -0.1140   10.1751   -0.9501 H         1 <0>         0.0756
     29 H11         1.3992   10.0033   -1.8715 H         1 <0>         0.0763
     30 O4         -0.5004   11.1983   -3.4948 O.co2     1 <0>        -0.7652
@<TRIPOS>BOND
     1    1    2 1
     2    1   19 1
     3    1   20 1
     4    1   21 1
     5    2   12 1
     6    2    3 2
     7    3    4 1
     8    3   14 1
     9    4    5 2
    10    4    6 1
    11    6   11 ar
    12    6    7 ar
    13    7    8 ar
    14    7   22 1
    15    8    9 ar
    16    8   23 1
    17    9   10 ar
    18    9   24 1
    19   10   11 ar
    20   10   25 1
    21   11   12 1
    22   12   13 2
    23   14   15 1
    24   15   16 1
    25   15   26 1
    26   15   27 1
    27   16   17 1
    28   16   28 1
    29   16   29 1
    30   17   18 2
    31   17   30 1
@<TRIPOS>MOLECULE
ZINC01593117
   25    26     0     0     0
SMALL
USER_CHARGES
4-ethoxynaphthalene-1,2-dione
@<TRIPOS>ATOM
      1 C1          2.4616    8.0165    0.0176 C.3       1 <0>        -0.1542
      2 C2          1.0474    7.4327    0.0277 C.3       1 <0>         0.0465
      3 O1          1.1212    6.0056    0.0208 O.3       1 <0>        -0.2958
      4 C3         -0.0490    5.3311    0.0283 C.2       1 <0>         0.2421
      5 C4         -1.2167    6.0276    0.0432 C.2       1 <0>        -0.3649
      6 C5         -2.4613    5.3802    0.0520 C.2       1 <0>         0.3709
      7 O2         -3.4893    6.0308    0.0644 O.2       1 <0>        -0.4141
      8 C6         -2.5171    3.8844    0.0455 C.2       1 <0>         0.3560
      9 O3         -3.5804    3.3004    0.0533 O.2       1 <0>        -0.3847
     10 C7         -1.2410    3.1382    0.0298 C.ar      1 <0>        -0.1326
     11 C8         -0.0301    3.8581    0.0217 C.ar      1 <0>        -0.0396
     12 C9          1.1767    3.1652    0.0069 C.ar      1 <0>        -0.0789
     13 C10         1.1767    1.7791    0.0004 C.ar      1 <0>        -0.0921
     14 C11        -0.0126    1.0758    0.0080 C.ar      1 <0>        -0.1023
     15 C12        -1.2248    1.7489    0.0174 C.ar      1 <0>        -0.0585
     16 H1          3.0014    7.6763    0.9013 H         1 <0>         0.0697
     17 H2          2.9855    7.6841   -0.8785 H         1 <0>         0.0697
     18 H3          2.4053    9.1051    0.0229 H         1 <0>         0.0853
     19 H4          0.5076    7.7729   -0.8560 H         1 <0>         0.0758
     20 H5          0.5235    7.7651    0.9239 H         1 <0>         0.0759
     21 H6         -1.1852    7.1072    0.0479 H         1 <0>         0.1531
     22 H7          2.1113    3.7064    0.0002 H         1 <0>         0.1457
     23 H8          2.1147    1.2440   -0.0111 H         1 <0>         0.1401
     24 H9          0.0021   -0.0041    0.0020 H         1 <0>         0.1408
     25 H10        -2.1524    1.1956    0.0188 H         1 <0>         0.1462
@<TRIPOS>BOND
     1    1    2 1
     2    1   16 1
     3    1   17 1
     4    1   18 1
     5    2    3 1
     6    2   19 1
     7    2   20 1
     8    3    4 1
     9    4   11 1
    10    4    5 2
    11    5    6 1
    12    5   21 1
    13    6    7 2
    14    6    8 1
    15    8    9 2
    16    8   10 1
    17   10   15 ar
    18   10   11 ar
    19   11   12 ar
    20   12   13 ar
    21   12   22 1
    22   13   14 ar
    23   13   23 1
    24   14   15 ar
    25   14   24 1
    26   15   25 1
@<TRIPOS>MOLECULE
ZINC13806195
   39    41     0     0     0
SMALL
USER_CHARGES

@<TRIPOS>ATOM
      1 C1         -0.0184    1.5028    0.0103 C.3       1 <0>        -0.1180
      2 C2          0.0021   -0.0041    0.0020 C.ar      1 <0>        -0.0893
      3 C3          0.0057   -0.6861   -1.2022 C.ar      1 <0>        -0.0956
      4 C4          0.0243   -2.0650   -1.2174 C.ar      1 <0>        -0.1669
      5 C5          0.0396   -2.7734   -0.0133 C.ar      1 <0>         0.0870
      6 C6          0.0359   -2.0783    1.1983 C.ar      1 <0>        -0.0959
      7 C7          0.0229   -0.6989    1.1983 C.ar      1 <0>        -0.0683
      8 C8          0.0255    0.0529    2.5043 C.3       1 <0>        -0.1185
      9 N1          0.0577   -4.1413   -0.0208 N.2       1 <0>        -0.4515
     10 C9         -0.7427   -4.8050   -0.8257 C.2       1 <0>         0.3699
     11 N2         -1.6599   -4.3142   -1.7326 N.am      1 <0>        -0.6903
     12 C10        -2.3821   -5.1467   -2.4622 C.2       1 <0>         0.5521
     13 O1         -3.1949   -4.7274   -3.2667 O.2       1 <0>        -0.4969
     14 C11        -2.1859   -6.5479   -2.2847 C.2       1 <0>        -0.2425
     15 C12        -2.8071   -7.6025   -2.9166 C.2       1 <0>         0.0731
     16 C13        -2.4590   -8.9219   -2.5869 C.2       1 <0>        -0.1631
     17 C14        -3.0728   -9.9638   -3.2113 C.2       1 <0>         0.0009
     18 C15        -2.7221  -11.2934   -2.8790 C.2       1 <0>        -0.0212
     19 C16        -3.2569  -12.4389   -3.4339 C.2       1 <0>        -0.1539
     20 C17        -2.6182  -13.5213   -2.8085 C.2       1 <0>        -0.2202
     21 C18        -1.7406  -13.0080   -1.9187 C.2       1 <0>        -0.0080
     22 O2         -1.8009  -11.6686   -1.9673 O.3       1 <0>        -0.1650
     23 S1         -0.9143   -6.5713   -1.0293 S.3       1 <0>         0.0856
     24 H1          1.0042    1.8801    0.0026 H         1 <0>         0.0732
     25 H2         -0.5455    1.8639   -0.8728 H         1 <0>         0.0678
     26 H3         -0.5286    1.8543    0.9071 H         1 <0>         0.0710
     27 H4         -0.0066   -0.1373   -2.1323 H         1 <0>         0.1280
     28 H5          0.0267   -2.5960   -2.1579 H         1 <0>         0.1209
     29 H6          0.0477   -2.6195    2.1329 H         1 <0>         0.1329
     30 H7         -1.0014    0.2205    2.8292 H         1 <0>         0.0740
     31 H8          0.5544   -0.5302    3.2582 H         1 <0>         0.0700
     32 H9          0.5254    1.0122    2.3703 H         1 <0>         0.0727
     33 H10        -1.7750   -3.3565   -1.8345 H         1 <0>         0.4179
     34 H11        -3.5619   -7.4143   -3.6658 H         1 <0>         0.1561
     35 H12        -1.7042   -9.1101   -1.8378 H         1 <0>         0.1303
     36 H13        -3.8276   -9.7756   -3.9604 H         1 <0>         0.1577
     37 H14        -4.0175  -12.4918   -4.1988 H         1 <0>         0.1584
     38 H15        -2.7953  -14.5689   -3.0024 H         1 <0>         0.1561
     39 H16        -1.0919  -13.5833   -1.2750 H         1 <0>         0.2093
@<TRIPOS>BOND
     1    1    2 1
     2    1   24 1
     3    1   25 1
     4    1   26 1
     5    2    7 ar
     6    2    3 ar
     7    3    4 ar
     8    3   27 1
     9    4    5 ar
    10    4   28 1
    11    5    6 ar
    12    5    9 1
    13    6    7 ar
    14    6   29 1
    15    7    8 1
    16    8   30 1
    17    8   31 1
    18    8   32 1
    19    9   10 2
    20   10   23 1
    21   10   11 1
    22   11   12 am
    23   11   33 1
    24   12   13 2
    25   12   14 1
    26   14   15 2
    27   14   23 1
    28   15   16 1
    29   15   34 1
    30   16   17 2
    31   16   35 1
    32   17   18 1
    33   17   36 1
    34   18   22 1
    35   18   19 2
    36   19   20 1
    37   19   37 1
    38   20   21 2
    39   20   38 1
    40   21   22 1
    41   21   39 1
@<TRIPOS>MOLECULE
ZINC13806195
   38    40     0     0     0
SMALL
USER_CHARGES

@<TRIPOS>ATOM
      1 C1         -0.4142    1.4831    0.0561 C.3       1 <0>        -0.1015
      2 C2         -0.2886   -0.0185    0.0356 C.ar      1 <0>        -0.1385
      3 C3         -0.8458   -0.7434   -1.0021 C.ar      1 <0>        -0.1034
      4 C4         -0.7325   -2.1194   -1.0240 C.ar      1 <0>        -0.1539
      5 C5         -0.0576   -2.7756   -0.0022 C.ar      1 <0>         0.1555
      6 C6          0.5012   -2.0445    1.0382 C.ar      1 <0>        -0.1356
      7 C7          0.3884   -0.6680    1.0514 C.ar      1 <0>        -0.0814
      8 C8          0.9992    0.1266    2.1768 C.3       1 <0>        -0.1060
      9 N1          0.0586   -4.1685   -0.0209 N.2       1 <0>        -0.5648
     10 C9         -0.0422   -4.8497   -1.2083 C.2       1 <0>         0.4427
     11 N2         -0.0664   -4.3601   -2.4373 N.2       1 <0>        -0.7092
     12 C10        -0.1673   -5.1289   -3.5004 C.2       1 <0>         0.5232
     13 O1         -0.1882   -4.6647   -4.6305 O.2       1 <0>        -0.5385
     14 C11        -0.2535   -6.5818   -3.2554 C.2       1 <0>        -0.1588
     15 C12        -0.3643   -7.6230   -4.1515 C.2       1 <0>        -0.0524
     16 C13        -0.4315   -8.9446   -3.6863 C.2       1 <0>        -0.0793
     17 C14        -0.5410   -9.9735   -4.5718 C.2       1 <0>        -0.1027
     18 C15        -0.6088  -11.3054   -4.1030 C.2       1 <0>         0.0297
     19 C16        -0.7151  -12.4393   -4.8847 C.2       1 <0>        -0.2016
     20 C17        -0.7501  -13.5300   -4.0029 C.2       1 <0>        -0.2131
     21 C18        -0.6662  -13.0333   -2.7485 C.2       1 <0>        -0.0424
     22 O2         -0.5755  -11.6969   -2.8120 O.3       1 <0>        -0.1677
     23 S1         -0.1648   -6.6123   -1.4694 S.3       1 <0>        -0.1244
     24 H1          0.4311    1.9256   -0.4710 H         1 <0>         0.0576
     25 H2         -1.3423    1.7768   -0.4343 H         1 <0>         0.0557
     26 H3         -0.4222    1.8330    1.0884 H         1 <0>         0.0586
     27 H4         -1.3703   -0.2327   -1.7961 H         1 <0>         0.1076
     28 H5         -1.1685   -2.6849   -1.8342 H         1 <0>         0.1376
     29 H6          1.0262   -2.5516    1.8342 H         1 <0>         0.1142
     30 H7          0.2710    0.2376    2.9802 H         1 <0>         0.0618
     31 H8          1.8793   -0.3947    2.5536 H         1 <0>         0.0594
     32 H9          1.2893    1.1114    1.8106 H         1 <0>         0.0611
     33 H10        -0.3993   -7.4214   -5.2119 H         1 <0>         0.1419
     34 H11        -0.3965   -9.1463   -2.6258 H         1 <0>         0.1219
     35 H12        -0.5761   -9.7719   -5.6322 H         1 <0>         0.1478
     36 H13        -0.7619  -12.4786   -5.9630 H         1 <0>         0.1502
     37 H14        -0.8298  -14.5720   -4.2754 H         1 <0>         0.1475
     38 H15        -0.6672  -13.6191   -1.8412 H         1 <0>         0.2010
@<TRIPOS>BOND
     1    1    2 1
     2    1   24 1
     3    1   25 1
     4    1   26 1
     5    2    7 ar
     6    2    3 ar
     7    3    4 ar
     8    3   27 1
     9    4    5 ar
    10    4   28 1
    11    5    6 ar
    12    5    9 1
    13    6    7 ar
    14    6   29 1
    15    7    8 1
    16    8   30 1
    17    8   31 1
    18    8   32 1
    19    9   10 1
    20   10   23 1
    21   10   11 2
    22   11   12 1
    23   12   13 2
    24   12   14 1
    25   14   15 2
    26   14   23 1
    27   15   16 1
    28   15   33 1
    29   16   17 2
    30   16   34 1
    31   17   18 1
    32   17   35 1
    33   18   22 1
    34   18   19 2
    35   19   20 1
    36   19   36 1
    37   20   21 2
    38   20   37 1
    39   21   22 1
    40   21   38 1
@<TRIPOS>MOLECULE
ZINC17161877
   29    31     0     0     0
SMALL
USER_CHARGES

@<TRIPOS>ATOM
      1 C1         -0.0163    1.3514    0.0095 C.2       1 <0>        -0.1829
      2 C2          1.1755    2.0367    0.0018 C.2       1 <0>        -0.0829
      3 C3          2.3220    1.2492   -0.0134 C.2       1 <0>        -0.2219
      4 S1          1.6355   -0.3960   -0.0157 S.3       1 <0>         0.2248
      5 C4          0.0021   -0.0041    0.0020 C.2       1 <0>        -0.2188
      6 C5          3.6788    1.6494   -0.0246 C.2       1 <0>         0.1236
      7 C6          4.6664    0.7099   -0.0390 C.2       1 <0>        -0.2480
      8 C7          6.1259    0.8907   -0.0463 C.2       1 <0>         0.5578
      9 N1          6.8683   -0.2033   -0.0606 N.am      1 <0>        -0.6890
     10 C8          6.2807   -1.4497   -0.0681 C.2       1 <0>         0.3745
     11 N2          6.8626   -2.6282   -0.0818 N.2       1 <0>        -0.4517
     12 C9          8.2287   -2.7171   -0.0905 C.ar      1 <0>         0.0804
     13 C10         8.9791   -1.8989   -0.9377 C.ar      1 <0>        -0.1394
     14 C11        10.3553   -1.9930   -0.9421 C.ar      1 <0>        -0.1306
     15 C12        10.9932   -2.8971   -0.1081 C.ar      1 <0>         0.0960
     16 C13        10.2541   -3.7115    0.7346 C.ar      1 <0>        -0.1331
     17 C14         8.8777   -3.6224    0.7520 C.ar      1 <0>        -0.0697
     18 F1         12.3413   -2.9851   -0.1170 F         1 <0>        -0.1344
     19 S2          4.5357   -1.0723   -0.0462 S.3       1 <0>         0.0926
     20 O1          6.6289    2.0000   -0.0399 O.2       1 <0>        -0.4872
     21 H1         -0.9547    1.8859    0.0258 H         1 <0>         0.1405
     22 H2          1.2188    3.1158    0.0068 H         1 <0>         0.1510
     23 H3         -0.8414   -0.6785    0.0064 H         1 <0>         0.1912
     24 H4          3.9321    2.6993   -0.0217 H         1 <0>         0.1733
     25 H5          8.4829   -1.1941   -1.5884 H         1 <0>         0.1321
     26 H6         10.9366   -1.3610   -1.5970 H         1 <0>         0.1424
     27 H7         10.7569   -4.4143    1.3824 H         1 <0>         0.1458
     28 H8          8.3029   -4.2543    1.4127 H         1 <0>         0.1452
     29 H9          7.8354   -0.1279   -0.0662 H         1 <0>         0.4184
@<TRIPOS>BOND
     1    1    5 2
     2    1    2 1
     3    1   21 1
     4    2    3 2
     5    2   22 1
     6    3    4 1
     7    3    6 1
     8    4    5 1
     9    5   23 1
    10    6    7 2
    11    6   24 1
    12    7   19 1
    13    7    8 1
    14    8    9 am
    15    8   20 2
    16    9   10 1
    17    9   29 1
    18   10   11 2
    19   10   19 1
    20   11   12 1
    21   12   17 ar
    22   12   13 ar
    23   13   14 ar
    24   13   25 1
    25   14   15 ar
    26   14   26 1
    27   15   16 ar
    28   15   18 1
    29   16   17 ar
    30   16   27 1
    31   17   28 1
@<TRIPOS>MOLECULE
ZINC13805752
   33    35     0     0     0
SMALL
USER_CHARGES
(5Z)-2-[(3,5-dichlorophenyl)amino]-5-[(E)-3-(2-furyl)prop-2-enylidene]thiazol-4-one
@<TRIPOS>ATOM
      1 C1         -5.4965   -7.2263    0.5075 C.2       1 <0>        -0.2189
      2 C2         -4.1053   -7.3389    0.3646 C.2       1 <0>        -0.1556
      3 C3         -3.6087   -6.0504    0.3274 C.2       1 <0>        -0.0192
      4 O1         -4.6536   -5.2031    0.4341 O.3       1 <0>        -0.1659
      5 C4         -5.7897   -5.9073    0.5425 C.2       1 <0>        -0.0112
      6 C5         -2.2497   -5.6847    0.1951 C.2       1 <0>        -0.0069
      7 C6         -1.8981   -4.3693    0.1667 C.2       1 <0>        -0.1600
      8 C7         -0.5494   -4.0064    0.0354 C.2       1 <0>         0.0610
      9 C8         -0.1937   -2.6753    0.0067 C.2       1 <0>        -0.2460
     10 C9          1.1398   -2.0558   -0.1218 C.2       1 <0>         0.5432
     11 O2          2.1545   -2.7287   -0.2260 O.2       1 <0>        -0.4511
     12 N1          1.1774   -0.7406   -0.1242 N.2       1 <0>        -0.6446
     13 C10         0.0871   -0.0002   -0.0073 C.2       1 <0>         0.4800
     14 S1         -1.2180   -1.2133    0.1154 S.3       1 <0>        -0.0263
     15 N2         -0.0165    1.3684    0.0096 N.pl3     1 <0>        -0.5795
     16 C11         1.1378    2.1568    0.0106 C.ar      1 <0>         0.1641
     17 C12         2.3286    1.6462    0.5111 C.ar      1 <0>        -0.1073
     18 C13         3.4695    2.4265    0.5069 C.ar      1 <0>        -0.0005
     19 C14         3.4239    3.7187    0.0135 C.ar      1 <0>        -0.1106
     20 C15         2.2375    4.2317   -0.4809 C.ar      1 <0>        -0.0031
     21 C16         1.0947    3.4542   -0.4836 C.ar      1 <0>        -0.1277
     22 Cl1         2.1847    5.8531   -1.0989 Cl        1 <0>        -0.0437
     23 Cl2         4.9597    1.7871    1.1268 Cl        1 <0>        -0.0406
     24 H1         -6.2020   -8.0415    0.5724 H         1 <0>         0.1561
     25 H2         -3.5346   -8.2534    0.2985 H         1 <0>         0.1583
     26 H3         -6.7801   -5.4878    0.6413 H         1 <0>         0.2089
     27 H4         -1.4901   -6.4485    0.1164 H         1 <0>         0.1572
     28 H5         -2.6576   -3.6055    0.2453 H         1 <0>         0.1276
     29 H6          0.2101   -4.7702   -0.0432 H         1 <0>         0.1564
     30 H7         -0.8908    1.7886    0.0167 H         1 <0>         0.4405
     31 H8          2.3639    0.6392    0.8997 H         1 <0>         0.1669
     32 H9          4.3156    4.3279    0.0147 H         1 <0>         0.1501
     33 H10         0.1690    3.8552   -0.8693 H         1 <0>         0.1486
@<TRIPOS>BOND
     1    1    5 2
     2    1    2 1
     3    1   24 1
     4    2    3 2
     5    2   25 1
     6    3    4 1
     7    3    6 1
     8    4    5 1
     9    5   26 1
    10    6    7 2
    11    6   27 1
    12    7    8 1
    13    7   28 1
    14    8    9 2
    15    8   29 1
    16    9   14 1
    17    9   10 1
    18   10   11 2
    19   10   12 1
    20   12   13 2
    21   13   14 1
    22   13   15 1
    23   15   16 1
    24   15   30 1
    25   16   21 ar
    26   16   17 ar
    27   17   18 ar
    28   17   31 1
    29   18   19 ar
    30   18   23 1
    31   19   20 ar
    32   19   32 1
    33   20   21 ar
    34   20   22 1
    35   21   33 1
@<TRIPOS>MOLECULE
ZINC04980705
   35    38     0     0     0
SMALL
USER_CHARGES

@<TRIPOS>ATOM
      1 C1          0.0402    1.1617   -2.1353 C.ar      1 <0>        -0.1450
      2 C2          1.2329    1.8496   -2.3062 C.ar      1 <0>        -0.1044
      3 C3          2.4419    1.2034   -2.1679 C.ar      1 <0>        -0.1280
      4 C4          2.4731   -0.1515   -1.8536 C.ar      1 <0>         0.0883
      5 C5          1.2652   -0.8457   -1.6807 C.ar      1 <0>        -0.0830
      6 C6          0.0504   -0.1804   -1.8238 C.ar      1 <0>        -0.0711
      7 C7          1.6395   -2.2367   -1.3613 C.2       1 <0>        -0.1604
      8 C8          3.0066   -2.2795   -1.3647 C.2       1 <0>         0.0923
      9 N1          3.5012   -1.0503   -1.6550 N.pl3     1 <0>        -0.5835
     10 H1          4.4448   -0.8334   -1.7142 H         1 <0>         0.4180
     11 C9          0.7292   -3.3492   -1.0942 C.2       1 <0>         0.0387
     12 C10         1.2280   -4.5845   -0.8122 C.2       1 <0>        -0.2124
     13 C11         0.5191   -5.8465   -0.5185 C.2       1 <0>         0.5353
     14 O1         -0.7008   -5.9096   -0.4987 O.2       1 <0>        -0.5363
     15 N2          1.2712   -6.8989   -0.2798 N.2       1 <0>        -0.7116
     16 C12         2.5934   -6.8444   -0.2984 C.2       1 <0>         0.4516
     17 S1          2.9255   -5.1364   -0.7012 S.3       1 <0>        -0.1362
     18 N3          3.4914   -7.8563   -0.0693 N.2       1 <0>        -0.5641
     19 C13         3.0452   -9.1788    0.0287 C.ar      1 <0>         0.1838
     20 C14         1.8472   -9.5546   -0.5646 C.ar      1 <0>        -0.1400
     21 C15         1.4089  -10.8606   -0.4663 C.ar      1 <0>        -0.0873
     22 C16         2.1619  -11.7950    0.2231 C.ar      1 <0>        -0.0760
     23 C17         3.3559  -11.4241    0.8160 C.ar      1 <0>        -0.0885
     24 C18         3.8028  -10.1201    0.7153 C.ar      1 <0>        -0.0510
     25 Cl1         5.3049   -9.6569    1.4521 Cl        1 <0>        -0.0698
     26 Cl2         1.6072  -13.4355    0.3448 Cl        1 <0>        -0.0910
     27 H2         -0.9003    1.6816   -2.2426 H         1 <0>         0.1226
     28 H3          1.2135    2.9015   -2.5502 H         1 <0>         0.1235
     29 H4          3.3646    1.7481   -2.3038 H         1 <0>         0.1187
     30 H5         -0.8793   -0.7137   -1.6909 H         1 <0>         0.1252
     31 H6          3.6018   -3.1585   -1.1659 H         1 <0>         0.1848
     32 H7         -0.3389   -3.1912   -1.1204 H         1 <0>         0.1452
     33 H8          1.2585   -8.8261   -1.1022 H         1 <0>         0.1544
     34 H9          0.4773  -11.1530   -0.9277 H         1 <0>         0.1253
     35 H10         3.9412  -12.1552    1.3540 H         1 <0>         0.1318
@<TRIPOS>BOND
     1    1    6 ar
     2    1    2 ar
     3    1   27 1
     4    2    3 ar
     5    2   28 1
     6    3    4 ar
     7    3   29 1
     8    4    9 1
     9    4    5 ar
    10    5    6 ar
    11    5    7 1
    12    6   30 1
    13    7    8 2
    14    7   11 1
    15    8    9 1
    16    8   31 1
    17    9   10 1
    18   11   12 2
    19   11   32 1
    20   12   17 1
    21   12   13 1
    22   13   14 2
    23   13   15 1
    24   15   16 2
    25   16   17 1
    26   16   18 1
    27   18   19 1
    28   19   24 ar
    29   19   20 ar
    30   20   21 ar
    31   20   33 1
    32   21   22 ar
    33   21   34 1
    34   22   23 ar
    35   22   26 1
    36   23   24 ar
    37   23   35 1
    38   24   25 1
@<TRIPOS>MOLECULE
ZINC16994962
   32    34     0     0     0
SMALL
USER_CHARGES

@<TRIPOS>ATOM
      1 C1          0.1610    1.0967    2.3631 C.2       1 <0>        -0.2138
      2 C2          1.4747    1.5550    2.1823 C.2       1 <0>        -0.1981
      3 C3          2.2361    0.4482    1.8606 C.2       1 <0>         0.0259
      4 O1          1.4180   -0.6250    1.8486 O.3       1 <0>        -0.1673
      5 C4          0.1700   -0.2381    2.1503 C.2       1 <0>        -0.0398
      6 C5          3.6239    0.4411    1.5916 C.2       1 <0>        -0.0951
      7 C6          4.2522   -0.7278    1.2858 C.2       1 <0>        -0.0855
      8 C7          5.6294   -0.7348    1.0188 C.2       1 <0>        -0.0426
      9 C8          6.2652   -1.9176    0.7093 C.2       1 <0>        -0.1683
     10 C9          7.6855   -2.1747    0.4009 C.2       1 <0>         0.5267
     11 O2          8.5141   -1.2767    0.3889 O.2       1 <0>        -0.5300
     12 N1          8.0122   -3.4223    0.1399 N.2       1 <0>        -0.7107
     13 C10         7.1253   -4.4041    0.1499 C.2       1 <0>         0.4500
     14 S1          5.6027   -3.5735    0.5764 S.3       1 <0>        -0.1103
     15 N2          7.3272   -5.7380   -0.1018 N.2       1 <0>        -0.5555
     16 C11         8.6282   -6.2389   -0.2177 C.ar      1 <0>         0.1798
     17 C12         9.6879   -5.5674    0.3780 C.ar      1 <0>        -0.1378
     18 C13        10.9714   -6.0639    0.2621 C.ar      1 <0>        -0.0878
     19 C14        11.2028   -7.2297   -0.4471 C.ar      1 <0>        -0.0733
     20 C15        10.1496   -7.9015   -1.0421 C.ar      1 <0>        -0.0891
     21 C16         8.8621   -7.4125   -0.9246 C.ar      1 <0>        -0.0483
     22 Cl1         7.5399   -8.2593   -1.6650 Cl        1 <0>        -0.0676
     23 Cl2        12.8178   -7.8501   -0.5909 Cl        1 <0>        -0.0894
     24 H1         -0.6965    1.6976    2.6275 H         1 <0>         0.1481
     25 H2          1.8224    2.5732    2.2760 H         1 <0>         0.1507
     26 H3         -0.6898   -0.8886    2.2135 H         1 <0>         0.2015
     27 H4          4.1858    1.3627    1.6287 H         1 <0>         0.1485
     28 H5          3.6903   -1.6493    1.2487 H         1 <0>         0.1227
     29 H6          6.1913    0.1867    1.0559 H         1 <0>         0.1428
     30 H7          9.5084   -4.6575    0.9313 H         1 <0>         0.1545
     31 H8         11.7956   -5.5417    0.7250 H         1 <0>         0.1262
     32 H9         10.3330   -8.8110   -1.5949 H         1 <0>         0.1329
@<TRIPOS>BOND
     1    1    5 2
     2    1    2 1
     3    1   24 1
     4    2    3 2
     5    2   25 1
     6    3    4 1
     7    3    6 1
     8    4    5 1
     9    5   26 1
    10    6    7 2
    11    6   27 1
    12    7    8 1
    13    7   28 1
    14    8    9 2
    15    8   29 1
    16    9   14 1
    17    9   10 1
    18   10   11 2
    19   10   12 1
    20   12   13 2
    21   13   14 1
    22   13   15 1
    23   15   16 1
    24   16   21 ar
    25   16   17 ar
    26   17   18 ar
    27   17   30 1
    28   18   19 ar
    29   18   31 1
    30   19   20 ar
    31   19   23 1
    32   20   21 ar
    33   20   32 1
    34   21   22 1
@<TRIPOS>MOLECULE
ZINC01276363
   53    56     0     0     0
SMALL
USER_CHARGES
1-(3,4-dihydroxyphenyl)-2-[[4-(4-methoxyphenyl)-5-(p-tolyl)-1,2,4-triazol-3-yl]sulfanyl]ethanone
@<TRIPOS>ATOM
      1 C1          2.7685    7.2867    0.0162 C.3       1 <0>        -0.1199
      2 C2          2.3609    5.8358    0.0118 C.ar      1 <0>        -0.0662
      3 C3          1.0617    5.4845    0.3329 C.ar      1 <0>        -0.1203
      4 C4          0.6820    4.1582    0.3308 C.ar      1 <0>        -0.0671
      5 C5          1.6118    3.1698    0.0037 C.ar      1 <0>        -0.0310
      6 C6          2.9223    3.5308   -0.3142 C.ar      1 <0>        -0.0991
      7 C7          3.2876    4.8611   -0.3130 C.ar      1 <0>        -0.1189
      8 C8          1.2122    1.7468   -0.0001 C.2       1 <0>         0.2401
      9 N1         -0.0153    1.2808    0.0091 N.2       1 <0>        -0.2648
     10 N2          0.0021   -0.0041    0.0020 N.2       1 <0>        -0.2860
     11 C9          1.2423   -0.4396   -0.0122 C.2       1 <0>         0.1518
     12 N3          2.0571    0.6589   -0.0140 N.pl3     1 <0>        -0.4074
     13 C10         3.4601    0.6745   -0.0274 C.ar      1 <0>         0.0569
     14 C11         4.1590    1.1901    1.0556 C.ar      1 <0>        -0.0511
     15 C12         5.5397    1.1995    1.0447 C.ar      1 <0>        -0.1961
     16 C13         6.2284    0.7049   -0.0534 C.ar      1 <0>         0.1523
     17 C14         5.5302    0.1952   -1.1385 C.ar      1 <0>        -0.1362
     18 C15         4.1496    0.1797   -1.1259 C.ar      1 <0>        -0.0573
     19 O1          7.5877    0.7200   -0.0663 O.3       1 <0>        -0.3087
     20 C16         8.2415    1.2591    1.0844 C.3       1 <0>         0.0224
     21 S1          1.7587   -2.1242   -0.0270 S.3       1 <0>         0.0735
     22 C17         0.1466   -2.9472   -0.0161 C.3       1 <0>        -0.1616
     23 C18         0.3451   -4.4410   -0.0267 C.2       1 <0>         0.4186
     24 O2          1.4663   -4.9037   -0.0404 O.2       1 <0>        -0.4300
     25 C19        -0.8188   -5.3365   -0.0206 C.ar      1 <0>        -0.1605
     26 C20        -2.1138   -4.8046    0.0009 C.ar      1 <0>        -0.0599
     27 C21        -3.2033   -5.6464   -0.0002 C.ar      1 <0>        -0.1418
     28 C22        -3.0216   -7.0236   -0.0095 C.ar      1 <0>         0.1212
     29 C23        -1.7347   -7.5614   -0.0247 C.ar      1 <0>         0.0690
     30 C24        -0.6367   -6.7250   -0.0305 C.ar      1 <0>        -0.0654
     31 O3         -1.5617   -8.9103   -0.0342 O.3       1 <0>        -0.4829
     32 O4         -4.0997   -7.8484   -0.0043 O.3       1 <0>        -0.4852
     33 H1          3.1325    7.5588    1.0069 H         1 <0>         0.0747
     34 H2          3.5593    7.4441   -0.7173 H         1 <0>         0.0692
     35 H3          1.9086    7.9064   -0.2379 H         1 <0>         0.0705
     36 H4          0.3433    6.2503    0.5855 H         1 <0>         0.1319
     37 H5         -0.3323    3.8853    0.5820 H         1 <0>         0.1373
     38 H6          3.6476    2.7705   -0.5638 H         1 <0>         0.1285
     39 H7          4.3002    5.1420   -0.5620 H         1 <0>         0.1278
     40 H8          3.6230    1.5796    1.9084 H         1 <0>         0.1346
     41 H9          6.0836    1.5965    1.8891 H         1 <0>         0.1431
     42 H10         6.0667   -0.1898   -1.9931 H         1 <0>         0.1475
     43 H11         3.6062   -0.2171   -1.9707 H         1 <0>         0.1414
     44 H12         9.3214    1.2114    0.9444 H         1 <0>         0.1062
     45 H13         7.9383    2.2970    1.2215 H         1 <0>         0.0599
     46 H14         7.9633    0.6800    1.9650 H         1 <0>         0.0602
     47 H15        -0.3566   -2.6837    0.8069 H         1 <0>         0.1196
     48 H16        -0.4192   -2.6495   -0.8989 H         1 <0>         0.1362
     49 H17        -2.2580   -3.7344    0.0134 H         1 <0>         0.1441
     50 H18        -4.2018   -5.2349    0.0112 H         1 <0>         0.1447
     51 H19         0.3602   -7.1402   -0.0422 H         1 <0>         0.1478
     52 H20        -1.5031   -9.3056    0.8464 H         1 <0>         0.3908
     53 H21        -4.4039   -8.0926    0.8806 H         1 <0>         0.3955
@<TRIPOS>BOND
     1    1    2 1
     2    1   33 1
     3    1   34 1
     4    1   35 1
     5    2    7 ar
     6    2    3 ar
     7    3    4 ar
     8    3   36 1
     9    4    5 ar
    10    4   37 1
    11    5    6 ar
    12    5    8 1
    13    6    7 ar
    14    6   38 1
    15    7   39 1
    16    8   12 1
    17    8    9 2
    18    9   10 1
    19   10   11 2
    20   11   12 1
    21   11   21 1
    22   12   13 1
    23   13   18 ar
    24   13   14 ar
    25   14   15 ar
    26   14   40 1
    27   15   16 ar
    28   15   41 1
    29   16   17 ar
    30   16   19 1
    31   17   18 ar
    32   17   42 1
    33   18   43 1
    34   19   20 1
    35   20   44 1
    36   20   45 1
    37   20   46 1
    38   21   22 1
    39   22   23 1
    40   22   47 1
    41   22   48 1
    42   23   24 2
    43   23   25 1
    44   25   30 ar
    45   25   26 ar
    46   26   27 ar
    47   26   49 1
    48   27   28 ar
    49   27   50 1
    50   28   29 ar
    51   28   32 1
    52   29   30 ar
    53   29   31 1
    54   30   51 1
    55   31   52 1
    56   32   53 1
@<TRIPOS>MOLECULE
ZINC01292350
   46    49     0     0     0
SMALL
USER_CHARGES
2-[[5-(4-chlorophenyl)-4-phenyl-1,2,4-triazol-3-yl]sulfanyl]-1-(3,4-dihydroxyphenyl)-ethanone
@<TRIPOS>ATOM
      1 C1          6.2253    0.7059   -0.0525 C.ar      1 <0>        -0.0966
      2 C2          5.5309    0.1975   -1.1349 C.ar      1 <0>        -0.1023
      3 C3          4.1498    0.1808   -1.1251 C.ar      1 <0>        -0.0987
      4 C4          3.4588    0.6747   -0.0269 C.ar      1 <0>         0.0945
      5 C5          4.1587    1.1893    1.0560 C.ar      1 <0>        -0.0968
      6 C6          5.5398    1.1985    1.0427 C.ar      1 <0>        -0.1044
      7 N1          2.0572    0.6590   -0.0140 N.pl3     1 <0>        -0.4119
      8 C7          1.2119    1.7471   -0.0001 C.2       1 <0>         0.2351
      9 N2         -0.0153    1.2807    0.0091 N.2       1 <0>        -0.2585
     10 N3          0.0021   -0.0041    0.0020 N.2       1 <0>        -0.2846
     11 C8          1.2420   -0.4399   -0.0122 C.2       1 <0>         0.1566
     12 S1          1.7581   -2.1245   -0.0270 S.3       1 <0>         0.0768
     13 C9          0.1459   -2.9472   -0.0161 C.3       1 <0>        -0.1622
     14 C10         0.3441   -4.4411   -0.0267 C.2       1 <0>         0.4189
     15 O1          1.4652   -4.9040   -0.0404 O.2       1 <0>        -0.4301
     16 C11        -0.8200   -5.3364   -0.0206 C.ar      1 <0>        -0.1610
     17 C12        -2.1149   -4.8042    0.0009 C.ar      1 <0>        -0.0599
     18 C13        -3.2045   -5.6458   -0.0001 C.ar      1 <0>        -0.1418
     19 C14        -3.0231   -7.0231   -0.0095 C.ar      1 <0>         0.1216
     20 C15        -1.7362   -7.5611   -0.0247 C.ar      1 <0>         0.0692
     21 C16        -0.6381   -6.7249   -0.0305 C.ar      1 <0>        -0.0653
     22 O2         -1.5635   -8.9100   -0.0342 O.3       1 <0>        -0.4828
     23 O3         -4.1014   -7.8477   -0.0043 O.3       1 <0>        -0.4851
     24 C17         1.6113    3.1701    0.0033 C.ar      1 <0>        -0.0182
     25 C18         2.9218    3.5309   -0.3147 C.ar      1 <0>        -0.0923
     26 C19         3.2873    4.8609   -0.3145 C.ar      1 <0>        -0.1062
     27 C20         2.3598    5.8367    0.0100 C.ar      1 <0>        -0.0193
     28 C21         1.0596    5.4846    0.3314 C.ar      1 <0>        -0.1080
     29 C22         0.6810    4.1583    0.3300 C.ar      1 <0>        -0.0597
     30 Cl1         2.8290    7.5081    0.0145 Cl        1 <0>        -0.0593
     31 H1          7.3052    0.7179   -0.0625 H         1 <0>         0.1365
     32 H2          6.0690   -0.1866   -1.9889 H         1 <0>         0.1395
     33 H3          3.6081   -0.2164   -1.9707 H         1 <0>         0.1344
     34 H4          3.6237    1.5783    1.9098 H         1 <0>         0.1319
     35 H5          6.0848    1.5946    1.8867 H         1 <0>         0.1388
     36 H6         -0.3573   -2.6836    0.8069 H         1 <0>         0.1202
     37 H7         -0.4200   -2.6495   -0.8989 H         1 <0>         0.1367
     38 H8         -2.2589   -3.7340    0.0134 H         1 <0>         0.1440
     39 H9         -4.2029   -5.2342    0.0112 H         1 <0>         0.1449
     40 H10         0.3587   -7.1403   -0.0422 H         1 <0>         0.1478
     41 H11        -1.5050   -9.3053    0.8464 H         1 <0>         0.3910
     42 H12        -4.4055   -8.0919    0.8806 H         1 <0>         0.3957
     43 H13         3.6471    2.7705   -0.5640 H         1 <0>         0.1377
     44 H14         4.3000    5.1416   -0.5637 H         1 <0>         0.1410
     45 H15         0.3408    6.2500    0.5840 H         1 <0>         0.1444
     46 H16        -0.3331    3.8848    0.5815 H         1 <0>         0.1478
@<TRIPOS>BOND
     1    1    6 ar
     2    1    2 ar
     3    1   31 1
     4    2    3 ar
     5    2   32 1
     6    3    4 ar
     7    3   33 1
     8    4    5 ar
     9    4    7 1
    10    5    6 ar
    11    5   34 1
    12    6   35 1
    13    7   11 1
    14    7    8 1
    15    8    9 2
    16    8   24 1
    17    9   10 1
    18   10   11 2
    19   11   12 1
    20   12   13 1
    21   13   14 1
    22   13   36 1
    23   13   37 1
    24   14   15 2
    25   14   16 1
    26   16   21 ar
    27   16   17 ar
    28   17   18 ar
    29   17   38 1
    30   18   19 ar
    31   18   39 1
    32   19   20 ar
    33   19   23 1
    34   20   21 ar
    35   20   22 1
    36   21   40 1
    37   22   41 1
    38   23   42 1
    39   24   29 ar
    40   24   25 ar
    41   25   26 ar
    42   25   43 1
    43   26   27 ar
    44   26   44 1
    45   27   28 ar
    46   27   30 1
    47   28   29 ar
    48   28   45 1
    49   29   46 1
@<TRIPOS>MOLECULE
ZINC16974640
   32    34     0     0     0
SMALL
USER_CHARGES

@<TRIPOS>ATOM
      1 C1          1.1555   -0.4977    0.8438 C.ar      1 <0>        -0.1006
      2 C2          2.3456    0.1957    0.7402 C.ar      1 <0>        -0.1410
      3 C3          2.3800    1.4198    0.0848 C.ar      1 <0>         0.1663
      4 C4          1.2164    1.9431   -0.4647 C.ar      1 <0>        -0.1127
      5 C5          0.0291    1.2447   -0.3577 C.ar      1 <0>        -0.0723
      6 C6         -0.0012    0.0252    0.2961 C.ar      1 <0>        -0.1414
      7 Br1        -1.5559    1.9558   -1.1046 Br        1 <0>        -0.0773
      8 N1          3.5829    2.1240   -0.0212 N.2       1 <0>        -0.5664
      9 C7          4.7790    1.4565    0.0675 C.2       1 <0>         0.4472
     10 N2          4.9935    0.1508    0.0701 N.2       1 <0>        -0.7108
     11 C8          6.2006   -0.3650    0.1606 C.2       1 <0>         0.5254
     12 O1          6.3857   -1.5728    0.1615 O.2       1 <0>        -0.5339
     13 C9          7.3192    0.5928    0.2605 C.2       1 <0>        -0.1643
     14 C10         8.6735    0.3603    0.3653 C.2       1 <0>        -0.0464
     15 C11         9.5660    1.4393    0.4486 C.2       1 <0>        -0.0832
     16 C12        10.9044    1.2095    0.5522 C.2       1 <0>        -0.0979
     17 C13        11.8038    2.2968    0.6361 C.2       1 <0>         0.0273
     18 C14        13.1786    2.2102    0.7387 C.2       1 <0>        -0.1993
     19 C15        13.6583    3.5276    0.7935 C.2       1 <0>        -0.2136
     20 C16        12.5858    4.3473    0.7241 C.2       1 <0>        -0.0407
     21 O2         11.4733    3.6052    0.6246 O.3       1 <0>        -0.1675
     22 S1          6.4239    2.1398    0.1994 S.3       1 <0>        -0.1172
     23 H1          1.1294   -1.4517    1.3494 H         1 <0>         0.1189
     24 H2          3.2486   -0.2135    1.1687 H         1 <0>         0.1440
     25 H3          1.2398    2.8949   -0.9746 H         1 <0>         0.1258
     26 H4         -0.9304   -0.5191    0.3786 H         1 <0>         0.1187
     27 H5          9.0477   -0.6527    0.3832 H         1 <0>         0.1425
     28 H6          9.1918    2.4522    0.4306 H         1 <0>         0.1224
     29 H7         11.2786    0.1966    0.5701 H         1 <0>         0.1483
     30 H8         13.7684    1.3061    0.7707 H         1 <0>         0.1505
     31 H9         14.6918    3.8302    0.8761 H         1 <0>         0.1479
     32 H10        12.6197    5.4266    0.7420 H         1 <0>         0.2014
@<TRIPOS>BOND
     1    1    6 ar
     2    1    2 ar
     3    1   23 1
     4    2    3 ar
     5    2   24 1
     6    3    4 ar
     7    3    8 1
     8    4    5 ar
     9    4   25 1
    10    5    6 ar
    11    5    7 1
    12    6   26 1
    13    8    9 1
    14    9   22 1
    15    9   10 2
    16   10   11 1
    17   11   12 2
    18   11   13 1
    19   13   14 2
    20   13   22 1
    21   14   15 1
    22   14   27 1
    23   15   16 2
    24   15   28 1
    25   16   17 1
    26   16   29 1
    27   17   21 1
    28   17   18 2
    29   18   19 1
    30   18   30 1
    31   19   20 2
    32   19   31 1
    33   20   21 1
    34   20   32 1
@<TRIPOS>MOLECULE
ZINC01165407
   53    56     0     0     0
SMALL
USER_CHARGES
2-fluoro-N-[3-[4-methyl-5-[2-(4-nitrophenyl)-2-oxo-ethyl]sulfanyl-1,2,4-triazol-3-yl]phenyl]-benzamide
@<TRIPOS>ATOM
      1 C1          7.4035    0.0618   -1.3288 C.3       1 <0>         0.0620
      2 N1          7.1722    1.3890   -0.7532 N.pl3     1 <0>        -0.4571
      3 C2          5.9815    1.8972   -0.2876 C.2       1 <0>         0.2304
      4 N2          6.2241    3.1127    0.1447 N.2       1 <0>        -0.2557
      5 N3          7.4662    3.3976   -0.0214 N.2       1 <0>        -0.2874
      6 C3          8.0930    2.3808   -0.5702 C.2       1 <0>         0.1419
      7 S1          9.8039    2.3083   -0.9852 S.3       1 <0>         0.0681
      8 C4         10.3287    3.9536   -0.4436 C.3       1 <0>        -0.1609
      9 C5         11.8026    4.1232   -0.7081 C.2       1 <0>         0.4151
     10 O1         12.4357    3.2206   -1.2129 O.2       1 <0>        -0.4144
     11 C6         12.4736    5.3841   -0.3536 C.ar      1 <0>        -0.1145
     12 C7         11.7456    6.4295    0.2236 C.ar      1 <0>        -0.0696
     13 C8         12.3826    7.6059    0.5577 C.ar      1 <0>        -0.0637
     14 C9         13.7363    7.7579    0.3128 C.ar      1 <0>        -0.0136
     15 C10        14.4625    6.7299   -0.2629 C.ar      1 <0>        -0.0643
     16 C11        13.8412    5.5453   -0.5974 C.ar      1 <0>        -0.0562
     17 N4         14.4110    9.0262    0.6688 N.pl3     1 <0>         0.0201
     18 O2         15.6022    9.1632    0.4551 O.2       1 <0>        -0.1481
     19 O3         13.7750    9.9330    1.1756 O.3       1 <0>        -0.1470
     20 C12         4.6763    1.2030   -0.2713 C.ar      1 <0>        -0.0010
     21 C13         4.4669    0.0858   -1.0823 C.ar      1 <0>        -0.1272
     22 C14         3.2477   -0.5601   -1.0656 C.ar      1 <0>        -0.0940
     23 C15         2.2320   -0.1081   -0.2438 C.ar      1 <0>        -0.1272
     24 C16         2.4286    1.0061    0.5632 C.ar      1 <0>         0.1496
     25 C17         3.6501    1.6620    0.5537 C.ar      1 <0>        -0.0759
     26 N5          1.3962    1.4623    1.3893 N.am      1 <0>        -0.6698
     27 C18         1.2431    2.7831    1.6097 C.2       1 <0>         0.5571
     28 O4          2.0522    3.5720    1.1611 O.2       1 <0>        -0.4915
     29 C19         0.0962    3.2715    2.4011 C.ar      1 <0>        -0.1789
     30 C20        -0.8385    2.3688    2.9132 C.ar      1 <0>        -0.0575
     31 C21        -1.9047    2.8310    3.6549 C.ar      1 <0>        -0.1382
     32 C22        -2.0573    4.1878    3.8852 C.ar      1 <0>        -0.0578
     33 C23        -1.1405    5.0894    3.3787 C.ar      1 <0>        -0.1634
     34 C24        -0.0629    4.6407    2.6367 C.ar      1 <0>         0.1653
     35 F1          0.8328    5.5223    2.1409 F         1 <0>        -0.1111
     36 H1          7.1532    0.0771   -2.3895 H         1 <0>         0.0920
     37 H2          8.4521   -0.2095   -1.2067 H         1 <0>         0.0982
     38 H3          6.7771   -0.6698   -0.8182 H         1 <0>         0.1026
     39 H4          9.8173    4.6494   -0.9479 H         1 <0>         0.1228
     40 H5         10.1361    4.0634    0.6237 H         1 <0>         0.1397
     41 H6         10.6884    6.3141    0.4112 H         1 <0>         0.1608
     42 H7         11.8229    8.4124    1.0079 H         1 <0>         0.1645
     43 H8         15.5185    6.8561   -0.4509 H         1 <0>         0.1638
     44 H9         14.4093    4.7439   -1.0463 H         1 <0>         0.1615
     45 H10         5.2591   -0.2725   -1.7229 H         1 <0>         0.1302
     46 H11         3.0877   -1.4240   -1.6936 H         1 <0>         0.1370
     47 H12         1.2813   -0.6204   -0.2317 H         1 <0>         0.1334
     48 H13         3.8063    2.5254    1.1834 H         1 <0>         0.1551
     49 H14         0.7904    0.8280    1.8037 H         1 <0>         0.4123
     50 H15        -0.7244    1.3103    2.7313 H         1 <0>         0.1356
     51 H16        -2.6257    2.1329    4.0538 H         1 <0>         0.1393
     52 H17        -2.8974    4.5433    4.4633 H         1 <0>         0.1413
     53 H18        -1.2659    6.1463    3.5623 H         1 <0>         0.1462
@<TRIPOS>BOND
     1    1    2 1
     2    1   36 1
     3    1   37 1
     4    1   38 1
     5    2    6 1
     6    2    3 1
     7    3    4 2
     8    3   20 1
     9    4    5 1
    10    5    6 2
    11    6    7 1
    12    7    8 1
    13    8    9 1
    14    8   39 1
    15    8   40 1
    16    9   10 2
    17    9   11 1
    18   11   16 ar
    19   11   12 ar
    20   12   13 ar
    21   12   41 1
    22   13   14 ar
    23   13   42 1
    24   14   15 ar
    25   14   17 1
    26   15   16 ar
    27   15   43 1
    28   16   44 1
    29   17   18 2
    30   17   19 1
    31   20   25 ar
    32   20   21 ar
    33   21   22 ar
    34   21   45 1
    35   22   23 ar
    36   22   46 1
    37   23   24 ar
    38   23   47 1
    39   24   25 ar
    40   24   26 1
    41   25   48 1
    42   26   27 am
    43   26   49 1
    44   27   28 2
    45   27   29 1
    46   29   34 ar
    47   29   30 ar
    48   30   31 ar
    49   30   50 1
    50   31   32 ar
    51   31   51 1
    52   32   33 ar
    53   32   52 1
    54   33   34 ar
    55   33   53 1
    56   34   35 1
@<TRIPOS>MOLECULE
ZINC32701813
   38    40     0     0     0
SMALL
USER_CHARGES
(5Z)-2-(3-chloroanilino)-5-[(Z)-2-methyl-3-phenyl-prop-2-enylidene]thiazol-4-one
@<TRIPOS>ATOM
      1 C1         -2.6960    3.9665   -0.6581 C.3       1 <0>        -0.1157
      2 C2         -1.4121    3.5580    0.0170 C.2       1 <0>        -0.0756
      3 C3         -1.3888    2.4738    0.8282 C.2       1 <0>        -0.1199
      4 C4         -0.1790    2.1613    1.6027 C.ar      1 <0>        -0.0527
      5 C5          0.1187    0.8356    1.9379 C.ar      1 <0>        -0.1126
      6 C6          1.2522    0.5515    2.6694 C.ar      1 <0>        -0.1259
      7 C7          2.0947    1.5733    3.0722 C.ar      1 <0>        -0.1226
      8 C8          1.8074    2.8872    2.7448 C.ar      1 <0>        -0.1163
      9 C9          0.6780    3.1883    2.0139 C.ar      1 <0>        -0.1087
     10 C10        -0.2360    4.3040   -0.1958 C.2       1 <0>        -0.0213
     11 C11        -0.2282    5.6475    0.0412 C.2       1 <0>        -0.1923
     12 C12         0.8320    6.6484   -0.2114 C.2       1 <0>         0.5290
     13 O1          1.9058    6.3386   -0.7034 O.2       1 <0>        -0.5367
     14 N1          0.5550    7.8898    0.1233 N.2       1 <0>        -0.7135
     15 C13        -0.6043    8.2389    0.6576 C.2       1 <0>         0.4470
     16 S1         -1.4994    6.6954    0.7373 S.3       1 <0>        -0.1209
     17 N2         -1.0200    9.4854    1.0500 N.2       1 <0>        -0.5729
     18 C14        -0.1523   10.5764    0.9460 C.ar      1 <0>         0.1730
     19 C15        -0.6590   11.8492    0.7142 C.ar      1 <0>        -0.1387
     20 C16         0.2002   12.9253    0.6123 C.ar      1 <0>        -0.0989
     21 C17         1.5644   12.7379    0.7407 C.ar      1 <0>        -0.1632
     22 C18         2.0729   11.4718    0.9721 C.ar      1 <0>        -0.0148
     23 C19         1.2175   10.3912    1.0798 C.ar      1 <0>        -0.1418
     24 Cl1         3.7860   11.2413    1.1331 Cl        1 <0>        -0.0948
     25 H1         -2.5188    4.8623   -1.2714 H         1 <0>         0.0709
     26 H2         -3.4567    4.1889    0.1047 H         1 <0>         0.0743
     27 H3         -3.0496    3.1464   -1.3003 H         1 <0>         0.0697
     28 H4         -2.2751    1.8271    0.9075 H         1 <0>         0.1275
     29 H5         -0.5374    0.0372    1.6241 H         1 <0>         0.1210
     30 H6          1.4836   -0.4711    2.9286 H         1 <0>         0.1189
     31 H7          2.9813    1.3441    3.6448 H         1 <0>         0.1182
     32 H8          2.4697    3.6787    3.0632 H         1 <0>         0.1217
     33 H9          0.4554    4.2139    1.7590 H         1 <0>         0.1358
     34 H10         0.6759    3.8032   -0.5530 H         1 <0>         0.1472
     35 H11        -1.7242   11.9968    0.6141 H         1 <0>         0.1211
     36 H12        -0.1936   13.9147    0.4324 H         1 <0>         0.1214
     37 H13         2.2341   13.5813    0.6605 H         1 <0>         0.1185
     38 H14         1.6141    9.4038    1.2642 H         1 <0>         0.1445
@<TRIPOS>BOND
     1    1    2 1
     2    1   25 1
     3    1   26 1
     4    1   27 1
     5    2    3 2
     6    2   10 1
     7    3    4 1
     8    3   28 1
     9    4    9 ar
    10    4    5 ar
    11    5    6 ar
    12    5   29 1
    13    6    7 ar
    14    6   30 1
    15    7    8 ar
    16    7   31 1
    17    8    9 ar
    18    8   32 1
    19    9   33 1
    20   10   11 2
    21   10   34 1
    22   11   16 1
    23   11   12 1
    24   12   13 2
    25   12   14 1
    26   14   15 2
    27   15   16 1
    28   15   17 1
    29   17   18 1
    30   18   23 ar
    31   18   19 ar
    32   19   20 ar
    33   19   35 1
    34   20   21 ar
    35   20   36 1
    36   21   22 ar
    37   21   37 1
    38   22   23 ar
    39   22   24 1
    40   23   38 1
@<TRIPOS>MOLECULE
ZINC32701813
   39    41     0     0     0
SMALL
USER_CHARGES
(5Z)-2-(3-chloroanilino)-5-[(Z)-2-methyl-3-phenyl-prop-2-enylidene]thiazol-4-one
@<TRIPOS>ATOM
      1 C1         -2.6960    3.9665   -0.6581 C.3       1 <0>        -0.1145
      2 C2         -1.4121    3.5580    0.0170 C.2       1 <0>        -0.1311
      3 C3         -1.3888    2.4738    0.8282 C.2       1 <0>        -0.0678
      4 C4         -0.1790    2.1613    1.6027 C.ar      1 <0>        -0.0744
      5 C5          0.1187    0.8356    1.9379 C.ar      1 <0>        -0.0997
      6 C6          1.2522    0.5515    2.6694 C.ar      1 <0>        -0.1201
      7 C7          2.0947    1.5733    3.0722 C.ar      1 <0>        -0.1096
      8 C8          1.8074    2.8872    2.7448 C.ar      1 <0>        -0.1170
      9 C9          0.6780    3.1883    2.0139 C.ar      1 <0>        -0.1130
     10 C10        -0.2360    4.3040   -0.1958 C.2       1 <0>         0.0741
     11 C11        -0.2282    5.6475    0.0412 C.2       1 <0>        -0.2525
     12 C12         0.8320    6.6484   -0.2114 C.2       1 <0>         0.5451
     13 O1          1.9058    6.3386   -0.7034 O.2       1 <0>        -0.4556
     14 N1          0.5550    7.8898    0.1233 N.2       1 <0>        -0.6513
     15 C13        -0.6043    8.2389    0.6576 C.2       1 <0>         0.4837
     16 S1         -1.4994    6.6954    0.7373 S.3       1 <0>        -0.0354
     17 N2         -1.0200    9.4854    1.0500 N.pl3     1 <0>        -0.5944
     18 C14        -0.1523   10.5764    0.9460 C.ar      1 <0>         0.1504
     19 C15        -0.6590   11.8492    0.7142 C.ar      1 <0>        -0.1317
     20 C16         0.2002   12.9253    0.6123 C.ar      1 <0>        -0.0861
     21 C17         1.5644   12.7379    0.7407 C.ar      1 <0>        -0.1176
     22 C18         2.0729   11.4718    0.9721 C.ar      1 <0>        -0.0139
     23 C19         1.2175   10.3912    1.0798 C.ar      1 <0>        -0.1070
     24 Cl1         3.7860   11.2413    1.1331 Cl        1 <0>        -0.0568
     25 H1         -2.5188    4.8623   -1.2714 H         1 <0>         0.0696
     26 H2         -3.4567    4.1889    0.1047 H         1 <0>         0.0765
     27 H3         -3.0496    3.1464   -1.3003 H         1 <0>         0.0792
     28 H4         -2.2751    1.8271    0.9075 H         1 <0>         0.1387
     29 H5         -0.5374    0.0372    1.6241 H         1 <0>         0.1271
     30 H6          1.4836   -0.4711    2.9286 H         1 <0>         0.1262
     31 H7          2.9813    1.3441    3.6448 H         1 <0>         0.1246
     32 H8          2.4697    3.6787    3.0632 H         1 <0>         0.1244
     33 H9          0.4554    4.2139    1.7590 H         1 <0>         0.1287
     34 H10         0.6759    3.8032   -0.5530 H         1 <0>         0.1622
     35 H11        -1.7242   11.9968    0.6141 H         1 <0>         0.1370
     36 H12        -0.1936   13.9147    0.4324 H         1 <0>         0.1414
     37 H13         2.2341   13.5813    0.6605 H         1 <0>         0.1383
     38 H14         1.6141    9.4038    1.2642 H         1 <0>         0.1545
     39 H15        -2.0362    9.6267    1.4466 H         1 <0>         0.4676
@<TRIPOS>BOND
     1    1    2 1
     2    1   25 1
     3    1   26 1
     4    1   27 1
     5    2    3 2
     6    2   10 1
     7    3    4 1
     8    3   28 1
     9    4    9 ar
    10    4    5 ar
    11    5    6 ar
    12    5   29 1
    13    6    7 ar
    14    6   30 1
    15    7    8 ar
    16    7   31 1
    17    8    9 ar
    18    8   32 1
    19    9   33 1
    20   10   11 2
    21   10   34 1
    22   11   16 1
    23   11   12 1
    24   12   13 2
    25   12   14 1
    26   14   15 2
    27   15   16 1
    28   15   17 1
    29   17   18 1
    30   17   39 1
    31   18   23 ar
    32   18   19 ar
    33   19   20 ar
    34   19   35 1
    35   20   21 ar
    36   20   36 1
    37   21   22 ar
    38   21   37 1
    39   22   23 ar
    40   22   24 1
    41   23   38 1
@<TRIPOS>MOLECULE
ZINC05852842
   45    47     0     0     0
SMALL
USER_CHARGES
2-(3,4-dimethylphenyl)amino-5-(2-methyl-3-phenyl-prop-2-enylidene)-thiazol-4-one
@<TRIPOS>ATOM
      1 C1         -6.4099   -0.9875   -0.9350 C.3       1 <0>        -0.1191
      2 C2         -5.0814   -0.3053   -0.7330 C.ar      1 <0>        -0.0919
      3 C3         -5.0187    0.8934   -0.0458 C.ar      1 <0>        -0.0965
      4 C4         -3.8033    1.5215    0.1403 C.ar      1 <0>        -0.1375
      5 C5         -2.6424    0.9480   -0.3632 C.ar      1 <0>         0.1268
      6 C6         -2.7096   -0.2531   -1.0574 C.ar      1 <0>        -0.1105
      7 C7         -3.9280   -0.8788   -1.2355 C.ar      1 <0>        -0.0631
      8 C8         -4.0012   -2.1850   -1.9836 C.3       1 <0>        -0.1206
      9 N1         -1.4102    1.5812   -0.1766 N.pl3     1 <0>        -0.5772
     10 C9         -0.2534    0.8447   -0.1791 C.2       1 <0>         0.4806
     11 N2         -0.1169   -0.4706   -0.2335 N.2       1 <0>        -0.6472
     12 C10         1.0598   -1.0580   -0.2340 C.2       1 <0>         0.5445
     13 O1          1.1728   -2.2728   -0.2842 O.2       1 <0>        -0.4567
     14 C11         2.2393   -0.1667   -0.1700 C.2       1 <0>        -0.2504
     15 C12         3.5680   -0.4754   -0.1547 C.2       1 <0>         0.0758
     16 C13         4.5263    0.5445    0.0078 C.2       1 <0>        -0.1322
     17 C14         5.4468    0.4573    0.9973 C.2       1 <0>        -0.0643
     18 C15         5.3551   -0.6196    1.9938 C.ar      1 <0>        -0.0759
     19 C16         4.1092   -1.1581    2.3350 C.ar      1 <0>        -0.1116
     20 C17         4.0324   -2.1718    3.2662 C.ar      1 <0>        -0.1162
     21 C18         5.1821   -2.6491    3.8716 C.ar      1 <0>        -0.1094
     22 C19         6.4177   -2.1180    3.5440 C.ar      1 <0>        -0.1204
     23 C20         6.5125   -1.1079    2.6106 C.ar      1 <0>        -0.0996
     24 C21         4.5270    1.7324   -0.9194 C.3       1 <0>        -0.1122
     25 S1          1.4332    1.4289   -0.1176 S.3       1 <0>        -0.0359
     26 H1         -6.8592   -0.6398   -1.8653 H         1 <0>         0.0724
     27 H2         -6.2607   -2.0661   -0.9845 H         1 <0>         0.0723
     28 H3         -7.0708   -0.7500   -0.1014 H         1 <0>         0.0668
     29 H4         -5.9215    1.3387    0.3454 H         1 <0>         0.1306
     30 H5         -3.7550    2.4575    0.6770 H         1 <0>         0.1291
     31 H6         -1.8096   -0.6994   -1.4540 H         1 <0>         0.1485
     32 H7         -4.1482   -1.9877   -3.0455 H         1 <0>         0.0729
     33 H8         -3.0723   -2.7374   -1.8418 H         1 <0>         0.0708
     34 H9         -4.8360   -2.7745   -1.6046 H         1 <0>         0.0734
     35 H10        -1.3734    2.5416   -0.0453 H         1 <0>         0.4353
     36 H11         3.8853   -1.5016   -0.2671 H         1 <0>         0.1585
     37 H12         6.2484    1.1789    1.0543 H         1 <0>         0.1362
     38 H13         3.2109   -0.7837    1.8668 H         1 <0>         0.1279
     39 H14         3.0722   -2.5917    3.5271 H         1 <0>         0.1245
     40 H15         5.1147   -3.4405    4.6034 H         1 <0>         0.1246
     41 H16         7.3100   -2.4962    4.0206 H         1 <0>         0.1262
     42 H17         7.4773   -0.6949    2.3558 H         1 <0>         0.1271
     43 H18         3.9656    2.5486   -0.4646 H         1 <0>         0.0762
     44 H19         5.5533    2.0529   -1.0985 H         1 <0>         0.0776
     45 H20         4.0626    1.4550   -1.8657 H         1 <0>         0.0699
@<TRIPOS>BOND
     1    1    2 1
     2    1   26 1
     3    1   27 1
     4    1   28 1
     5    2    7 ar
     6    2    3 ar
     7    3    4 ar
     8    3   29 1
     9    4    5 ar
    10    4   30 1
    11    5    6 ar
    12    5    9 1
    13    6    7 ar
    14    6   31 1
    15    7    8 1
    16    8   32 1
    17    8   33 1
    18    8   34 1
    19    9   10 1
    20    9   35 1
    21   10   25 1
    22   10   11 2
    23   11   12 1
    24   12   13 2
    25   12   14 1
    26   14   15 2
    27   14   25 1
    28   15   16 1
    29   15   36 1
    30   16   17 2
    31   16   24 1
    32   17   18 1
    33   17   37 1
    34   18   23 ar
    35   18   19 ar
    36   19   20 ar
    37   19   38 1
    38   20   21 ar
    39   20   39 1
    40   21   22 ar
    41   21   40 1
    42   22   23 ar
    43   22   41 1
    44   23   42 1
    45   24   43 1
    46   24   44 1
    47   24   45 1
@<TRIPOS>MOLECULE
ZINC16994086
   30    32     0     0     0
SMALL
USER_CHARGES

@<TRIPOS>ATOM
      1 C1         -0.0167    1.3784    0.0096 C.ar      1 <0>        -0.0797
      2 C2          1.1661    2.0889    0.0021 C.ar      1 <0>        -0.1774
      3 C3          2.3872    1.4105   -0.0132 C.ar      1 <0>         0.1081
      4 C4          2.4039    0.0144   -0.0209 C.ar      1 <0>        -0.1277
      5 C5          1.2111   -0.6876   -0.0132 C.ar      1 <0>         0.1268
      6 C6          0.0021   -0.0041    0.0020 C.ar      1 <0>        -0.1490
      7 O1          1.2229   -2.0465   -0.0211 O.3       1 <0>        -0.4958
      8 N1          3.5622    2.1114   -0.0211 N.2       1 <0>        -0.4543
      9 C7          3.7066    3.1438   -0.8225 C.2       1 <0>         0.3767
     10 N2          2.7976    3.6712   -1.7133 N.am      1 <0>        -0.6883
     11 C8          3.1097    4.7241   -2.4496 C.2       1 <0>         0.5578
     12 C9          4.4542    5.2924   -2.2699 C.2       1 <0>        -0.2472
     13 C10         5.0313    6.3609   -2.8893 C.2       1 <0>         0.1227
     14 C11         6.3539    6.7396   -2.5603 C.2       1 <0>        -0.2213
     15 C12         7.1168    7.7881   -3.0637 C.2       1 <0>        -0.0834
     16 C13         8.3837    7.9052   -2.5427 C.2       1 <0>        -0.1827
     17 C14         8.7945    7.0196   -1.6021 C.2       1 <0>        -0.2193
     18 S1          7.4751    6.0024   -1.3867 S.3       1 <0>         0.2246
     19 S2          5.1257    4.2097   -1.0168 S.3       1 <0>         0.0916
     20 O2          2.3184    5.2024   -3.2423 O.2       1 <0>        -0.4875
     21 H1         -0.9601    1.9038    0.0260 H         1 <0>         0.1344
     22 H2          1.1479    3.1688    0.0078 H         1 <0>         0.1251
     23 H3          3.3446   -0.5161   -0.0331 H         1 <0>         0.1399
     24 H4         -0.9270   -0.5546    0.0079 H         1 <0>         0.1348
     25 H5          1.2349   -2.4449    0.8599 H         1 <0>         0.3961
     26 H6          4.4788    6.9183   -3.6312 H         1 <0>         0.1733
     27 H7          6.7388    8.4657   -3.8149 H         1 <0>         0.1510
     28 H8          9.0429    8.6920   -2.8786 H         1 <0>         0.1404
     29 H9          9.7509    6.9798   -1.1018 H         1 <0>         0.1911
     30 H10         1.9207    3.2661   -1.8014 H         1 <0>         0.4192
@<TRIPOS>BOND
     1    1    6 ar
     2    1    2 ar
     3    1   21 1
     4    2    3 ar
     5    2   22 1
     6    3    4 ar
     7    3    8 1
     8    4    5 ar
     9    4   23 1
    10    5    6 ar
    11    5    7 1
    12    6   24 1
    13    7   25 1
    14    8    9 2
    15    9   19 1
    16    9   10 1
    17   10   11 am
    18   10   30 1
    19   11   12 1
    20   11   20 2
    21   12   13 2
    22   12   19 1
    23   13   14 1
    24   13   26 1
    25   14   18 1
    26   14   15 2
    27   15   16 1
    28   15   27 1
    29   16   17 2
    30   16   28 1
    31   17   18 1
    32   17   29 1
@<TRIPOS>MOLECULE
ZINC01452237
   39    41     0     0     0
SMALL
USER_CHARGES
2-(2-chlorophenyl)amino-5-(2-methyl-3-phenyl-prop-2-enylidene)-thiazol-4-one
@<TRIPOS>ATOM
      1 C1          4.1681   -1.8106   -1.4912 C.3       1 <0>        -0.1113
      2 C2          3.3877   -2.4279   -0.3594 C.2       1 <0>        -0.1333
      3 C3          4.0398   -2.9602    0.7015 C.2       1 <0>        -0.0631
      4 C4          3.2779   -3.5120    1.8312 C.ar      1 <0>        -0.0762
      5 C5          2.0643   -2.9291    2.2130 C.ar      1 <0>        -0.1115
      6 C6          1.3535   -3.4560    3.2702 C.ar      1 <0>        -0.1167
      7 C7          1.8425   -4.5517    3.9604 C.ar      1 <0>        -0.1096
      8 C8          3.0449   -5.1307    3.5927 C.ar      1 <0>        -0.1196
      9 C9          3.7653   -4.6196    2.5342 C.ar      1 <0>        -0.0992
     10 C10         1.9798   -2.4514   -0.4050 C.2       1 <0>         0.0800
     11 C11         1.2829   -1.2889   -0.5601 C.2       1 <0>        -0.2521
     12 C12        -0.1697   -1.0714   -0.7401 C.2       1 <0>         0.5442
     13 O1         -0.9612   -2.0008   -0.7690 O.2       1 <0>        -0.4533
     14 N1         -0.5620    0.1775   -0.8668 N.2       1 <0>        -0.6465
     15 C13         0.2851    1.1939   -0.8369 C.2       1 <0>         0.4801
     16 S1          1.8682    0.4005   -0.6042 S.3       1 <0>        -0.0235
     17 N2          0.0132    2.5326   -0.9562 N.pl3     1 <0>        -0.5737
     18 C14        -1.3122    2.9736   -1.0225 C.ar      1 <0>         0.1452
     19 C15        -2.3544    2.0816   -0.8053 C.ar      1 <0>        -0.1323
     20 C16        -3.6623    2.5202   -0.8716 C.ar      1 <0>        -0.0868
     21 C17        -3.9355    3.8464   -1.1533 C.ar      1 <0>        -0.1182
     22 C18        -2.9011    4.7380   -1.3697 C.ar      1 <0>        -0.0867
     23 C19        -1.5896    4.3070   -1.3002 C.ar      1 <0>        -0.0649
     24 Cl1        -0.2910    5.4280   -1.5655 Cl        1 <0>        -0.0618
     25 H1          4.2513   -0.7357   -1.3313 H         1 <0>         0.0758
     26 H2          5.1646   -2.2507   -1.5279 H         1 <0>         0.0768
     27 H3          3.6528   -1.9991   -2.4331 H         1 <0>         0.0712
     28 H4          5.1195   -2.9792    0.7176 H         1 <0>         0.1365
     29 H5          1.6835   -2.0716    1.6781 H         1 <0>         0.1266
     30 H6          0.4144   -3.0103    3.5631 H         1 <0>         0.1248
     31 H7          1.2827   -4.9574    4.7901 H         1 <0>         0.1248
     32 H8          3.4196   -5.9854    4.1363 H         1 <0>         0.1264
     33 H9          4.7029   -5.0729    2.2481 H         1 <0>         0.1273
     34 H10         1.4522   -3.3896   -0.3171 H         1 <0>         0.1593
     35 H11         0.7402    3.1736   -0.9946 H         1 <0>         0.4364
     36 H12        -2.1422    1.0459   -0.5846 H         1 <0>         0.1879
     37 H13        -4.4728    1.8268   -0.7027 H         1 <0>         0.1377
     38 H14        -4.9593    4.1865   -1.2041 H         1 <0>         0.1372
     39 H15        -3.1179    5.7730   -1.5891 H         1 <0>         0.1420
@<TRIPOS>BOND
     1    1    2 1
     2    1   25 1
     3    1   26 1
     4    1   27 1
     5    2    3 2
     6    2   10 1
     7    3    4 1
     8    3   28 1
     9    4    9 ar
    10    4    5 ar
    11    5    6 ar
    12    5   29 1
    13    6    7 ar
    14    6   30 1
    15    7    8 ar
    16    7   31 1
    17    8    9 ar
    18    8   32 1
    19    9   33 1
    20   10   11 2
    21   10   34 1
    22   11   16 1
    23   11   12 1
    24   12   13 2
    25   12   14 1
    26   14   15 2
    27   15   16 1
    28   15   17 1
    29   17   18 1
    30   17   35 1
    31   18   23 ar
    32   18   19 ar
    33   19   20 ar
    34   19   36 1
    35   20   21 ar
    36   20   37 1
    37   21   22 ar
    38   21   38 1
    39   22   23 ar
    40   22   39 1
    41   23   24 1
@<TRIPOS>MOLECULE
ZINC01749514
   39    41     0     0     0
SMALL
USER_CHARGES
2-(3,5-dichlorophenyl)amino-5-(2-methyl-3-phenyl-prop-2-enylidene)-thiazol-4-one
@<TRIPOS>ATOM
      1 C1          0.3676    1.9779    0.0083 C.3       1 <0>        -0.1107
      2 C2         -0.5962    1.8005    1.1531 C.2       1 <0>        -0.1353
      3 C3         -0.2591    1.0199    2.2072 C.2       1 <0>        -0.0617
      4 C4         -1.2515    0.7259    3.2512 C.ar      1 <0>        -0.0766
      5 C5         -0.8381    0.4787    4.5651 C.ar      1 <0>        -0.0986
      6 C6         -1.7755    0.2085    5.5392 C.ar      1 <0>        -0.1199
      7 C7         -3.1215    0.1705    5.2183 C.ar      1 <0>        -0.1086
      8 C8         -3.5384    0.4092    3.9200 C.ar      1 <0>        -0.1170
      9 C9         -2.6142    0.6861    2.9353 C.ar      1 <0>        -0.1129
     10 C10        -1.8478    2.4466    1.1268 C.2       1 <0>         0.0818
     11 C11        -2.6847    2.2697    0.0641 C.2       1 <0>        -0.2557
     12 C12        -3.9789    2.9188   -0.2417 C.2       1 <0>         0.5456
     13 O1         -4.4701    3.7559    0.4991 O.2       1 <0>        -0.4501
     14 N1         -4.5709    2.5452   -1.3551 N.2       1 <0>        -0.6462
     15 C13        -4.0493    1.6396   -2.1669 C.2       1 <0>         0.4791
     16 S1         -2.5222    1.1937   -1.3552 S.3       1 <0>        -0.0233
     17 N2         -4.5560    1.1630   -3.3488 N.pl3     1 <0>        -0.5807
     18 C14        -5.8010    1.6059   -3.8046 C.ar      1 <0>         0.1613
     19 C15        -6.7866    1.9674   -2.8951 C.ar      1 <0>        -0.1001
     20 C16        -8.0148    2.4105   -3.3487 C.ar      1 <0>        -0.0023
     21 C17        -8.2669    2.4833   -4.7075 C.ar      1 <0>        -0.1079
     22 C18        -7.2887    2.1184   -5.6158 C.ar      1 <0>        -0.0048
     23 C19        -6.0567    1.6800   -5.1679 C.ar      1 <0>        -0.1241
     24 Cl1        -7.6089    2.2118   -7.3195 Cl        1 <0>        -0.0434
     25 Cl2        -9.2446    2.8698   -2.2128 Cl        1 <0>        -0.0406
     26 H1          0.2509    1.1541   -0.6959 H         1 <0>         0.0764
     27 H2          1.3883    1.9872    0.3907 H         1 <0>         0.0776
     28 H3          0.1607    2.9207   -0.4981 H         1 <0>         0.0694
     29 H4          0.7387    0.6134    2.2809 H         1 <0>         0.1364
     30 H5          0.2120    0.5031    4.8161 H         1 <0>         0.1275
     31 H6         -1.4585    0.0215    6.5546 H         1 <0>         0.1265
     32 H7         -3.8505   -0.0462    5.9851 H         1 <0>         0.1250
     33 H8         -4.5904    0.3781    3.6779 H         1 <0>         0.1248
     34 H9         -2.9411    0.8721    1.9228 H         1 <0>         0.1285
     35 H10        -2.1449    3.0821    1.9481 H         1 <0>         0.1595
     36 H11        -4.0504    0.5186   -3.8685 H         1 <0>         0.4403
     37 H12        -6.5919    1.9065   -1.8346 H         1 <0>         0.1618
     38 H13        -9.2289    2.8252   -5.0597 H         1 <0>         0.1504
     39 H14        -5.2938    1.3950   -5.8772 H         1 <0>         0.1487
@<TRIPOS>BOND
     1    1    2 1
     2    1   26 1
     3    1   27 1
     4    1   28 1
     5    2    3 2
     6    2   10 1
     7    3    4 1
     8    3   29 1
     9    4    9 ar
    10    4    5 ar
    11    5    6 ar
    12    5   30 1
    13    6    7 ar
    14    6   31 1
    15    7    8 ar
    16    7   32 1
    17    8    9 ar
    18    8   33 1
    19    9   34 1
    20   10   11 2
    21   10   35 1
    22   11   16 1
    23   11   12 1
    24   12   13 2
    25   12   14 1
    26   14   15 2
    27   15   16 1
    28   15   17 1
    29   17   18 1
    30   17   36 1
    31   18   23 ar
    32   18   19 ar
    33   19   20 ar
    34   19   37 1
    35   20   21 ar
    36   20   25 1
    37   21   22 ar
    38   21   38 1
    39   22   23 ar
    40   22   24 1
    41   23   39 1
@<TRIPOS>MOLECULE
ZINC05177027
   29    31     0     0     0
SMALL
USER_CHARGES

@<TRIPOS>ATOM
      1 C1         -0.0163    1.3515    0.0095 C.2       1 <0>        -0.1830
      2 C2          1.1755    2.0367    0.0018 C.2       1 <0>        -0.0825
      3 C3          2.3220    1.2492   -0.0134 C.2       1 <0>        -0.2224
      4 S1          1.6355   -0.3960   -0.0157 S.3       1 <0>         0.2247
      5 C4          0.0021   -0.0041    0.0020 C.2       1 <0>        -0.2184
      6 C5          3.6787    1.6494   -0.0249 C.2       1 <0>         0.1243
      7 C6          4.6664    0.7099   -0.0392 C.2       1 <0>        -0.2486
      8 C7          6.1259    0.8907   -0.0468 C.2       1 <0>         0.5579
      9 O1          6.6289    1.9999   -0.0399 O.2       1 <0>        -0.4864
     10 N1          6.8683   -0.2034   -0.0609 N.am      1 <0>        -0.6889
     11 C8          6.2808   -1.4496   -0.0681 C.2       1 <0>         0.3771
     12 N2          6.8628   -2.6284   -0.0814 N.2       1 <0>        -0.4545
     13 C9          8.2285   -2.7172   -0.0899 C.ar      1 <0>         0.0968
     14 C10         8.9792   -1.8991   -0.9373 C.ar      1 <0>        -0.1569
     15 C11        10.3553   -1.9932   -0.9407 C.ar      1 <0>        -0.0868
     16 C12        10.9926   -2.8962   -0.1064 C.ar      1 <0>        -0.0416
     17 C13        10.2542   -3.7104    0.7357 C.ar      1 <0>        -0.0897
     18 C14         8.8778   -3.6222    0.7529 C.ar      1 <0>        -0.0874
     19 Cl1        12.7250   -3.0084   -0.1168 Cl        1 <0>        -0.0614
     20 S2          4.5357   -1.0723   -0.0460 S.3       1 <0>         0.0934
     21 H1         -0.9547    1.8859    0.0258 H         1 <0>         0.1406
     22 H2          1.2188    3.1158    0.0068 H         1 <0>         0.1511
     23 H3         -0.8414   -0.6785    0.0064 H         1 <0>         0.1913
     24 H4          3.9321    2.6993   -0.0223 H         1 <0>         0.1735
     25 H5          7.8353   -0.1279   -0.0667 H         1 <0>         0.4187
     26 H6          8.4834   -1.1947   -1.5886 H         1 <0>         0.1313
     27 H7         10.9370   -1.3615   -1.5956 H         1 <0>         0.1400
     28 H8         10.7572   -4.4131    1.3834 H         1 <0>         0.1434
     29 H9          8.3032   -4.2543    1.4137 H         1 <0>         0.1442
@<TRIPOS>BOND
     1    1    5 2
     2    1    2 1
     3    1   21 1
     4    2    3 2
     5    2   22 1
     6    3    4 1
     7    3    6 1
     8    4    5 1
     9    5   23 1
    10    6    7 2
    11    6   24 1
    12    7   20 1
    13    7    8 1
    14    8    9 2
    15    8   10 am
    16   10   11 1
    17   10   25 1
    18   11   12 2
    19   11   20 1
    20   12   13 1
    21   13   18 ar
    22   13   14 ar
    23   14   15 ar
    24   14   26 1
    25   15   16 ar
    26   15   27 1
    27   16   17 ar
    28   16   19 1
    29   17   18 ar
    30   17   28 1
    31   18   29 1
@<TRIPOS>MOLECULE
ZINC03847491
   24    26     0     0     0
SMALL
USER_CHARGES

@<TRIPOS>ATOM
      1 C1         -0.0167    1.3798    0.0096 C.ar      1 <0>        -0.0980
      2 C2          1.1660    2.0964    0.0022 C.ar      1 <0>        -0.0980
      3 C3          2.3837    1.4389   -0.0134 C.ar      1 <0>        -0.0688
      4 C4          2.4207    0.0474   -0.0212 C.ar      1 <0>        -0.1200
      5 C5          1.2181   -0.6813   -0.0132 C.ar      1 <0>        -0.1199
      6 C6          0.0021   -0.0041    0.0020 C.ar      1 <0>        -0.0688
      7 C7          1.2481   -2.1590   -0.0218 C.2       1 <0>         0.4348
      8 O1          0.2090   -2.7887   -0.0151 O.2       1 <0>        -0.4285
      9 C8          2.5440   -2.8695   -0.0392 C.ar      1 <0>        -0.1200
     10 C9          2.5814   -4.2610   -0.0482 C.ar      1 <0>        -0.0688
     11 C10         3.7994   -4.9181   -0.0649 C.ar      1 <0>        -0.0980
     12 C11         4.9819   -4.2014   -0.0722 C.ar      1 <0>        -0.0979
     13 C12         4.9628   -2.8176   -0.0630 C.ar      1 <0>        -0.0688
     14 C13         3.7466   -2.1407   -0.0472 C.ar      1 <0>        -0.1200
     15 C14         3.7166   -0.6630   -0.0384 C.2       1 <0>         0.4348
     16 O2          4.7557   -0.0333   -0.0456 O.2       1 <0>        -0.4285
     17 H1         -0.9611    1.9034    0.0260 H         1 <0>         0.1394
     18 H2          1.1392    3.1760    0.0082 H         1 <0>         0.1394
     19 H3          3.3037    2.0045   -0.0198 H         1 <0>         0.1443
     20 H4         -0.9253   -0.5576    0.0075 H         1 <0>         0.1443
     21 H5          1.6616   -4.8268   -0.0418 H         1 <0>         0.1443
     22 H6          3.8263   -5.9978   -0.0718 H         1 <0>         0.1394
     23 H7          5.9265   -4.7249   -0.0849 H         1 <0>         0.1394
     24 H8          5.8900   -2.2638   -0.0688 H         1 <0>         0.1443
@<TRIPOS>BOND
     1    1    6 ar
     2    1    2 ar
     3    1   17 1
     4    2    3 ar
     5    2   18 1
     6    3    4 ar
     7    3   19 1
     8    4   15 1
     9    4    5 ar
    10    5    6 ar
    11    5    7 1
    12    6   20 1
    13    7    8 2
    14    7    9 1
    15    9   14 ar
    16    9   10 ar
    17   10   11 ar
    18   10   21 1
    19   11   12 ar
    20   11   22 1
    21   12   13 ar
    22   12   23 1
    23   13   14 ar
    24   13   24 1
    25   14   15 1
    26   15   16 2
@<TRIPOS>MOLECULE
ZINC01275236
   50    53     0     0     0
SMALL
USER_CHARGES
1-(3,4-dihydroxyphenyl)-2-[[5-(4-methoxyphenyl)-4-phenyl-1,2,4-triazol-3-yl]sulfanyl]ethanone
@<TRIPOS>ATOM
      1 C1          3.5241    3.0763   -0.4210 C.3       1 <0>         0.0237
      2 O1          2.3336    3.7263   -0.8706 O.3       1 <0>        -0.3133
      3 C2          1.1627    3.0600   -0.6939 C.ar      1 <0>         0.1486
      4 C3         -0.0310    3.6357   -1.1087 C.ar      1 <0>        -0.1489
      5 C4         -1.2210    2.9629   -0.9317 C.ar      1 <0>        -0.0593
      6 C5         -1.2257    1.7035   -0.3289 C.ar      1 <0>        -0.0654
      7 C6         -0.0229    1.1263    0.0827 C.ar      1 <0>        -0.0285
      8 C7          1.1629    1.8054   -0.0988 C.ar      1 <0>        -0.2085
      9 C8         -2.4999    0.9812   -0.1317 C.2       1 <0>         0.2487
     10 N1         -2.6408   -0.3020    0.1080 N.2       1 <0>        -0.2684
     11 N2         -3.8867   -0.5935    0.2257 N.2       1 <0>        -0.2855
     12 C9         -4.6207    0.4850    0.0687 C.2       1 <0>         0.1520
     13 N3         -3.7642    1.5281   -0.1587 N.pl3     1 <0>        -0.4149
     14 C10        -4.1026    2.8709   -0.3762 C.ar      1 <0>         0.0973
     15 C11        -3.7795    3.8320    0.5722 C.ar      1 <0>        -0.0948
     16 C12        -4.1091    5.1552    0.3525 C.ar      1 <0>        -0.1043
     17 C13        -4.7704    5.5213   -0.8054 C.ar      1 <0>        -0.0972
     18 C14        -5.0986    4.5655   -1.7492 C.ar      1 <0>        -0.1035
     19 C15        -4.7666    3.2416   -1.5377 C.ar      1 <0>        -0.0998
     20 S1         -6.3789    0.5732    0.1443 S.3       1 <0>         0.0732
     21 C16        -6.7667   -1.1630    0.4782 C.3       1 <0>        -0.1614
     22 C17        -8.2602   -1.3323    0.5866 C.2       1 <0>         0.4187
     23 O2         -8.9906   -0.3734    0.4514 O.2       1 <0>        -0.4300
     24 C18        -8.8313   -2.6582    0.8559 C.ar      1 <0>        -0.1606
     25 C19        -7.9903   -3.7674    1.0066 C.ar      1 <0>        -0.0600
     26 C20        -8.5280   -5.0081    1.2656 C.ar      1 <0>        -0.1418
     27 C21        -9.9046   -5.1656    1.3653 C.ar      1 <0>         0.1212
     28 C22       -10.7495   -4.0666    1.2103 C.ar      1 <0>         0.0691
     29 C23       -10.2189   -2.8179    0.9570 C.ar      1 <0>        -0.0655
     30 O3        -12.0966   -4.2255    1.3091 O.3       1 <0>        -0.4829
     31 O4        -10.4291   -6.3926    1.6148 O.3       1 <0>        -0.4852
     32 H1          4.3845    3.7148   -0.6214 H         1 <0>         0.1037
     33 H2          3.4529    2.8882    0.6503 H         1 <0>         0.0590
     34 H3          3.6430    2.1302   -0.9490 H         1 <0>         0.0593
     35 H4         -0.0270    4.6118   -1.5709 H         1 <0>         0.1383
     36 H5         -2.1489    3.4111   -1.2549 H         1 <0>         0.1331
     37 H6         -0.0219    0.1509    0.5463 H         1 <0>         0.1404
     38 H7          2.0934    1.3612    0.2227 H         1 <0>         0.1382
     39 H8         -3.2672    3.5458    1.4789 H         1 <0>         0.1312
     40 H9         -3.8540    5.9039    1.0878 H         1 <0>         0.1379
     41 H10        -5.0307    6.5560   -0.9731 H         1 <0>         0.1356
     42 H11        -5.6154    4.8544   -2.6524 H         1 <0>         0.1385
     43 H12        -5.0229    2.4955   -2.2754 H         1 <0>         0.1332
     44 H13        -6.4201   -1.7314   -0.2680 H         1 <0>         0.1198
     45 H14        -6.2977   -1.4665    1.4142 H         1 <0>         0.1359
     46 H15        -6.9200   -3.6490    0.9245 H         1 <0>         0.1440
     47 H16        -7.8781   -5.8621    1.3868 H         1 <0>         0.1447
     48 H17       -10.8720   -1.9662    0.8367 H         1 <0>         0.1478
     49 H18       -12.5314   -4.4283    0.4695 H         1 <0>         0.3909
     50 H19       -10.6263   -6.9053    0.8190 H         1 <0>         0.3956
@<TRIPOS>BOND
     1    1    2 1
     2    1   32 1
     3    1   33 1
     4    1   34 1
     5    2    3 1
     6    3    8 ar
     7    3    4 ar
     8    4    5 ar
     9    4   35 1
    10    5    6 ar
    11    5   36 1
    12    6    7 ar
    13    6    9 1
    14    7    8 ar
    15    7   37 1
    16    8   38 1
    17    9   13 1
    18    9   10 2
    19   10   11 1
    20   11   12 2
    21   12   13 1
    22   12   20 1
    23   13   14 1
    24   14   19 ar
    25   14   15 ar
    26   15   16 ar
    27   15   39 1
    28   16   17 ar
    29   16   40 1
    30   17   18 ar
    31   17   41 1
    32   18   19 ar
    33   18   42 1
    34   19   43 1
    35   20   21 1
    36   21   22 1
    37   21   44 1
    38   21   45 1
    39   22   23 2
    40   22   24 1
    41   24   29 ar
    42   24   25 ar
    43   25   26 ar
    44   25   46 1
    45   26   27 ar
    46   26   47 1
    47   27   28 ar
    48   27   31 1
    49   28   29 ar
    50   28   30 1
    51   29   48 1
    52   30   49 1
    53   31   50 1
@<TRIPOS>MOLECULE
ZINC16946582
   36    39     0     0     0
SMALL
USER_CHARGES

@<TRIPOS>ATOM
      1 C1          0.0645    1.1847    1.3286 C.ar      1 <0>        -0.1298
      2 C2          1.2456    1.9127    1.3149 C.ar      1 <0>        -0.0964
      3 C3          2.4301    1.3217    0.9332 C.ar      1 <0>        -0.1197
      4 C4          2.4481   -0.0177    0.5572 C.ar      1 <0>         0.0876
      5 C5          1.2522   -0.7529    0.5721 C.ar      1 <0>        -0.0761
      6 C6          0.0619   -0.1427    0.9597 C.ar      1 <0>        -0.0767
      7 C7          1.6074   -2.1142    0.1282 C.2       1 <0>        -0.1956
      8 C8          2.9520   -2.1031   -0.1154 C.2       1 <0>         0.1268
      9 N1          3.4520   -0.8658    0.1371 N.pl3     1 <0>        -0.5725
     10 H1          4.3832   -0.6139    0.0358 H         1 <0>         0.4254
     11 C9          0.6993   -3.2520   -0.0210 C.2       1 <0>         0.1452
     12 C10         1.2005   -4.5123   -0.1355 C.2       1 <0>        -0.2702
     13 C11         0.5065   -5.7527   -0.2565 C.2       1 <0>         0.5582
     14 N2          1.2174   -6.8625   -0.3555 N.am      1 <0>        -0.6916
     15 C12         2.5964   -6.8055   -0.3400 C.2       1 <0>         0.3840
     16 N3          3.4636   -7.7903   -0.4260 N.2       1 <0>        -0.4620
     17 C13         3.0241   -9.0800   -0.5502 C.ar      1 <0>         0.1266
     18 C14         1.9799   -9.5455    0.2521 C.ar      1 <0>        -0.1616
     19 C15         1.5409  -10.8479    0.1215 C.ar      1 <0>        -0.0009
     20 C16         2.1334  -11.6920   -0.8025 C.ar      1 <0>        -0.1113
     21 C17         3.1690  -11.2367   -1.6010 C.ar      1 <0>        -0.0041
     22 C18         3.6139   -9.9351   -1.4840 C.ar      1 <0>        -0.0922
     23 Cl1         3.9055  -12.3033   -2.7560 Cl        1 <0>        -0.0430
     24 Cl2         0.2436  -11.4286    1.1182 Cl        1 <0>        -0.0457
     25 S1          2.9031   -5.0529   -0.1821 S.3       1 <0>         0.0752
     26 O1         -0.7109   -5.7882   -0.2680 O.2       1 <0>        -0.4926
     27 H2         -0.8562    1.6595    1.6340 H         1 <0>         0.1293
     28 H3          1.2362    2.9527    1.6060 H         1 <0>         0.1308
     29 H4          3.3436    1.8977    0.9255 H         1 <0>         0.1255
     30 H5         -0.8586   -0.7074    0.9714 H         1 <0>         0.1287
     31 H6          3.5293   -2.9496   -0.4568 H         1 <0>         0.1785
     32 H7         -0.3686   -3.0917   -0.0402 H         1 <0>         0.1631
     33 H8          1.5172   -8.8882    0.9734 H         1 <0>         0.1390
     34 H9          1.7865  -12.7101   -0.9006 H         1 <0>         0.1502
     35 H10         4.4188   -9.5799   -2.1105 H         1 <0>         0.1513
     36 H11         0.7692   -7.7187   -0.4388 H         1 <0>         0.4170
@<TRIPOS>BOND
     1    1    6 ar
     2    1    2 ar
     3    1   27 1
     4    2    3 ar
     5    2   28 1
     6    3    4 ar
     7    3   29 1
     8    4    9 1
     9    4    5 ar
    10    5    6 ar
    11    5    7 1
    12    6   30 1
    13    7    8 2
    14    7   11 1
    15    8    9 1
    16    8   31 1
    17    9   10 1
    18   11   12 2
    19   11   32 1
    20   12   25 1
    21   12   13 1
    22   13   14 am
    23   13   26 2
    24   14   15 1
    25   14   36 1
    26   15   16 2
    27   15   25 1
    28   16   17 1
    29   17   22 ar
    30   17   18 ar
    31   18   19 ar
    32   18   33 1
    33   19   20 ar
    34   19   24 1
    35   20   21 ar
    36   20   34 1
    37   21   22 ar
    38   21   23 1
    39   22   35 1
@<TRIPOS>MOLECULE
ZINC02302986
   48    52     0     0     0
SMALL
USER_CHARGES

@<TRIPOS>ATOM
      1 C1         -0.0167    1.3781    0.0096 C.ar      1 <0>        -0.1169
      2 C2          1.1709    2.0855    0.0021 C.ar      1 <0>        -0.1318
      3 C3          2.3773    1.4107   -0.0130 C.ar      1 <0>        -0.0956
      4 C4          2.3960    0.0285   -0.0201 C.ar      1 <0>        -0.1089
      5 C5          1.2084   -0.6789   -0.0117 C.ar      1 <0>        -0.0829
      6 C6          0.0021   -0.0041    0.0020 C.ar      1 <0>        -0.1302
      7 C7          3.7112   -0.7071   -0.0376 C.3       1 <0>         0.1636
      8 N1          4.1518   -0.9524    1.3379 N.pl3     1 <0>        -0.4687
      9 C8          4.9373   -0.0906    2.0753 C.ar      1 <0>         0.3074
     10 C9          5.1414   -0.7136    3.3864 C.ar      1 <0>         0.2036
     11 C10         4.4114   -1.9898    3.3293 C.2       1 <0>        -0.3200
     12 C11         3.8372   -2.0600    2.0660 C.2       1 <0>         0.5697
     13 N2          3.0643   -3.1000    1.6144 N.2       1 <0>        -1.0741
     14 S1          2.7556   -4.3923    2.6027 S.o2      1 <0>         2.6398
     15 O1          3.9987   -5.0471    2.8153 O.2       1 <0>        -0.9964
     16 O2          1.9590   -3.9037    3.6733 O.2       1 <0>        -0.9951
     17 C12         1.7448   -5.5135    1.6939 C.ar      1 <0>        -0.6270
     18 C13         0.3680   -5.4002    1.7453 C.ar      1 <0>        -0.0219
     19 C14        -0.4249   -6.2798    1.0323 C.ar      1 <0>        -0.1461
     20 C15         0.1588   -7.2724    0.2676 C.ar      1 <0>        -0.0785
     21 C16         1.5356   -7.3852    0.2155 C.ar      1 <0>        -0.1461
     22 C17         2.3287   -6.5029    0.9251 C.ar      1 <0>        -0.0218
     23 C18         4.3091   -2.9657    4.3723 C.1       1 <0>         0.2913
     24 N3          4.2279   -3.7398    5.1998 N.1       1 <0>        -0.4448
     25 N4          5.8641   -0.1032    4.3047 N.ar      1 <0>        -0.4542
     26 C19         6.4093    1.0881    4.0312 C.ar      1 <0>         0.0877
     27 C20         7.1839    1.7546    4.9993 C.ar      1 <0>        -0.0849
     28 C21         7.7334    2.9648    4.7099 C.ar      1 <0>        -0.1162
     29 C22         7.5404    3.5590    3.4639 C.ar      1 <0>        -0.1238
     30 C23         6.7976    2.9453    2.5035 C.ar      1 <0>        -0.0787
     31 C24         6.2133    1.6919    2.7641 C.ar      1 <0>         0.0780
     32 N5          5.4806    1.0812    1.8243 N.ar      1 <0>        -0.4567
     33 H1         -0.9591    1.9053    0.0259 H         1 <0>         0.1163
     34 H2          1.1563    3.1654    0.0076 H         1 <0>         0.1175
     35 H3          3.3051    1.9634   -0.0196 H         1 <0>         0.1247
     36 H4          1.2231   -1.7588   -0.0176 H         1 <0>         0.1356
     37 H5         -0.9258   -0.5567    0.0082 H         1 <0>         0.1192
     38 H6          3.5884   -1.6586   -0.5549 H         1 <0>         0.1101
     39 H7          4.4573   -0.1052   -0.5563 H         1 <0>         0.0938
     40 H8         -0.0880   -4.6247    2.3428 H         1 <0>         0.1374
     41 H9         -1.5006   -6.1918    1.0730 H         1 <0>         0.1277
     42 H10        -0.4607   -7.9601   -0.2889 H         1 <0>         0.1250
     43 H11         1.9917   -8.1609   -0.3818 H         1 <0>         0.1279
     44 H12         3.4044   -6.5886    0.8814 H         1 <0>         0.1377
     45 H13         7.3413    1.3064    5.9693 H         1 <0>         0.1304
     46 H14         8.3270    3.4723    5.4558 H         1 <0>         0.1241
     47 H15         7.9867    4.5207    3.2580 H         1 <0>         0.1238
     48 H16         6.6566    3.4189    1.5432 H         1 <0>         0.1289
@<TRIPOS>BOND
     1    1    6 ar
     2    1    2 ar
     3    1   33 1
     4    2    3 ar
     5    2   34 1
     6    3    4 ar
     7    3   35 1
     8    4    5 ar
     9    4    7 1
    10    5    6 ar
    11    5   36 1
    12    6   37 1
    13    7    8 1
    14    7   38 1
    15    7   39 1
    16    8   12 1
    17    8    9 1
    18    9   32 ar
    19    9   10 ar
    20   10   11 1
    21   10   25 ar
    22   11   12 2
    23   11   23 1
    24   12   13 1
    25   13   14 1
    26   14   15 2
    27   14   16 2
    28   14   17 1
    29   17   22 ar
    30   17   18 ar
    31   18   19 ar
    32   18   40 1
    33   19   20 ar
    34   19   41 1
    35   20   21 ar
    36   20   42 1
    37   21   22 ar
    38   21   43 1
    39   22   44 1
    40   23   24 3
    41   25   26 ar
    42   26   31 ar
    43   26   27 ar
    44   27   28 ar
    45   27   45 1
    46   28   29 ar
    47   28   46 1
    48   29   30 ar
    49   29   47 1
    50   30   31 ar
    51   30   48 1
    52   31   32 ar
@<TRIPOS>MOLECULE
ZINC00499809
   39    43     0     0     0
SMALL
USER_CHARGES
amino-(benzo[1,3]dioxol-5-ylmethyl)BLAHcarbonitrile
@<TRIPOS>ATOM
      1 C1         -5.2944   -1.6046    4.7834 C.ar      1 <0>        -0.1016
      2 C2         -5.1211   -2.1850    3.5279 C.ar      1 <0>        -0.1001
      3 C3         -4.3914   -1.5621    2.5636 C.ar      1 <0>        -0.0848
      4 C4         -3.7997   -0.3134    2.8297 C.ar      1 <0>         0.0997
      5 C5         -3.9764    0.2769    4.1063 C.ar      1 <0>         0.0902
      6 C6         -4.7385   -0.3987    5.0782 C.ar      1 <0>        -0.0820
      7 N1         -3.4246    1.4635    4.3854 N.ar      1 <0>        -0.4170
      8 C7         -2.7137    2.0828    3.4635 C.ar      1 <0>         0.1743
      9 C8         -1.9811    3.3577    3.4109 C.2       1 <0>        -0.2152
     10 C9         -1.4291    3.4436    2.1387 C.2       1 <0>         0.5024
     11 N2         -1.7527    2.3427    1.4043 N.pl3     1 <0>        -0.4809
     12 C10        -2.5350    1.4772    2.1409 C.ar      1 <0>         0.2957
     13 N3         -3.0795    0.3064    1.8865 N.ar      1 <0>        -0.4358
     14 C11        -1.3328    2.1124    0.0198 C.3       1 <0>         0.1540
     15 C12        -0.0167    1.3783    0.0096 C.ar      1 <0>        -0.1200
     16 C13         0.0021   -0.0041    0.0020 C.ar      1 <0>        -0.0738
     17 C14         1.2068   -0.6819   -0.0131 C.ar      1 <0>        -0.1005
     18 C15         2.3992    0.0235   -0.0203 C.ar      1 <0>         0.0488
     19 C16         2.3803    1.4160   -0.0126 C.ar      1 <0>         0.0316
     20 C17         1.1692    2.0887    0.0021 C.ar      1 <0>        -0.0827
     21 O1          3.6676    1.8698   -0.0223 O.3       1 <0>        -0.3064
     22 C18         4.4667    0.7503   -0.4482 C.3       1 <0>         0.2126
     23 O2          3.6983   -0.3951   -0.0349 O.3       1 <0>        -0.3056
     24 N4         -0.6652    4.4897    1.6859 N.pl3     1 <0>        -0.8227
     25 C19        -1.8613    4.3210    4.4637 C.1       1 <0>         0.2974
     26 N5         -1.7662    5.0852    5.2988 N.1       1 <0>        -0.4362
     27 H1         -5.8783   -2.1192    5.5321 H         1 <0>         0.1352
     28 H2         -5.5731   -3.1431    3.3177 H         1 <0>         0.1351
     29 H3         -4.2661   -2.0251    1.5959 H         1 <0>         0.1383
     30 H4         -4.8817    0.0394    6.0549 H         1 <0>         0.1393
     31 H5         -1.2190    3.0694   -0.4894 H         1 <0>         0.1047
     32 H6         -2.0860    1.5149   -0.4937 H         1 <0>         0.1213
     33 H7         -0.9265   -0.5556    0.0083 H         1 <0>         0.1466
     34 H8          1.2184   -1.7618   -0.0191 H         1 <0>         0.1413
     35 H9          1.1516    3.1685    0.0077 H         1 <0>         0.1318
     36 H10         4.5905    0.7580   -1.5311 H         1 <0>         0.0888
     37 H11         5.4365    0.7607    0.0493 H         1 <0>         0.1355
     38 H12        -0.3134    4.4778    0.7821 H         1 <0>         0.4098
     39 H13        -0.4770    5.2412    2.2697 H         1 <0>         0.4308
@<TRIPOS>BOND
     1    1    6 ar
     2    1    2 ar
     3    1   27 1
     4    2    3 ar
     5    2   28 1
     6    3    4 ar
     7    3   29 1
     8    4   13 ar
     9    4    5 ar
    10    5    6 ar
    11    5    7 ar
    12    6   30 1
    13    7    8 ar
    14    8   12 ar
    15    8    9 1
    16    9   10 2
    17    9   25 1
    18   10   11 1
    19   10   24 1
    20   11   12 1
    21   11   14 1
    22   12   13 ar
    23   14   15 1
    24   14   31 1
    25   14   32 1
    26   15   20 ar
    27   15   16 ar
    28   16   17 ar
    29   16   33 1
    30   17   18 ar
    31   17   34 1
    32   18   23 1
    33   18   19 ar
    34   19   20 ar
    35   19   21 1
    36   20   35 1
    37   21   22 1
    38   22   23 1
    39   22   36 1
    40   22   37 1
    41   24   38 1
    42   24   39 1
    43   25   26 3
@<TRIPOS>MOLECULE
ZINC02355982
   46    49     0     0     0
SMALL
USER_CHARGES
2-[[4-methyl-5-(4-pyridyl)-1,2,4-triazol-3-yl]sulfanyl]-1-(4-phenylphenyl)-ethanone
@<TRIPOS>ATOM
      1 C1         -2.4601   11.4456   -0.0423 C.3       1 <0>         0.0605
      2 N1         -3.2177   10.1938    0.0295 N.pl3     1 <0>        -0.4543
      3 C2         -4.5782   10.0363   -0.1065 C.2       1 <0>         0.2156
      4 N2         -4.8333    8.7554    0.0274 N.2       1 <0>        -0.2531
      5 N3         -3.7407    8.1097    0.2296 N.2       1 <0>        -0.2875
      6 C3         -2.7215    8.9412    0.2460 C.2       1 <0>         0.1520
      7 S1         -1.0296    8.5157    0.4937 S.3       1 <0>         0.0676
      8 C4         -1.1835    6.7246    0.7044 C.3       1 <0>        -0.1574
      9 C5          0.1804    6.1271    0.9366 C.2       1 <0>         0.4176
     10 O1          1.1599    6.8419    0.9575 O.2       1 <0>        -0.4343
     11 C6          0.3234    4.6781    1.1377 C.ar      1 <0>        -0.1703
     12 C7          1.5899    4.1218    1.3534 C.ar      1 <0>        -0.0482
     13 C8          1.7209    2.7700    1.5403 C.ar      1 <0>        -0.1260
     14 C9          0.5929    1.9485    1.5156 C.ar      1 <0>        -0.0015
     15 C10        -0.6700    2.4999    1.2949 C.ar      1 <0>        -0.1251
     16 C11        -0.8066    3.8519    1.1133 C.ar      1 <0>        -0.0636
     17 C12         0.7372    0.4871    1.7179 C.ar      1 <0>        -0.0617
     18 C13         1.9984   -0.0693    1.9272 C.ar      1 <0>        -0.1036
     19 C14         2.1260   -1.4298    2.1198 C.ar      1 <0>        -0.1190
     20 C15         1.0068   -2.2425    2.0954 C.ar      1 <0>        -0.1107
     21 C16        -0.2466   -1.6968    1.8829 C.ar      1 <0>        -0.1190
     22 C17        -0.3871   -0.3372    1.6939 C.ar      1 <0>        -0.1033
     23 C18        -5.5656   11.1071   -0.3557 C.ar      1 <0>         0.0309
     24 C19        -6.9313   10.8932   -0.1315 C.ar      1 <0>        -0.1299
     25 C20        -7.8172   11.9221   -0.3720 C.ar      1 <0>         0.1089
     26 N4         -7.3945   13.0904   -0.8171 N.ar      1 <0>        -0.4762
     27 C21        -6.1177   13.3323   -1.0468 C.ar      1 <0>         0.1091
     28 C22        -5.1625   12.3622   -0.8280 C.ar      1 <0>        -0.1711
     29 H1         -2.2489   11.6832   -1.0849 H         1 <0>         0.0939
     30 H2         -3.0454   12.2505    0.4024 H         1 <0>         0.1018
     31 H3         -1.5225   11.3346    0.5023 H         1 <0>         0.1010
     32 H4         -1.5865    6.3255   -0.1192 H         1 <0>         0.1194
     33 H5         -1.8234    6.5133    1.5612 H         1 <0>         0.1357
     34 H6          2.4630    4.7572    1.3730 H         1 <0>         0.1389
     35 H7          2.6978    2.3404    1.7064 H         1 <0>         0.1349
     36 H8         -1.5409    1.8616    1.2714 H         1 <0>         0.1353
     37 H9         -1.7847    4.2788    0.9470 H         1 <0>         0.1374
     38 H10         2.8734    0.5637    1.9420 H         1 <0>         0.1274
     39 H11         3.1020   -1.8614    2.2861 H         1 <0>         0.1268
     40 H12         1.1120   -3.3073    2.2425 H         1 <0>         0.1253
     41 H13        -1.1167   -2.3363    1.8646 H         1 <0>         0.1270
     42 H14        -1.3660    0.0877    1.5274 H         1 <0>         0.1278
     43 H15        -7.2848    9.9382    0.2283 H         1 <0>         0.1499
     44 H16        -8.8720   11.7684   -0.1980 H         1 <0>         0.1669
     45 H17        -5.8168   14.3034   -1.4113 H         1 <0>         0.1642
     46 H18        -4.1193   12.5674   -1.0178 H         1 <0>         0.1400
@<TRIPOS>BOND
     1    1    2 1
     2    1   29 1
     3    1   30 1
     4    1   31 1
     5    2    6 1
     6    2    3 1
     7    3    4 2
     8    3   23 1
     9    4    5 1
    10    5    6 2
    11    6    7 1
    12    7    8 1
    13    8    9 1
    14    8   32 1
    15    8   33 1
    16    9   10 2
    17    9   11 1
    18   11   16 ar
    19   11   12 ar
    20   12   13 ar
    21   12   34 1
    22   13   14 ar
    23   13   35 1
    24   14   15 ar
    25   14   17 1
    26   15   16 ar
    27   15   36 1
    28   16   37 1
    29   17   22 ar
    30   17   18 ar
    31   18   19 ar
    32   18   38 1
    33   19   20 ar
    34   19   39 1
    35   20   21 ar
    36   20   40 1
    37   21   22 ar
    38   21   41 1
    39   22   42 1
    40   23   28 ar
    41   23   24 ar
    42   24   25 ar
    43   24   43 1
    44   25   26 ar
    45   25   44 1
    46   26   27 ar
    47   27   28 ar
    48   27   45 1
    49   28   46 1
@<TRIPOS>MOLECULE
ZINC02316758
   47    51     0     0     0
SMALL
USER_CHARGES

@<TRIPOS>ATOM
      1 C1         -0.0167    1.3781    0.0096 C.ar      1 <0>        -0.1189
      2 C2          1.1709    2.0855    0.0021 C.ar      1 <0>        -0.1306
      3 C3          2.3773    1.4107   -0.0130 C.ar      1 <0>        -0.0826
      4 C4          2.3960    0.0285   -0.0201 C.ar      1 <0>        -0.1054
      5 C5          1.2084   -0.6789   -0.0117 C.ar      1 <0>        -0.0970
      6 C6          0.0021   -0.0041    0.0020 C.ar      1 <0>        -0.1321
      7 C7          3.7112   -0.7071   -0.0376 C.3       1 <0>         0.1672
      8 N1          4.1518   -0.9524    1.3379 N.pl3     1 <0>        -0.4734
      9 C8          4.9321   -0.1072    2.0864 C.2       1 <0>         0.5187
     10 C9          5.1585   -0.6281    3.3153 C.2       1 <0>        -0.3972
     11 C10         4.4991   -1.8781    3.3902 C.ar      1 <0>         0.1819
     12 C11         3.8440   -2.0665    2.0895 C.ar      1 <0>         0.2863
     13 N2          3.1417   -3.1542    1.8659 N.ar      1 <0>        -0.4607
     14 C12         3.0255   -4.0819    2.8252 C.ar      1 <0>         0.0632
     15 C13         2.2755   -5.2498    2.5941 C.ar      1 <0>        -0.0749
     16 C14         2.1628   -6.1872    3.5735 C.ar      1 <0>        -0.1352
     17 C15         2.7813   -6.0101    4.8102 C.ar      1 <0>        -0.1171
     18 C16         3.5144   -4.8947    5.0712 C.ar      1 <0>        -0.0916
     19 C17         3.6545   -3.9016    4.0826 C.ar      1 <0>         0.0941
     20 N3          4.3789   -2.8043    4.3278 N.ar      1 <0>        -0.4746
     21 N4          5.4201    1.1096    1.6458 N.2       1 <0>        -1.0872
     22 S1          6.3537    2.0395    2.6489 S.o2      1 <0>         2.6431
     23 O1          5.5140    2.4521    3.7184 O.2       1 <0>        -1.0102
     24 O2          7.5610    1.3210    2.8618 O.2       1 <0>        -1.0116
     25 C18         6.7853    3.4963    1.7566 C.ar      1 <0>        -0.6222
     26 C19         7.9356    3.5222    0.9904 C.ar      1 <0>        -0.0222
     27 C20         8.2742    4.6651    0.2904 C.ar      1 <0>        -0.1467
     28 C21         7.4624    5.7820    0.3563 C.ar      1 <0>        -0.0801
     29 C22         6.3116    5.7558    1.1218 C.ar      1 <0>        -0.1468
     30 C23         5.9708    4.6115    1.8184 C.ar      1 <0>        -0.0224
     31 H1         -0.9591    1.9053    0.0259 H         1 <0>         0.1159
     32 H2          1.1563    3.1654    0.0076 H         1 <0>         0.1187
     33 H3          3.3051    1.9634   -0.0196 H         1 <0>         0.1356
     34 H4          1.2231   -1.7588   -0.0176 H         1 <0>         0.1229
     35 H5         -0.9258   -0.5567    0.0082 H         1 <0>         0.1168
     36 H6          3.5884   -1.6586   -0.5549 H         1 <0>         0.0876
     37 H7          4.4573   -0.1052   -0.5563 H         1 <0>         0.1058
     38 H8          5.7408   -0.1700    4.1010 H         1 <0>         0.1396
     39 H9          1.7901   -5.4015    1.6414 H         1 <0>         0.1245
     40 H10         1.5856   -7.0815    3.3904 H         1 <0>         0.1203
     41 H11         2.6765   -6.7688    5.5716 H         1 <0>         0.1208
     42 H12         3.9882   -4.7711    6.0338 H         1 <0>         0.1270
     43 H13         8.5699    2.6496    0.9389 H         1 <0>         0.1372
     44 H14         9.1733    4.6856   -0.3076 H         1 <0>         0.1266
     45 H15         7.7273    6.6752   -0.1900 H         1 <0>         0.1238
     46 H16         5.6775    6.6285    1.1736 H         1 <0>         0.1265
     47 H17         5.0698    4.5898    2.4135 H         1 <0>         0.1370
@<TRIPOS>BOND
     1    1    6 ar
     2    1    2 ar
     3    1   31 1
     4    2    3 ar
     5    2   32 1
     6    3    4 ar
     7    3   33 1
     8    4    5 ar
     9    4    7 1
    10    5    6 ar
    11    5   34 1
    12    6   35 1
    13    7    8 1
    14    7   36 1
    15    7   37 1
    16    8   12 1
    17    8    9 1
    18    9   10 2
    19    9   21 1
    20   10   11 1
    21   10   38 1
    22   11   20 ar
    23   11   12 ar
    24   12   13 ar
    25   13   14 ar
    26   14   19 ar
    27   14   15 ar
    28   15   16 ar
    29   15   39 1
    30   16   17 ar
    31   16   40 1
    32   17   18 ar
    33   17   41 1
    34   18   19 ar
    35   18   42 1
    36   19   20 ar
    37   21   22 1
    38   22   23 2
    39   22   24 2
    40   22   25 1
    41   25   30 ar
    42   25   26 ar
    43   26   27 ar
    44   26   43 1
    45   27   28 ar
    46   27   44 1
    47   28   29 ar
    48   28   45 1
    49   29   30 ar
    50   29   46 1
    51   30   47 1
@<TRIPOS>MOLECULE
ZINC18118599
   36    38     0     0     0
SMALL
USER_CHARGES

@<TRIPOS>ATOM
      1 C1         -0.2981    1.2276   -0.0039 C.ar      1 <0>        -0.0937
      2 C2          0.8092    2.0269   -0.2300 C.ar      1 <0>        -0.0933
      3 C3          2.0646    1.4658   -0.3753 C.ar      1 <0>        -0.0640
      4 C4          2.2210    0.0828   -0.2918 C.ar      1 <0>        -0.1213
      5 C5          1.0926   -0.7278   -0.0505 C.ar      1 <0>        -0.1220
      6 C6         -0.1637   -0.1463    0.0863 C.ar      1 <0>        -0.0658
      7 C7          1.2571   -2.1962    0.0658 C.2       1 <0>         0.4004
      8 O1          0.3574   -2.9071    0.4663 O.2       1 <0>        -0.4049
      9 C8          2.5828   -2.7614   -0.3336 C.2       1 <0>         0.1030
     10 C9          3.8011   -1.9310    0.0320 C.3       1 <0>        -0.0039
     11 C10         3.5547   -0.5214   -0.4595 C.2       1 <0>         0.4056
     12 O2          4.4477    0.1064   -0.9870 O.2       1 <0>        -0.4003
     13 Cl1         4.0240   -1.9254    1.8212 Cl        1 <0>        -0.0996
     14 N1          2.6858   -3.8884   -0.9521 N.2       1 <0>        -0.4087
     15 C11         1.4815   -4.5841   -1.4124 C.3       1 <0>         0.0194
     16 C12         1.3280   -5.8994   -0.6460 C.3       1 <0>        -0.0661
     17 C13         0.0891   -6.6150   -1.1195 C.ar      1 <0>        -0.0973
     18 C14        -1.1249   -6.3756   -0.5030 C.ar      1 <0>        -0.0803
     19 C15        -2.2618   -7.0310   -0.9366 C.ar      1 <0>        -0.1520
     20 C16        -2.1845   -7.9275   -1.9889 C.ar      1 <0>         0.0982
     21 C17        -0.9680   -8.1665   -2.6055 C.ar      1 <0>        -0.1524
     22 C18         0.1665   -7.5060   -2.1736 C.ar      1 <0>        -0.0838
     23 F1         -3.2951   -8.5691   -2.4133 F         1 <0>        -0.1388
     24 H1         -1.2725    1.6798    0.1073 H         1 <0>         0.1415
     25 H2          0.6915    3.0986   -0.2938 H         1 <0>         0.1419
     26 H3          2.9223    2.0975   -0.5535 H         1 <0>         0.1462
     27 H4         -1.0310   -0.7653    0.2626 H         1 <0>         0.1446
     28 H5          4.6877   -2.3418   -0.4510 H         1 <0>         0.1583
     29 H6          0.6086   -3.9559   -1.2344 H         1 <0>         0.0696
     30 H7          1.5676   -4.7928   -2.4787 H         1 <0>         0.1065
     31 H8          2.2008   -6.5275   -0.8240 H         1 <0>         0.0880
     32 H9          1.2419   -5.6907    0.4204 H         1 <0>         0.0811
     33 H10        -1.1849   -5.6765    0.3180 H         1 <0>         0.1352
     34 H11        -3.2100   -6.8441   -0.4547 H         1 <0>         0.1368
     35 H12        -0.9065   -8.8658   -3.4262 H         1 <0>         0.1372
     36 H13         1.1146   -7.6889   -2.6574 H         1 <0>         0.1347
@<TRIPOS>BOND
     1    1    6 ar
     2    1    2 ar
     3    1   24 1
     4    2    3 ar
     5    2   25 1
     6    3    4 ar
     7    3   26 1
     8    4   11 1
     9    4    5 ar
    10    5    6 ar
    11    5    7 1
    12    6   27 1
    13    7    8 2
    14    7    9 1
    15    9   14 2
    16    9   10 1
    17   10   11 1
    18   10   13 1
    19   10   28 1
    20   11   12 2
    21   14   15 1
    22   15   16 1
    23   15   29 1
    24   15   30 1
    25   16   17 1
    26   16   31 1
    27   16   32 1
    28   17   22 ar
    29   17   18 ar
    30   18   19 ar
    31   18   33 1
    32   19   20 ar
    33   19   34 1
    34   20   21 ar
    35   20   23 1
    36   21   22 ar
    37   21   35 1
    38   22   36 1
@<TRIPOS>MOLECULE
ZINC18118599
   36    38     0     0     0
SMALL
USER_CHARGES

@<TRIPOS>ATOM
      1 C1         -0.3470    1.0257    0.6698 C.ar      1 <0>        -0.0913
      2 C2          0.7469    1.8626    0.5313 C.ar      1 <0>        -0.0950
      3 C3          2.0068    1.3419    0.3003 C.ar      1 <0>        -0.0633
      4 C4          2.1816   -0.0383    0.2075 C.ar      1 <0>        -0.1238
      5 C5          1.0670   -0.8886    0.3599 C.ar      1 <0>        -0.1137
      6 C6         -0.1942   -0.3467    0.5850 C.ar      1 <0>        -0.0646
      7 C7          1.2514   -2.3576    0.2888 C.2       1 <0>         0.4484
      8 O1          0.3666   -3.1257    0.6085 O.2       1 <0>        -0.3916
      9 C8          2.5780   -2.8494   -0.1957 C.2       1 <0>         0.1052
     10 C9          3.7912   -2.0542    0.2553 C.3       1 <0>        -0.0696
     11 C10         3.5201   -0.5977   -0.0522 C.2       1 <0>         0.4086
     12 O2          4.3973    0.1038   -0.5083 O.2       1 <0>        -0.4055
     13 Cl1         4.0402   -2.2698    2.0280 Cl        1 <0>        -0.0966
     14 N1          2.6858   -3.8884   -0.9521 N.2       1 <0>        -0.4061
     15 C11         4.0102   -4.4239   -1.2767 C.3       1 <0>         0.0168
     16 C12         4.2755   -4.2553   -2.7740 C.3       1 <0>        -0.0734
     17 C13         5.6379   -4.8062   -3.1079 C.ar      1 <0>        -0.1003
     18 C14         6.7485   -3.9851   -3.0483 C.ar      1 <0>        -0.0856
     19 C15         7.9985   -4.4893   -3.3539 C.ar      1 <0>        -0.1500
     20 C16         8.1382   -5.8173   -3.7197 C.ar      1 <0>         0.1002
     21 C17         7.0252   -6.6388   -3.7790 C.ar      1 <0>        -0.1504
     22 C18         5.7769   -6.1337   -3.4680 C.ar      1 <0>        -0.0815
     23 F1          9.3596   -6.3112   -4.0190 F         1 <0>        -0.1377
     24 H1         -1.3252    1.4466    0.8496 H         1 <0>         0.1425
     25 H2          0.6149    2.9320    0.6041 H         1 <0>         0.1417
     26 H3          2.8539    2.0030    0.1917 H         1 <0>         0.1450
     27 H4         -1.0511   -0.9951    0.6935 H         1 <0>         0.1474
     28 H5          4.6756   -2.3886   -0.2870 H         1 <0>         0.1494
     29 H6          4.7691   -3.8843   -0.7102 H         1 <0>         0.0632
     30 H7          4.0477   -5.4821   -1.0179 H         1 <0>         0.1165
     31 H8          3.5166   -4.7950   -3.3405 H         1 <0>         0.0931
     32 H9          4.2381   -3.1972   -3.0328 H         1 <0>         0.0776
     33 H10         6.6392   -2.9492   -2.7633 H         1 <0>         0.1324
     34 H11         8.8659   -3.8475   -3.3076 H         1 <0>         0.1380
     35 H12         7.1329   -7.6747   -4.0646 H         1 <0>         0.1382
     36 H13         4.9092   -6.7753   -3.5098 H         1 <0>         0.1359
@<TRIPOS>BOND
     1    1    6 ar
     2    1    2 ar
     3    1   24 1
     4    2    3 ar
     5    2   25 1
     6    3    4 ar
     7    3   26 1
     8    4   11 1
     9    4    5 ar
    10    5    6 ar
    11    5    7 1
    12    6   27 1
    13    7    8 2
    14    7    9 1
    15    9   14 2
    16    9   10 1
    17   10   11 1
    18   10   13 1
    19   10   28 1
    20   11   12 2
    21   14   15 1
    22   15   16 1
    23   15   29 1
    24   15   30 1
    25   16   17 1
    26   16   31 1
    27   16   32 1
    28   17   22 ar
    29   17   18 ar
    30   18   19 ar
    31   18   33 1
    32   19   20 ar
    33   19   34 1
    34   20   21 ar
    35   20   23 1
    36   21   22 ar
    37   21   35 1
    38   22   36 1
@<TRIPOS>MOLECULE
ZINC02232864
   39    41     0     0     0
SMALL
USER_CHARGES
2-[[5-(3-chlorophenyl)-4-methyl-1,2,4-triazol-3-yl]sulfanyl]-1-(4-nitrophenyl)-ethanone
@<TRIPOS>ATOM
      1 C1          3.3130    9.2300   -0.3349 C.3       1 <0>         0.0605
      2 N1          4.1676    8.0545   -0.1503 N.pl3     1 <0>        -0.4560
      3 C2          5.5342    8.0370    0.0083 C.2       1 <0>         0.2276
      4 N2          5.8911    6.7802    0.1359 N.2       1 <0>        -0.2598
      5 N3          4.8556    6.0217    0.0744 N.2       1 <0>        -0.2866
      6 C3          3.7735    6.7481   -0.0964 C.2       1 <0>         0.1460
      7 S1          2.1230    6.1476   -0.2371 S.3       1 <0>         0.0710
      8 C4          2.4209    4.3694   -0.0787 C.3       1 <0>        -0.1611
      9 C5          1.1109    3.6303   -0.1719 C.2       1 <0>         0.4150
     10 O1          0.0778    4.2452   -0.3298 O.2       1 <0>        -0.4141
     11 C6          1.0854    2.1623   -0.0713 C.ar      1 <0>        -0.1150
     12 C7         -0.1283    1.4728   -0.1573 C.ar      1 <0>        -0.0559
     13 C8         -0.1439    0.0974   -0.0616 C.ar      1 <0>        -0.0640
     14 C9          1.0374   -0.6008    0.1190 C.ar      1 <0>        -0.0132
     15 C10         2.2426    0.0743    0.2051 C.ar      1 <0>        -0.0638
     16 C11         2.2748    1.4496    0.1113 C.ar      1 <0>        -0.0698
     17 N4          1.0117   -2.0771    0.2212 N.pl3     1 <0>         0.0198
     18 O2         -0.0471   -2.6744    0.1463 O.2       1 <0>        -0.1477
     19 O3          2.0494   -2.6947    0.3802 O.3       1 <0>        -0.1466
     20 C12         6.4319    9.2114    0.0255 C.ar      1 <0>        -0.0061
     21 C13         5.9129   10.4871    0.2539 C.ar      1 <0>        -0.1103
     22 C14         6.7554   11.5792    0.2687 C.ar      1 <0>        -0.1005
     23 C15         8.1127   11.4130    0.0578 C.ar      1 <0>        -0.0939
     24 C16         8.6345   10.1509   -0.1693 C.ar      1 <0>        -0.0321
     25 C17         7.8024    9.0488   -0.1809 C.ar      1 <0>        -0.0661
     26 Cl1        10.3388    9.9525   -0.4334 Cl        1 <0>        -0.0543
     27 H1          3.0702    9.6590    0.6373 H         1 <0>         0.0934
     28 H2          3.8387    9.9704   -0.9377 H         1 <0>         0.1027
     29 H3          2.3940    8.9351   -0.8416 H         1 <0>         0.1000
     30 H4          2.8481    4.1805    0.8055 H         1 <0>         0.1230
     31 H5          3.0822    4.0390   -0.8797 H         1 <0>         0.1401
     32 H6         -1.0504    2.0159   -0.3027 H         1 <0>         0.1616
     33 H7         -1.0803   -0.4366   -0.1282 H         1 <0>         0.1640
     34 H8          3.1601   -0.4775    0.3464 H         1 <0>         0.1645
     35 H9          3.2160    1.9749    0.1783 H         1 <0>         0.1606
     36 H10         4.8537   10.6187    0.4183 H         1 <0>         0.1348
     37 H11         6.3547   12.5664    0.4456 H         1 <0>         0.1423
     38 H12         8.7680   12.2714    0.0708 H         1 <0>         0.1414
     39 H13         8.2106    8.0640   -0.3536 H         1 <0>         0.1484
@<TRIPOS>BOND
     1    1    2 1
     2    1   27 1
     3    1   28 1
     4    1   29 1
     5    2    6 1
     6    2    3 1
     7    3    4 2
     8    3   20 1
     9    4    5 1
    10    5    6 2
    11    6    7 1
    12    7    8 1
    13    8    9 1
    14    8   30 1
    15    8   31 1
    16    9   10 2
    17    9   11 1
    18   11   16 ar
    19   11   12 ar
    20   12   13 ar
    21   12   32 1
    22   13   14 ar
    23   13   33 1
    24   14   15 ar
    25   14   17 1
    26   15   16 ar
    27   15   34 1
    28   16   35 1
    29   17   18 2
    30   17   19 1
    31   20   25 ar
    32   20   21 ar
    33   21   22 ar
    34   21   36 1
    35   22   23 ar
    36   22   37 1
    37   23   24 ar
    38   23   38 1
    39   24   25 ar
    40   24   26 1
    41   25   39 1
@<TRIPOS>MOLECULE
ZINC00901405
   18    19     0     0     0
SMALL
USER_CHARGES

@<TRIPOS>ATOM
      1 C1         -0.0167    1.3821    0.0096 C.ar      1 <0>        -0.0981
      2 C2          1.1647    2.0985    0.0022 C.ar      1 <0>        -0.0981
      3 C3          2.3850    1.4409   -0.0130 C.ar      1 <0>        -0.0670
      4 C4          2.4201    0.0516   -0.0208 C.ar      1 <0>        -0.1273
      5 C5          1.2176   -0.6776   -0.0132 C.ar      1 <0>        -0.1273
      6 C6          0.0021   -0.0041    0.0020 C.ar      1 <0>        -0.0670
      7 C7          1.2665   -2.1556   -0.0211 C.2       1 <0>         0.4132
      8 O1          0.2365   -2.7998   -0.0152 O.2       1 <0>        -0.4213
      9 C8          2.5707   -2.8448   -0.0368 C.2       1 <0>        -0.1396
     10 C9          3.7162   -2.1502   -0.0436 C.2       1 <0>        -0.1395
     11 C10         3.7080   -0.6750   -0.0365 C.2       1 <0>         0.4132
     12 O2          4.7553   -0.0594   -0.0433 O.2       1 <0>        -0.4213
     13 H1         -0.9612    1.9056    0.0260 H         1 <0>         0.1393
     14 H2          1.1373    3.1781    0.0079 H         1 <0>         0.1393
     15 H3          3.3052    2.0062   -0.0191 H         1 <0>         0.1440
     16 H4         -0.9247   -0.5586    0.0083 H         1 <0>         0.1440
     17 H5          2.6025   -3.9244   -0.0424 H         1 <0>         0.1567
     18 H6          4.6587   -2.6775   -0.0543 H         1 <0>         0.1567
@<TRIPOS>BOND
     1    1    6 ar
     2    1    2 ar
     3    1   13 1
     4    2    3 ar
     5    2   14 1
     6    3    4 ar
     7    3   15 1
     8    4   11 1
     9    4    5 ar
    10    5    6 ar
    11    5    7 1
    12    6   16 1
    13    7    8 2
    14    7    9 1
    15    9   10 2
    16    9   17 1
    17   10   11 1
    18   10   18 1
    19   11   12 2
@<TRIPOS>MOLECULE
ZINC01274665
   49    52     0     0     0
SMALL
USER_CHARGES
1-(3,4-dihydroxyphenyl)-2-[[4-phenyl-5-(p-tolyl)-1,2,4-triazol-3-yl]sulfanyl]ethanone
@<TRIPOS>ATOM
      1 C1          2.4635    3.7925   -0.8916 C.3       1 <0>        -0.1200
      2 C2          1.1637    3.0555   -0.6951 C.ar      1 <0>        -0.0655
      3 C3         -0.0241    3.6319   -1.1088 C.ar      1 <0>        -0.1187
      4 C4         -1.2175    2.9627   -0.9319 C.ar      1 <0>        -0.0956
      5 C5         -1.2253    1.7036   -0.3291 C.ar      1 <0>        -0.0323
      6 C6         -0.0228    1.1260    0.0820 C.ar      1 <0>        -0.0667
      7 C7          1.1635    1.8058   -0.1013 C.ar      1 <0>        -0.1204
      8 C8         -2.5007    0.9833   -0.1313 C.2       1 <0>         0.2423
      9 N1         -2.6434   -0.2995    0.1089 N.2       1 <0>        -0.2646
     10 N2         -3.8898   -0.5890    0.2271 N.2       1 <0>        -0.2857
     11 C9         -4.6222    0.4912    0.0697 C.2       1 <0>         0.1528
     12 N3         -3.7642    1.5322   -0.1582 N.pl3     1 <0>        -0.4138
     13 C10        -4.1003    2.8754   -0.3767 C.ar      1 <0>         0.0983
     14 C11        -3.7752    3.8367    0.5707 C.ar      1 <0>        -0.0941
     15 C12        -4.1022    5.1604    0.3498 C.ar      1 <0>        -0.1045
     16 C13        -4.7637    5.5266   -0.8079 C.ar      1 <0>        -0.0975
     17 C14        -5.0940    4.5705   -1.7508 C.ar      1 <0>        -0.1036
     18 C15        -4.7641    3.2462   -1.5383 C.ar      1 <0>        -0.0996
     19 S1         -6.3801    0.5828    0.1466 S.3       1 <0>         0.0738
     20 C16        -6.7709   -1.1524    0.4820 C.3       1 <0>        -0.1615
     21 C17        -8.2647   -1.3187    0.5916 C.2       1 <0>         0.4188
     22 O1         -8.9934   -0.3586    0.4562 O.2       1 <0>        -0.4301
     23 C18        -8.8381   -2.6434    0.8623 C.ar      1 <0>        -0.1606
     24 C19        -7.9991   -3.7541    1.0132 C.ar      1 <0>        -0.0600
     25 C20        -8.5390   -4.9936    1.2736 C.ar      1 <0>        -0.1417
     26 C21        -9.9158   -5.1483    1.3744 C.ar      1 <0>         0.1213
     27 C22       -10.7588   -4.0479    1.2191 C.ar      1 <0>         0.0691
     28 C23       -10.2259   -2.8003    0.9645 C.ar      1 <0>        -0.0654
     29 O2        -12.1060   -4.2041    1.3191 O.3       1 <0>        -0.4828
     30 O3        -10.4425   -6.3741    1.6252 O.3       1 <0>        -0.4852
     31 H1          2.6679    4.4084   -0.0159 H         1 <0>         0.0751
     32 H2          3.2717    3.0738   -1.0271 H         1 <0>         0.0705
     33 H3          2.3909    4.4282   -1.7741 H         1 <0>         0.0694
     34 H4         -0.0171    4.6076   -1.5717 H         1 <0>         0.1287
     35 H5         -2.1440    3.4138   -1.2550 H         1 <0>         0.1263
     36 H6         -0.0216    0.1508    0.5460 H         1 <0>         0.1370
     37 H7          2.0942    1.3617    0.2197 H         1 <0>         0.1321
     38 H8         -3.2628    3.5506    1.4774 H         1 <0>         0.1308
     39 H9         -3.8450    5.9094    1.0841 H         1 <0>         0.1378
     40 H10        -5.0227    6.5615   -0.9763 H         1 <0>         0.1356
     41 H11        -5.6106    4.8595   -2.6541 H         1 <0>         0.1385
     42 H12        -5.0219    2.5000   -2.2752 H         1 <0>         0.1330
     43 H13        -6.4259   -1.7220   -0.2640 H         1 <0>         0.1199
     44 H14        -6.3018   -1.4561    1.4178 H         1 <0>         0.1361
     45 H15        -6.9286   -3.6377    0.9302 H         1 <0>         0.1440
     46 H16        -7.8906   -5.8487    1.3949 H         1 <0>         0.1448
     47 H17       -10.8775   -1.9475    0.8441 H         1 <0>         0.1478
     48 H18       -12.5418   -4.4067    0.4800 H         1 <0>         0.3909
     49 H19       -10.6412   -6.8870    0.8299 H         1 <0>         0.3956
@<TRIPOS>BOND
     1    1    2 1
     2    1   31 1
     3    1   32 1
     4    1   33 1
     5    2    7 ar
     6    2    3 ar
     7    3    4 ar
     8    3   34 1
     9    4    5 ar
    10    4   35 1
    11    5    6 ar
    12    5    8 1
    13    6    7 ar
    14    6   36 1
    15    7   37 1
    16    8   12 1
    17    8    9 2
    18    9   10 1
    19   10   11 2
    20   11   12 1
    21   11   19 1
    22   12   13 1
    23   13   18 ar
    24   13   14 ar
    25   14   15 ar
    26   14   38 1
    27   15   16 ar
    28   15   39 1
    29   16   17 ar
    30   16   40 1
    31   17   18 ar
    32   17   41 1
    33   18   42 1
    34   19   20 1
    35   20   21 1
    36   20   43 1
    37   20   44 1
    38   21   22 2
    39   21   23 1
    40   23   28 ar
    41   23   24 ar
    42   24   25 ar
    43   24   45 1
    44   25   26 ar
    45   25   46 1
    46   26   27 ar
    47   26   30 1
    48   27   28 ar
    49   27   29 1
    50   28   47 1
    51   29   48 1
    52   30   49 1
@<TRIPOS>MOLECULE
ZINC02369666
   44    47     0     0     0
SMALL
USER_CHARGES

@<TRIPOS>ATOM
      1 C1         -0.0178    1.4608    0.0101 C.3       1 <0>         0.0687
      2 N1          0.0021   -0.0041    0.0020 N.pl3     1 <0>        -0.4557
      3 C2          0.0085   -0.8307   -1.1000 C.2       1 <0>         0.2602
      4 N2          0.0280   -2.0674   -0.6530 N.2       1 <0>        -0.2486
      5 N3          0.0342   -2.0690    0.6320 N.2       1 <0>        -0.2861
      6 C3          0.0241   -0.8360    1.0863 C.2       1 <0>         0.1545
      7 S1          0.0334   -0.3462    2.7788 S.3       1 <0>         0.0619
      8 C4          0.0642   -1.9147    3.6895 C.3       1 <0>        -0.1685
      9 C5          0.0743   -1.6357    5.1704 C.2       1 <0>         0.4203
     10 O1          0.0620   -0.4914    5.5719 O.2       1 <0>        -0.4341
     11 C6          0.0992   -2.7505    6.1282 C.ar      1 <0>        -0.1689
     12 C7          0.1192   -4.0718    5.6658 C.ar      1 <0>        -0.0641
     13 C8          0.1423   -5.1098    6.5609 C.ar      1 <0>        -0.1251
     14 C9          0.1454   -4.8503    7.9323 C.ar      1 <0>        -0.0023
     15 C10         0.1250   -3.5339    8.3956 C.ar      1 <0>        -0.1258
     16 C11         0.1087   -2.4925    7.5042 C.ar      1 <0>        -0.0487
     17 C12         0.1700   -5.9745    8.8981 C.ar      1 <0>        -0.0613
     18 C13         0.1957   -7.2909    8.4394 C.ar      1 <0>        -0.1034
     19 C14         0.2184   -8.3333    9.3433 C.ar      1 <0>        -0.1190
     20 C15         0.2152   -8.0743   10.7022 C.ar      1 <0>        -0.1109
     21 C16         0.1897   -6.7703   11.1633 C.ar      1 <0>        -0.1190
     22 C17         0.1732   -5.7195   10.2689 C.ar      1 <0>        -0.1037
     23 C18        -0.0049   -0.4099   -2.5096 C.2       1 <0>         0.0353
     24 C19         0.2813   -1.1990   -3.5831 C.2       1 <0>        -0.1314
     25 C20         0.1450   -0.3907   -4.7281 C.2       1 <0>        -0.2114
     26 C21        -0.2134    0.8378   -4.3050 C.2       1 <0>        -0.0132
     27 O2         -0.3080    0.8218   -2.9651 O.3       1 <0>        -0.1757
     28 H1          1.0048    1.8381    0.0023 H         1 <0>         0.0905
     29 H2         -0.5450    1.8219   -0.8730 H         1 <0>         0.1015
     30 H3         -0.5280    1.8123    0.9069 H         1 <0>         0.0988
     31 H4         -0.8201   -2.4994    3.4360 H         1 <0>         0.1345
     32 H5          0.9596   -2.4743    3.4190 H         1 <0>         0.1346
     33 H6          0.1161   -4.2731    4.6047 H         1 <0>         0.1376
     34 H7          0.1578   -6.1293    6.2047 H         1 <0>         0.1351
     35 H8          0.1268   -3.3355    9.4572 H         1 <0>         0.1347
     36 H9          0.0977   -1.4739    7.8631 H         1 <0>         0.1389
     37 H10         0.1975   -7.4943    7.3787 H         1 <0>         0.1278
     38 H11         0.2383   -9.3534    8.9891 H         1 <0>         0.1269
     39 H12         0.2323   -8.8934   11.4059 H         1 <0>         0.1252
     40 H13         0.1874   -6.5741   12.2253 H         1 <0>         0.1267
     41 H14         0.1581   -4.7018   10.6300 H         1 <0>         0.1274
     42 H15         0.5593   -2.2424   -3.5601 H         1 <0>         0.1627
     43 H16         0.2986   -0.6973   -5.7522 H         1 <0>         0.1601
     44 H17        -0.3974    1.6929   -4.9386 H         1 <0>         0.2135
@<TRIPOS>BOND
     1    1    2 1
     2    1   28 1
     3    1   29 1
     4    1   30 1
     5    2    6 1
     6    2    3 1
     7    3    4 2
     8    3   23 1
     9    4    5 1
    10    5    6 2
    11    6    7 1
    12    7    8 1
    13    8    9 1
    14    8   31 1
    15    8   32 1
    16    9   10 2
    17    9   11 1
    18   11   16 ar
    19   11   12 ar
    20   12   13 ar
    21   12   33 1
    22   13   14 ar
    23   13   34 1
    24   14   15 ar
    25   14   17 1
    26   15   16 ar
    27   15   35 1
    28   16   36 1
    29   17   22 ar
    30   17   18 ar
    31   18   19 ar
    32   18   37 1
    33   19   20 ar
    34   19   38 1
    35   20   21 ar
    36   20   39 1
    37   21   22 ar
    38   21   40 1
    39   22   41 1
    40   23   27 1
    41   23   24 2
    42   24   25 1
    43   24   42 1
    44   25   26 2
    45   25   43 1
    46   26   27 1
    47   26   44 1
@<TRIPOS>MOLECULE
ZINC18010202
   33    35     0     0     0
SMALL
USER_CHARGES

@<TRIPOS>ATOM
      1 C1          0.4781    1.3940    0.9161 C.ar      1 <0>        -0.0939
      2 C2          1.1630    2.0867   -0.0668 C.ar      1 <0>        -0.1124
      3 C3          1.8765    1.4028   -1.0352 C.ar      1 <0>        -0.0933
      4 C4          1.9099    0.0229   -1.0265 C.ar      1 <0>        -0.0270
      5 C5          1.2206   -0.6829   -0.0363 C.ar      1 <0>         0.1003
      6 C6          0.5024    0.0150    0.9374 C.ar      1 <0>        -0.1513
      7 N1          1.2486   -2.0509   -0.0214 N.2       1 <0>        -0.4499
      8 C7          0.1281   -2.7302    0.0853 C.2       1 <0>         0.3802
      9 N2         -1.1696   -2.2609    0.1143 N.am      1 <0>        -0.6899
     10 C8         -2.1785   -3.1070    0.2280 C.2       1 <0>         0.5534
     11 C9         -1.8875   -4.5000    0.3186 C.2       1 <0>        -0.2465
     12 C10        -2.7520   -5.5654    0.4418 C.2       1 <0>         0.0772
     13 C11        -2.2478   -6.8734    0.5154 C.2       1 <0>        -0.1657
     14 C12        -3.1019   -7.9260    0.6371 C.2       1 <0>         0.0039
     15 C13        -2.5939   -9.2442    0.7113 C.2       1 <0>        -0.0226
     16 C14        -3.3414  -10.3988    0.8298 C.2       1 <0>        -0.1524
     17 C15        -2.4278  -11.4640    0.8667 C.2       1 <0>        -0.2205
     18 C16        -1.1895  -10.9322    0.7717 C.2       1 <0>        -0.0068
     19 O1         -1.2923   -9.5982    0.6730 O.3       1 <0>        -0.1649
     20 S1         -0.1031   -4.4961    0.2220 S.3       1 <0>         0.0927
     21 O2         -3.3287   -2.7068    0.2553 O.2       1 <0>        -0.4946
     22 Cl1         2.8051   -0.8338   -2.2425 Cl        1 <0>        -0.0476
     23 H1         -0.0734    1.9346    1.6711 H         1 <0>         0.1352
     24 H2          1.1403    3.1664   -0.0783 H         1 <0>         0.1378
     25 H3          2.4082    1.9499   -1.7997 H         1 <0>         0.1415
     26 H4         -0.0325   -0.5239    1.7054 H         1 <0>         0.1304
     27 H5         -3.8176   -5.3943    0.4817 H         1 <0>         0.1566
     28 H6         -1.1822   -7.0445    0.4755 H         1 <0>         0.1306
     29 H7         -4.1675   -7.7550    0.6771 H         1 <0>         0.1579
     30 H8         -4.4178  -10.4688    0.8839 H         1 <0>         0.1586
     31 H9         -2.6696  -12.5129    0.9549 H         1 <0>         0.1563
     32 H10        -0.2655  -11.4913    0.7709 H         1 <0>         0.2095
     33 H11        -1.3414   -1.3083    0.0513 H         1 <0>         0.4173
@<TRIPOS>BOND
     1    1    6 ar
     2    1    2 ar
     3    1   23 1
     4    2    3 ar
     5    2   24 1
     6    3    4 ar
     7    3   25 1
     8    4    5 ar
     9    4   22 1
    10    5    6 ar
    11    5    7 1
    12    6   26 1
    13    7    8 2
    14    8   20 1
    15    8    9 1
    16    9   10 am
    17    9   33 1
    18   10   11 1
    19   10   21 2
    20   11   12 2
    21   11   20 1
    22   12   13 1
    23   12   27 1
    24   13   14 2
    25   13   28 1
    26   14   15 1
    27   14   29 1
    28   15   19 1
    29   15   16 2
    30   16   17 1
    31   16   30 1
    32   17   18 2
    33   17   31 1
    34   18   19 1
    35   18   32 1
@<TRIPOS>MOLECULE
ZINC00935566
   39    41     0     0     0
SMALL
USER_CHARGES
1-(4-chlorophenyl)-2-[[4-ethyl-5-(3-pyridyl)-1,2,4-triazol-3-yl]sulfanyl]ethanone
@<TRIPOS>ATOM
      1 C1          2.9524    9.8433    0.9678 C.3       1 <0>        -0.1791
      2 C2          3.3159    9.2265   -0.3844 C.3       1 <0>         0.0879
      3 N1          4.1677    8.0535   -0.1729 N.pl3     1 <0>        -0.4533
      4 C3          5.5429    8.0153   -0.1649 C.2       1 <0>         0.2292
      5 N2          5.8925    6.7690    0.0531 N.2       1 <0>        -0.2608
      6 N3          4.8451    6.0363    0.1855 N.2       1 <0>        -0.2869
      7 C4          3.7620    6.7704    0.0602 C.2       1 <0>         0.1496
      8 S1          2.0971    6.2035    0.1656 S.3       1 <0>         0.0663
      9 C5          2.3834    4.4432    0.4749 C.3       1 <0>        -0.1587
     10 C6          1.0600    3.7341    0.6042 C.2       1 <0>         0.4183
     11 O1          0.0252    4.3574    0.4978 O.2       1 <0>        -0.4296
     12 C7          1.0234    2.2860    0.8596 C.ar      1 <0>        -0.1640
     13 C8         -0.2033    1.6244    0.9803 C.ar      1 <0>        -0.0420
     14 C9         -0.2299    0.2674    1.2191 C.ar      1 <0>        -0.1225
     15 C10         0.9545   -0.4416    1.3397 C.ar      1 <0>        -0.0012
     16 C11         2.1732    0.2070    1.2213 C.ar      1 <0>        -0.1216
     17 C12         2.2152    1.5638    0.9830 C.ar      1 <0>        -0.0566
     18 Cl1         0.9113   -2.1507    1.6410 Cl        1 <0>        -0.0547
     19 C13         6.4550    9.1607   -0.3701 C.ar      1 <0>        -0.0706
     20 C14         5.9962   10.4736   -0.2093 C.ar      1 <0>        -0.0753
     21 C15         6.8899   11.5100   -0.4126 C.ar      1 <0>        -0.1669
     22 C16         8.1958   11.2188   -0.7648 C.ar      1 <0>         0.1142
     23 N4          8.6004    9.9716   -0.9088 N.ar      1 <0>        -0.4764
     24 C17         7.7890    8.9512   -0.7216 C.ar      1 <0>         0.1493
     25 H1          3.8627   10.1440    1.4865 H         1 <0>         0.0679
     26 H2          2.3186   10.7160    0.8104 H         1 <0>         0.0900
     27 H3          2.4168    9.1092    1.5697 H         1 <0>         0.0747
     28 H4          3.8515    9.9606   -0.9864 H         1 <0>         0.1070
     29 H5          2.4056    8.9258   -0.9031 H         1 <0>         0.1055
     30 H6          2.9042    4.3339    1.3216 H         1 <0>         0.1201
     31 H7          2.9454    4.0152   -0.3552 H         1 <0>         0.1366
     32 H8         -1.1272    2.1750    0.8821 H         1 <0>         0.1467
     33 H9         -1.1762   -0.2447    1.3128 H         1 <0>         0.1440
     34 H10         3.0924   -0.3519    1.3164 H         1 <0>         0.1445
     35 H11         3.1658    2.0681    0.8913 H         1 <0>         0.1456
     36 H12         4.9709   10.6723    0.0659 H         1 <0>         0.1435
     37 H13         6.5716   12.5355   -0.2971 H         1 <0>         0.1449
     38 H14         8.8955   12.0260   -0.9240 H         1 <0>         0.1642
     39 H15         8.1584    7.9438   -0.8448 H         1 <0>         0.1702
@<TRIPOS>BOND
     1    1    2 1
     2    1   25 1
     3    1   26 1
     4    1   27 1
     5    2    3 1
     6    2   28 1
     7    2   29 1
     8    3    7 1
     9    3    4 1
    10    4    5 2
    11    4   19 1
    12    5    6 1
    13    6    7 2
    14    7    8 1
    15    8    9 1
    16    9   10 1
    17    9   30 1
    18    9   31 1
    19   10   11 2
    20   10   12 1
    21   12   17 ar
    22   12   13 ar
    23   13   14 ar
    24   13   32 1
    25   14   15 ar
    26   14   33 1
    27   15   16 ar
    28   15   18 1
    29   16   17 ar
    30   16   34 1
    31   17   35 1
    32   19   24 ar
    33   19   20 ar
    34   20   21 ar
    35   20   36 1
    36   21   22 ar
    37   21   37 1
    38   22   23 ar
    39   22   38 1
    40   23   24 ar
    41   24   39 1
@<TRIPOS>MOLECULE
ZINC02339893
   30    32     0     0     0
SMALL
USER_CHARGES

@<TRIPOS>ATOM
      1 C1          0.0008    1.3959    0.2213 C.ar      1 <0>        -0.0978
      2 C2          0.2386    0.3088    1.0450 C.ar      1 <0>        -0.1287
      3 C3          1.4351   -0.3709    0.9675 C.ar      1 <0>        -0.0438
      4 C4          2.4119    0.0412    0.0520 C.ar      1 <0>        -0.1058
      5 C5          2.1627    1.1422   -0.7774 C.ar      1 <0>        -0.0850
      6 C6          0.9606    1.8101   -0.6865 C.ar      1 <0>        -0.1353
      7 C7          3.6888   -0.6759   -0.0373 C.2       1 <0>         0.0734
      8 C8          3.7152   -2.0376    0.0581 C.2       1 <0>        -0.2815
      9 C9          2.5494   -2.9406    0.0734 C.2       1 <0>         0.4451
     10 O1          1.3831   -2.6073    0.0029 O.2       1 <0>        -0.4287
     11 C10         3.0584   -4.3313    0.1899 C.ar      1 <0>        -0.1541
     12 C11         2.3904   -5.5506    0.2475 C.ar      1 <0>        -0.0740
     13 C12         3.1029   -6.7303    0.3586 C.ar      1 <0>        -0.0660
     14 C13         4.4974   -6.7053    0.4132 C.ar      1 <0>        -0.1095
     15 C14         5.1772   -5.4859    0.3556 C.ar      1 <0>        -0.0232
     16 C15         4.4631   -4.2988    0.2444 C.ar      1 <0>        -0.1595
     17 C16         4.9160   -2.8893    0.1594 C.2       1 <0>         0.4486
     18 O2          6.0687   -2.5045    0.1736 O.2       1 <0>        -0.4329
     19 C17         5.2547   -7.9681    0.5324 C.2       1 <0>         0.5195
     20 O3          4.6599   -9.0352    0.5832 O.co2     1 <0>        -0.6770
     21 O4          6.4762   -7.9463    0.5802 O.co2     1 <0>        -0.6753
     22 H1         -0.9408    1.9212    0.2842 H         1 <0>         0.1228
     23 H2         -0.5155   -0.0074    1.7505 H         1 <0>         0.1253
     24 H3          1.6191   -1.2185    1.6110 H         1 <0>         0.1244
     25 H4          2.9104    1.4668   -1.4859 H         1 <0>         0.1273
     26 H5          0.7667    2.6592   -1.3252 H         1 <0>         0.1249
     27 H6          4.6079   -0.1266   -0.1786 H         1 <0>         0.1496
     28 H7          1.3115   -5.5755    0.2056 H         1 <0>         0.1311
     29 H8          2.5791   -7.6737    0.4036 H         1 <0>         0.1437
     30 H9          6.2561   -5.4659    0.3982 H         1 <0>         0.1425
@<TRIPOS>BOND
     1    1    6 ar
     2    1    2 ar
     3    1   22 1
     4    2    3 ar
     5    2   23 1
     6    3    4 ar
     7    3   24 1
     8    4    5 ar
     9    4    7 1
    10    5    6 ar
    11    5   25 1
    12    6   26 1
    13    7    8 2
    14    7   27 1
    15    8   17 1
    16    8    9 1
    17    9   10 2
    18    9   11 1
    19   11   16 ar
    20   11   12 ar
    21   12   13 ar
    22   12   28 1
    23   13   14 ar
    24   13   29 1
    25   14   15 ar
    26   14   19 1
    27   15   16 ar
    28   15   30 1
    29   16   17 1
    30   17   18 2
    31   19   20 2
    32   19   21 1
@<TRIPOS>MOLECULE
ZINC13810714
   33    35     0     0     0
SMALL
USER_CHARGES

@<TRIPOS>ATOM
      1 C1         -0.0167    1.3791    0.0096 C.ar      1 <0>        -0.0859
      2 C2          1.1664    2.0886    0.0021 C.ar      1 <0>        -0.0969
      3 C3          2.3859    1.4075   -0.0131 C.ar      1 <0>         0.1071
      4 C4          2.3984    0.0106   -0.0207 C.ar      1 <0>        -0.1628
      5 C5          1.2073   -0.6867   -0.0131 C.ar      1 <0>        -0.0139
      6 C6          0.0021   -0.0041    0.0020 C.ar      1 <0>        -0.1160
      7 Cl1         1.2197   -2.4226   -0.0230 Cl        1 <0>        -0.0603
      8 N1          3.5626    2.1053   -0.0211 N.2       1 <0>        -0.4560
      9 C7          4.5465    1.7440    0.7728 C.2       1 <0>         0.3775
     10 N2          4.5933    0.6993    1.6734 N.am      1 <0>        -0.6916
     11 C8          5.6831    0.4910    2.3916 C.2       1 <0>         0.5523
     12 C9          6.7927    1.3676    2.2088 C.2       1 <0>        -0.2469
     13 C10         8.0228    1.3585    2.8288 C.2       1 <0>         0.0782
     14 C11         8.9838    2.3260    2.4957 C.2       1 <0>        -0.1664
     15 C12        10.1991    2.3170    3.1083 C.2       1 <0>         0.0048
     16 C13        11.1676    3.2920    2.7726 C.2       1 <0>        -0.0230
     17 C14        12.4358    3.3971    3.3080 C.2       1 <0>        -0.1521
     18 C15        13.0415    4.5004    2.6863 C.2       1 <0>        -0.2205
     19 C16        12.1427    5.0130    1.8176 C.2       1 <0>        -0.0067
     20 O1         11.0190    4.2818    1.8678 O.3       1 <0>        -0.1649
     21 S1          6.1659    2.4757    0.9548 S.3       1 <0>         0.0933
     22 O2          5.7380   -0.4271    3.1904 O.2       1 <0>        -0.4926
     23 H1         -0.9599    1.9049    0.0260 H         1 <0>         0.1428
     24 H2          1.1498    3.1685    0.0077 H         1 <0>         0.1408
     25 H3          3.3377   -0.5223   -0.0328 H         1 <0>         0.1320
     26 H4         -0.9272   -0.5543    0.0083 H         1 <0>         0.1395
     27 H5          8.2478    0.6070    3.5711 H         1 <0>         0.1568
     28 H6          8.7588    3.0774    1.7534 H         1 <0>         0.1306
     29 H7         10.4242    1.5655    3.8506 H         1 <0>         0.1581
     30 H8         12.8755    2.7566    4.0582 H         1 <0>         0.1587
     31 H9         14.0397    4.8703    2.8684 H         1 <0>         0.1564
     32 H10        12.3041    5.8714    1.1823 H         1 <0>         0.2096
     33 H11         3.8249    0.1170    1.7796 H         1 <0>         0.4178
@<TRIPOS>BOND
     1    1    6 ar
     2    1    2 ar
     3    1   23 1
     4    2    3 ar
     5    2   24 1
     6    3    4 ar
     7    3    8 1
     8    4    5 ar
     9    4   25 1
    10    5    6 ar
    11    5    7 1
    12    6   26 1
    13    8    9 2
    14    9   21 1
    15    9   10 1
    16   10   11 am
    17   10   33 1
    18   11   12 1
    19   11   22 2
    20   12   13 2
    21   12   21 1
    22   13   14 1
    23   13   27 1
    24   14   15 2
    25   14   28 1
    26   15   16 1
    27   15   29 1
    28   16   20 1
    29   16   17 2
    30   17   18 1
    31   17   30 1
    32   18   19 2
    33   18   31 1
    34   19   20 1
    35   19   32 1
@<TRIPOS>MOLECULE
ZINC04213833
   61    64     0     0     0
SMALL
USER_CHARGES

@<TRIPOS>ATOM
      1 C1         -0.0390    1.5017   -0.0190 C.3       1 <0>        -0.1185
      2 C2         -0.0056   -0.0049   -0.0121 C.ar      1 <0>         0.0085
      3 C3          0.0606   -0.7148   -1.2110 C.ar      1 <0>        -0.1144
      4 C4          0.0900   -2.1179   -1.1529 C.ar      1 <0>         0.2740
      5 C5          0.0521   -2.7470    0.1012 C.ar      1 <0>         0.0969
      6 N1         -0.0105   -2.0327    1.2125 N.ar      1 <0>        -0.3689
      7 C6         -0.0345   -0.7054    1.1929 C.ar      1 <0>         0.0060
      8 C7         -0.0989    0.0404    2.4671 C.2       1 <0>         0.5335
      9 O1         -0.0220    1.2527    2.4658 O.2       1 <0>        -0.5075
     10 O2         -0.2428   -0.6242    3.6301 O.3       1 <0>        -0.3310
     11 C8         -0.2976    0.1604    4.8232 C.3       1 <0>         0.0332
     12 C9          0.0819   -4.2261    0.1809 C.ar      1 <0>         0.1480
     13 C10         0.6167   -4.8442    1.3168 C.ar      1 <0>        -0.1068
     14 C11         0.6443   -6.2219    1.3950 C.ar      1 <0>        -0.0550
     15 C12         0.1295   -6.9592    0.3196 C.ar      1 <0>        -0.0395
     16 C13        -0.3897   -6.2645   -0.7924 C.ar      1 <0>         0.0449
     17 N2         -0.4032   -4.9432   -0.8221 N.ar      1 <0>        -0.4421
     18 C14        -0.9227   -7.0608   -1.9268 C.2       1 <0>         0.4198
     19 O3         -1.7289   -6.6082   -2.7139 O.2       1 <0>        -0.4235
     20 C15        -0.3968   -8.4641   -2.0352 C.2       1 <0>         0.2305
     21 N3         -0.1959   -9.0365   -3.1904 N.2       1 <0>        -0.6538
     22 C16        -0.1194   -9.1593   -0.7628 C.2       1 <0>        -0.1456
     23 C17         0.1309   -8.4265    0.3515 C.2       1 <0>         0.2164
     24 O4          0.3879   -9.0648    1.5220 O.3       1 <0>        -0.6947
     25 O5         -0.1147  -10.5186   -0.7081 O.3       1 <0>        -0.3174
     26 C18         0.1624  -11.1159    0.5602 C.3       1 <0>         0.0720
     27 N4          0.1552   -2.8697   -2.3160 N.pl3     1 <0>        -0.8219
     28 C19         0.0982   -0.0070   -2.5125 C.ar      1 <0>        -0.0890
     29 C20         1.3215    0.3496   -3.0791 C.ar      1 <0>        -0.0493
     30 C21         1.3558    1.0088   -4.2901 C.ar      1 <0>        -0.2058
     31 C22         0.1748    1.3197   -4.9502 C.ar      1 <0>         0.1305
     32 C23        -1.0499    0.9685   -4.3937 C.ar      1 <0>         0.0352
     33 C24        -1.0923    0.2999   -3.1781 C.ar      1 <0>         0.1515
     34 O6         -2.2877   -0.0504   -2.6338 O.3       1 <0>        -0.4767
     35 O7         -2.2060    1.2755   -5.0429 O.3       1 <0>        -0.3188
     36 C25        -2.7127    0.3039   -5.9601 C.3       1 <0>         0.0368
     37 O8          0.2159    1.9696   -6.1437 O.3       1 <0>        -0.3039
     38 C26         1.5074    2.3010   -6.6578 C.3       1 <0>         0.0234
     39 H1          0.9676    1.8882    0.1407 H         1 <0>         0.0827
     40 H2         -0.4146    1.8524   -0.9803 H         1 <0>         0.0599
     41 H3         -0.6942    1.8543    0.7776 H         1 <0>         0.0984
     42 H4         -0.4147   -0.4966    5.6850 H         1 <0>         0.1019
     43 H5          0.6249    0.7321    4.9248 H         1 <0>         0.0592
     44 H6         -1.1448    0.8441    4.7698 H         1 <0>         0.0588
     45 H7          1.0062   -4.2464    2.1276 H         1 <0>         0.1465
     46 H8          1.0523   -6.7193    2.2625 H         1 <0>         0.1542
     47 H9         -0.3871   -8.5546   -4.0102 H         1 <0>         0.3254
     48 H10         0.1353  -12.2013    0.4644 H         1 <0>         0.0400
     49 H11         1.1506  -10.8056    0.8998 H         1 <0>         0.0513
     50 H12        -0.5874  -10.7962    1.2839 H         1 <0>         0.0510
     51 H13         0.2476   -2.4278   -3.1746 H         1 <0>         0.3962
     52 H14         0.1083   -3.8375   -2.2713 H         1 <0>         0.4206
     53 H15         2.2427    0.1097   -2.5690 H         1 <0>         0.1362
     54 H16         2.3047    1.2843   -4.7261 H         1 <0>         0.1389
     55 H17        -2.6691    0.6239   -2.0551 H         1 <0>         0.3956
     56 H18        -3.6357    0.6730   -6.4073 H         1 <0>         0.0932
     57 H19        -1.9760    0.1244   -6.7431 H         1 <0>         0.0445
     58 H20        -2.9131   -0.6269   -5.4294 H         1 <0>         0.0503
     59 H21         2.0234    2.9518   -5.9520 H         1 <0>         0.0584
     60 H22         2.0865    1.3887   -6.8010 H         1 <0>         0.0576
     61 H23         1.3974    2.8152   -7.6126 H         1 <0>         0.1022
@<TRIPOS>BOND
     1    1    2 1
     2    1   39 1
     3    1   40 1
     4    1   41 1
     5    2    7 ar
     6    2    3 ar
     7    3    4 ar
     8    3   28 1
     9    4    5 ar
    10    4   27 1
    11    5    6 ar
    12    5   12 1
    13    6    7 ar
    14    7    8 1
    15    8    9 2
    16    8   10 1
    17   10   11 1
    18   11   42 1
    19   11   43 1
    20   11   44 1
    21   12   17 ar
    22   12   13 ar
    23   13   14 ar
    24   13   45 1
    25   14   15 ar
    26   14   46 1
    27   15   23 1
    28   15   16 ar
    29   16   17 ar
    30   16   18 1
    31   18   19 2
    32   18   20 1
    33   20   21 2
    34   20   22 1
    35   21   47 1
    36   22   23 2
    37   22   25 1
    38   23   24 1
    39   25   26 1
    40   26   48 1
    41   26   49 1
    42   26   50 1
    43   27   51 1
    44   27   52 1
    45   28   33 ar
    46   28   29 ar
    47   29   30 ar
    48   29   53 1
    49   30   31 ar
    50   30   54 1
    51   31   32 ar
    52   31   37 1
    53   32   33 ar
    54   32   35 1
    55   33   34 1
    56   34   55 1
    57   35   36 1
    58   36   56 1
    59   36   57 1
    60   36   58 1
    61   37   38 1
    62   38   59 1
    63   38   60 1
    64   38   61 1
@<TRIPOS>MOLECULE
ZINC05729579
   38    40     0     0     0
SMALL
USER_CHARGES

@<TRIPOS>ATOM
      1 C1          0.2363    1.9772    0.8228 C.ar      1 <0>        -0.1187
      2 C2          1.4967    2.5432    0.7799 C.ar      1 <0>        -0.1076
      3 C3          2.6034    1.7490    0.5446 C.ar      1 <0>        -0.1191
      4 C4          2.4498    0.3887    0.3525 C.ar      1 <0>        -0.0865
      5 C5          1.1894   -0.1774    0.3963 C.ar      1 <0>        -0.1154
      6 C6          0.0826    0.6170    0.6302 C.ar      1 <0>        -0.1219
      7 C7          3.6561   -0.4769    0.0950 C.3       1 <0>        -0.0580
      8 C8          4.2116   -0.9868    1.4263 C.3       1 <0>        -0.0146
      9 H1          4.4158   -0.1408    2.0826 H         1 <0>         0.0602
     10 C9          5.4872   -1.7501    1.1790 C.2       1 <0>         0.5142
     11 O1          6.5581   -1.1673    1.1890 O.co2     1 <0>        -0.6811
     12 O2          5.4484   -2.9505    0.9691 O.co2     1 <0>        -0.6584
     13 N1          3.2289   -1.8699    2.0593 N.2       1 <0>        -0.3374
     14 C10         2.6736   -1.5248    3.1710 C.2       1 <0>         0.0523
     15 C11         2.8723   -0.1449    3.7742 C.3       1 <0>        -0.0526
     16 C12         1.5027    0.4123    4.0952 C.2       1 <0>         0.4100
     17 O3          1.2470    1.5749    3.8655 O.2       1 <0>        -0.4048
     18 C13         0.4817   -0.4693    4.6887 C.ar      1 <0>        -0.1139
     19 C14        -0.6234    0.0793    5.3381 C.ar      1 <0>        -0.0690
     20 C15        -1.5848   -0.7519    5.8830 C.ar      1 <0>        -0.1034
     21 C16        -1.4621   -2.1274    5.7894 C.ar      1 <0>        -0.0985
     22 C17        -0.3708   -2.6918    5.1533 C.ar      1 <0>        -0.0702
     23 C18         0.6094   -1.8712    4.6049 C.ar      1 <0>        -0.1051
     24 C19         1.7916   -2.4579    3.9378 C.2       1 <0>         0.4500
     25 O4          2.0351   -3.6453    4.0130 O.2       1 <0>        -0.3995
     26 Cl1         3.8510   -0.2714    5.2832 Cl        1 <0>        -0.1203
     27 H2         -0.6278    2.5970    1.0111 H         1 <0>         0.1154
     28 H3          1.6168    3.6060    0.9300 H         1 <0>         0.1180
     29 H4          3.5881    2.1914    0.5104 H         1 <0>         0.1219
     30 H5          1.0693   -1.2401    0.2459 H         1 <0>         0.1210
     31 H6         -0.9021    0.1747    0.6640 H         1 <0>         0.1162
     32 H7          3.3690   -1.3245   -0.5274 H         1 <0>         0.0860
     33 H8          4.4201    0.1078   -0.4174 H         1 <0>         0.0885
     34 H9          3.3771    0.5032    3.0578 H         1 <0>         0.1450
     35 H10        -0.7282    1.1514    5.4156 H         1 <0>         0.1406
     36 H11        -2.4389   -0.3239    6.3866 H         1 <0>         0.1355
     37 H12        -2.2230   -2.7642    6.2159 H         1 <0>         0.1368
     38 H13        -0.2801   -3.7657    5.0830 H         1 <0>         0.1445
@<TRIPOS>BOND
     1    1    6 ar
     2    1    2 ar
     3    1   27 1
     4    2    3 ar
     5    2   28 1
     6    3    4 ar
     7    3   29 1
     8    4    5 ar
     9    4    7 1
    10    5    6 ar
    11    5   30 1
    12    6   31 1
    13    7    8 1
    14    7   32 1
    15    7   33 1
    16    8    9 1
    17    8   10 1
    18    8   13 1
    19   10   11 2
    20   10   12 1
    21   13   14 2
    22   14   24 1
    23   14   15 1
    24   15   16 1
    25   15   26 1
    26   15   34 1
    27   16   17 2
    28   16   18 1
    29   18   23 ar
    30   18   19 ar
    31   19   20 ar
    32   19   35 1
    33   20   21 ar
    34   20   36 1
    35   21   22 ar
    36   21   37 1
    37   22   23 ar
    38   22   38 1
    39   23   24 1
    40   24   25 2
@<TRIPOS>MOLECULE
ZINC36215827
   38    40     0     0     0
SMALL
USER_CHARGES

@<TRIPOS>ATOM
      1 C1          0.6130    1.8260   -0.8185 C.ar      1 <0>        -0.1290
      2 C2          1.8585    2.3875   -0.6075 C.ar      1 <0>        -0.1187
      3 C3          2.9541    1.5748   -0.3839 C.ar      1 <0>        -0.1012
      4 C4          2.8042    0.2006   -0.3708 C.ar      1 <0>        -0.0795
      5 C5          1.5586   -0.3608   -0.5809 C.ar      1 <0>        -0.1142
      6 C6          0.4632    0.4519   -0.8059 C.ar      1 <0>        -0.1208
      7 C7          3.9988   -0.6854   -0.1280 C.3       1 <0>        -0.0490
      8 C8          4.1456   -0.9436    1.3729 C.3       1 <0>        -0.0181
      9 H1          3.2142   -1.3530    1.7640 H         1 <0>         0.0632
     10 C9          5.2636   -1.9266    1.6065 C.2       1 <0>         0.5074
     11 O1          6.3039   -1.5554    2.1229 O.co2     1 <0>        -0.6662
     12 O2          5.1280   -3.0932    1.2792 O.co2     1 <0>        -0.6782
     13 N1          4.4511    0.3151    2.0574 N.2       1 <0>        -0.3368
     14 C10         3.7325    0.6957    3.0584 C.2       1 <0>         0.0556
     15 C11         2.6635   -0.1964    3.6655 C.3       1 <0>        -0.0523
     16 H2          2.7406   -1.2015    3.2508 H         1 <0>         0.1465
     17 C12         2.9002   -0.2373    5.1594 C.2       1 <0>         0.4090
     18 O3          2.7926   -1.2812    5.7666 O.2       1 <0>        -0.4113
     19 C13         3.2631    1.0014    5.8705 C.ar      1 <0>        -0.1146
     20 C14         3.1116    1.0830    7.2542 C.ar      1 <0>        -0.0687
     21 C15         3.4646    2.2432    7.9184 C.ar      1 <0>        -0.1021
     22 C16         3.9697    3.3278    7.2224 C.ar      1 <0>        -0.0988
     23 C17         4.1233    3.2689    5.8487 C.ar      1 <0>        -0.0692
     24 C18         3.7674    2.1122    5.1630 C.ar      1 <0>        -0.1061
     25 C19         3.9076    2.0387    3.6928 C.2       1 <0>         0.4577
     26 O4          4.1518    3.0274    3.0311 O.2       1 <0>        -0.4071
     27 Cl1         1.0297    0.4841    3.3211 Cl        1 <0>        -0.1178
     28 H3         -0.2438    2.4611   -0.9888 H         1 <0>         0.1136
     29 H4          1.9756    3.4611   -0.6178 H         1 <0>         0.1162
     30 H5          3.9273    2.0134   -0.2198 H         1 <0>         0.1232
     31 H6          1.4415   -1.4344   -0.5710 H         1 <0>         0.1196
     32 H7         -0.5099    0.0132   -0.9704 H         1 <0>         0.1154
     33 H8          3.8598   -1.6333   -0.6478 H         1 <0>         0.0908
     34 H9          4.8973   -0.1944   -0.5017 H         1 <0>         0.0813
     35 H10         2.7190    0.2417    7.8060 H         1 <0>         0.1419
     36 H11         3.3448    2.3038    8.9900 H         1 <0>         0.1364
     37 H12         4.2452    4.2260    7.7550 H         1 <0>         0.1372
     38 H13         4.5180    4.1181    5.3106 H         1 <0>         0.1446
@<TRIPOS>BOND
     1    1    6 ar
     2    1    2 ar
     3    1   28 1
     4    2    3 ar
     5    2   29 1
     6    3    4 ar
     7    3   30 1
     8    4    5 ar
     9    4    7 1
    10    5    6 ar
    11    5   31 1
    12    6   32 1
    13    7    8 1
    14    7   33 1
    15    7   34 1
    16    8    9 1
    17    8   10 1
    18    8   13 1
    19   10   11 2
    20   10   12 1
    21   13   14 2
    22   14   25 1
    23   14   15 1
    24   15   16 1
    25   15   17 1
    26   15   27 1
    27   17   18 2
    28   17   19 1
    29   19   24 ar
    30   19   20 ar
    31   20   21 ar
    32   20   35 1
    33   21   22 ar
    34   21   36 1
    35   22   23 ar
    36   22   37 1
    37   23   24 ar
    38   23   38 1
    39   24   25 1
    40   25   26 2
@<TRIPOS>MOLECULE
ZINC18119523
   32    34     0     0     0
SMALL
USER_CHARGES

@<TRIPOS>ATOM
      1 C1          1.1568   -0.4973    0.8433 C.ar      1 <0>        -0.0898
      2 C2          2.3465    0.1973    0.7396 C.ar      1 <0>        -0.1443
      3 C3          2.3801    1.4214    0.0847 C.ar      1 <0>         0.1835
      4 C4          1.2153    1.9444   -0.4648 C.ar      1 <0>        -0.0530
      5 C5          0.0277    1.2441   -0.3575 C.ar      1 <0>        -0.0144
      6 C6         -0.0007    0.0243    0.2962 C.ar      1 <0>        -0.1527
      7 Cl1        -1.4283    1.8951   -1.0430 Cl        1 <0>        -0.0739
      8 Cl2         1.2514    3.4745   -1.2841 Cl        1 <0>        -0.0591
      9 N1          3.5830    2.1266   -0.0212 N.2       1 <0>        -0.5547
     10 C7          4.7794    1.4600    0.0674 C.2       1 <0>         0.4502
     11 N2          4.9948    0.1544    0.0699 N.2       1 <0>        -0.7109
     12 C8          6.2021   -0.3606    0.1611 C.2       1 <0>         0.5267
     13 O1          6.3881   -1.5683    0.1620 O.2       1 <0>        -0.5311
     14 C9          7.3200    0.5979    0.2617 C.2       1 <0>        -0.1679
     15 C10         8.6744    0.3663    0.3679 C.2       1 <0>        -0.0433
     16 C11         9.5661    1.4459    0.4518 C.2       1 <0>        -0.0851
     17 C12        10.9045    1.2170    0.5567 C.2       1 <0>        -0.0956
     18 C13        11.8032    2.3050    0.6412 C.2       1 <0>         0.0261
     19 C14        13.1780    2.2193    0.7451 C.2       1 <0>        -0.1984
     20 C15        13.6568    3.5369    0.8003 C.2       1 <0>        -0.2137
     21 C16        12.5838    4.3559    0.7298 C.2       1 <0>        -0.0400
     22 O2         11.4719    3.6131    0.6289 O.3       1 <0>        -0.1672
     23 S1          6.4239    2.1444    0.1993 S.3       1 <0>        -0.1100
     24 H1          1.1319   -1.4514    1.3488 H         1 <0>         0.1254
     25 H2          3.2498   -0.2113    1.1678 H         1 <0>         0.1512
     26 H3         -0.9291   -0.5214    0.3787 H         1 <0>         0.1281
     27 H4          9.0492   -0.6464    0.3865 H         1 <0>         0.1427
     28 H5          9.1913    2.4586    0.4331 H         1 <0>         0.1226
     29 H6         11.2794    0.2043    0.5753 H         1 <0>         0.1484
     30 H7         13.7683    1.3155    0.7779 H         1 <0>         0.1507
     31 H8         14.6900    3.8402    0.8839 H         1 <0>         0.1480
     32 H9         12.6170    5.4352    0.7476 H         1 <0>         0.2015
@<TRIPOS>BOND
     1    1    6 ar
     2    1    2 ar
     3    1   24 1
     4    2    3 ar
     5    2   25 1
     6    3    4 ar
     7    3    9 1
     8    4    5 ar
     9    4    8 1
    10    5    6 ar
    11    5    7 1
    12    6   26 1
    13    9   10 1
    14   10   23 1
    15   10   11 2
    16   11   12 1
    17   12   13 2
    18   12   14 1
    19   14   15 2
    20   14   23 1
    21   15   16 1
    22   15   27 1
    23   16   17 2
    24   16   28 1
    25   17   18 1
    26   17   29 1
    27   18   22 1
    28   18   19 2
    29   19   20 1
    30   19   30 1
    31   20   21 2
    32   20   31 1
    33   21   22 1
    34   21   32 1
@<TRIPOS>MOLECULE
ZINC00001677
   21    22     0     0     0
SMALL
USER_CHARGES

@<TRIPOS>ATOM
      1 C1         -0.0184    1.5028    0.0103 C.3       1 <0>        -0.1222
      2 C2          0.0021   -0.0041    0.0020 C.2       1 <0>        -0.1070
      3 C3          0.0054   -0.6583   -1.1671 C.2       1 <0>        -0.1536
      4 C4          0.0253   -2.1327   -1.2104 C.2       1 <0>         0.4162
      5 O1          0.0284   -2.7113   -2.2787 O.2       1 <0>        -0.4241
      6 C5          0.0418   -2.9039    0.0513 C.ar      1 <0>        -0.1258
      7 C6          0.0612   -4.2934    0.0381 C.ar      1 <0>        -0.0675
      8 C7          0.0768   -4.9930    1.2348 C.ar      1 <0>        -0.0974
      9 C8          0.0733   -4.3183    2.4405 C.ar      1 <0>        -0.0988
     10 C9          0.0541   -2.9325    2.4700 C.ar      1 <0>        -0.0664
     11 C10         0.0382   -2.2171    1.2786 C.ar      1 <0>        -0.1268
     12 C11         0.0242   -0.7383    1.2813 C.2       1 <0>         0.4201
     13 O2          0.0258   -0.1305    2.3332 O.2       1 <0>        -0.4186
     14 H1          1.0042    1.8801    0.0026 H         1 <0>         0.0864
     15 H2         -0.5455    1.8639   -0.8728 H         1 <0>         0.0809
     16 H3         -0.5286    1.8543    0.9071 H         1 <0>         0.0826
     17 H4         -0.0070   -0.0985   -2.0906 H         1 <0>         0.1551
     18 H5          0.0637   -4.8263   -0.9013 H         1 <0>         0.1442
     19 H6          0.0915   -6.0729    1.2246 H         1 <0>         0.1394
     20 H7          0.0852   -4.8744    3.3663 H         1 <0>         0.1395
     21 H8          0.0510   -2.4106    3.4155 H         1 <0>         0.1439
@<TRIPOS>BOND
     1    1    2 1
     2    1   14 1
     3    1   15 1
     4    1   16 1
     5    2   12 1
     6    2    3 2
     7    3    4 1
     8    3   17 1
     9    4    5 2
    10    4    6 1
    11    6   11 ar
    12    6    7 ar
    13    7    8 ar
    14    7   18 1
    15    8    9 ar
    16    8   19 1
    17    9   10 ar
    18    9   20 1
    19   10   11 ar
    20   10   21 1
    21   11   12 1
    22   12   13 2
