@<TRIPOS>MOLECULE
ZINC01651126
   39    40     0     0     0
SMALL
USER_CHARGES

@<TRIPOS>ATOM
      1 C1         -0.0169    1.3967    0.0097 C.ar      1 <0>        -0.0727
      2 C2          1.1668    2.0983    0.0022 C.ar      1 <0>        -0.1497
      3 C3          2.3804    1.4194   -0.0130 C.ar      1 <0>         0.1232
      4 C4          2.4052    0.0289   -0.0208 C.ar      1 <0>        -0.1500
      5 C5          1.2275   -0.6828   -0.0138 C.ar      1 <0>        -0.0782
      6 C6          0.0021   -0.0041    0.0020 C.ar      1 <0>        -0.0971
      7 C7         -1.2574   -0.7579    0.0105 C.2       1 <0>         0.0014
      8 C8         -1.2362   -2.1132    0.0030 C.2       1 <0>        -0.2505
      9 C9         -2.4442   -2.8362    0.0111 C.2       1 <0>         0.3750
     10 C10        -2.4206   -4.3430    0.0028 C.3       1 <0>        -0.2163
     11 C11        -3.8333   -4.8676    0.0140 C.2       1 <0>         0.3750
     12 O1         -4.7687   -4.0929    0.0275 O.2       1 <0>        -0.4263
     13 C12        -4.0688   -6.2556    0.0089 C.2       1 <0>        -0.2505
     14 C13        -5.3395   -6.7275    0.0190 C.2       1 <0>         0.0014
     15 C14        -5.5851   -8.1747    0.0137 C.ar      1 <0>        -0.0971
     16 C15        -4.5080   -9.0704    0.0040 C.ar      1 <0>        -0.0782
     17 C16        -4.7440  -10.4261   -0.0005 C.ar      1 <0>        -0.1500
     18 C17        -6.0488  -10.9074    0.0046 C.ar      1 <0>         0.1233
     19 C18        -7.1217  -10.0227    0.0141 C.ar      1 <0>        -0.1497
     20 C19        -6.8973   -8.6651    0.0241 C.ar      1 <0>        -0.0727
     21 O2         -6.2758  -12.2453   -0.0003 O.3       1 <0>        -0.4984
     22 O3         -3.5055   -2.2455    0.0248 O.2       1 <0>        -0.4264
     23 O4          3.5448    2.1163   -0.0209 O.3       1 <0>        -0.4983
     24 H1         -0.9588    1.9249    0.0260 H         1 <0>         0.1347
     25 H2          1.1533    3.1782    0.0078 H         1 <0>         0.1346
     26 H3          3.3505   -0.4933   -0.0326 H         1 <0>         0.1342
     27 H4          1.2479   -1.7626   -0.0205 H         1 <0>         0.1346
     28 H5         -2.2010   -0.2326    0.0227 H         1 <0>         0.1374
     29 H6         -0.2925   -2.6384   -0.0092 H         1 <0>         0.1331
     30 H7         -1.9100   -4.6934   -0.8942 H         1 <0>         0.1275
     31 H8         -3.2371   -6.9445   -0.0031 H         1 <0>         0.1331
     32 H9         -6.1713   -6.0387    0.0309 H         1 <0>         0.1374
     33 H10        -3.4944   -8.6977   -0.0002 H         1 <0>         0.1346
     34 H11        -3.9145  -11.1176   -0.0082 H         1 <0>         0.1342
     35 H12        -8.1330  -10.4019    0.0180 H         1 <0>         0.1346
     36 H13        -7.7312   -7.9789    0.0357 H         1 <0>         0.1347
     37 H14        -6.3367  -12.6372    0.8816 H         1 <0>         0.3954
     38 H15         3.8909    2.3138    0.8602 H         1 <0>         0.3954
     39 H16        -1.8923   -4.7030    0.8857 H         1 <0>         0.1274
@<TRIPOS>BOND
     1    1    6 ar
     2    1    2 ar
     3    1   24 1
     4    2    3 ar
     5    2   25 1
     6    3    4 ar
     7    3   23 1
     8    4    5 ar
     9    4   26 1
    10    5    6 ar
    11    5   27 1
    12    6    7 1
    13    7    8 2
    14    7   28 1
    15    8    9 1
    16    8   29 1
    17    9   10 1
    18    9   22 2
    19   10   11 1
    20   10   30 1
    21   10   39 1
    22   11   12 2
    23   11   13 1
    24   13   14 2
    25   13   31 1
    26   14   15 1
    27   14   32 1
    28   15   20 ar
    29   15   16 ar
    30   16   17 ar
    31   16   33 1
    32   17   18 ar
    33   17   34 1
    34   18   19 ar
    35   18   21 1
    36   19   20 ar
    37   19   35 1
    38   20   36 1
    39   21   37 1
    40   23   38 1
@<TRIPOS>MOLECULE
ZINC00899824
   47    48     0     0     0
SMALL
USER_CHARGES

@<TRIPOS>ATOM
      1 C1         -0.0173    1.4248    0.0099 C.3       1 <0>         0.0223
      2 O1          0.0021   -0.0041    0.0020 O.3       1 <0>        -0.3062
      3 C2          0.6062   -0.6075   -1.0564 C.ar      1 <0>         0.1006
      4 C3          1.1701    0.1578   -2.0573 C.ar      1 <0>        -0.1693
      5 C4          1.7915   -0.4674   -3.1460 C.ar      1 <0>        -0.0548
      6 C5          1.8369   -1.8658   -3.2124 C.ar      1 <0>        -0.1153
      7 C6          1.2717   -2.6208   -2.2092 C.ar      1 <0>        -0.1104
      8 C7          0.6608   -1.9995   -1.1274 C.ar      1 <0>         0.0921
      9 O2          0.1105   -2.7497   -0.1383 O.3       1 <0>        -0.4848
     10 C8          2.3926    0.3403   -4.2140 C.2       1 <0>        -0.0031
     11 C9          2.9934   -0.2669   -5.2666 C.2       1 <0>        -0.2426
     12 C10         3.5700    0.5078   -6.2910 C.2       1 <0>         0.3746
     13 C11         4.2380   -0.1673   -7.4611 C.3       1 <0>        -0.2163
     14 C12         4.7690    0.8780   -8.4080 C.2       1 <0>         0.3746
     15 O3          4.6195    2.0570   -8.1569 O.2       1 <0>        -0.4254
     16 C13         5.4382    0.4879   -9.5835 C.2       1 <0>        -0.2426
     17 C14         5.9159    1.4282  -10.4353 C.2       1 <0>        -0.0031
     18 C15         6.6137    1.0215  -11.6609 C.ar      1 <0>        -0.0549
     19 C16         6.7822   -0.3375  -11.9554 C.ar      1 <0>        -0.1153
     20 C17         7.4373   -0.7158  -13.1059 C.ar      1 <0>        -0.1104
     21 C18         7.9326    0.2469  -13.9763 C.ar      1 <0>         0.0920
     22 C19         7.7694    1.6023  -13.6901 C.ar      1 <0>         0.1006
     23 C20         7.1082    1.9913  -12.5425 C.ar      1 <0>        -0.1693
     24 O4          8.2569    2.5409  -14.5450 O.3       1 <0>        -0.3062
     25 C21         8.0541    3.9101  -14.1894 C.3       1 <0>         0.0223
     26 O5          8.5781   -0.1327  -15.1090 O.3       1 <0>        -0.4848
     27 O6          3.5292    1.7203   -6.2316 O.2       1 <0>        -0.4254
     28 H1          1.0053    1.8021    0.0021 H         1 <0>         0.0579
     29 H2         -0.5445    1.7859   -0.8732 H         1 <0>         0.0575
     30 H3         -0.5275    1.7763    0.9067 H         1 <0>         0.1046
     31 H4          1.1319    1.2357   -2.0014 H         1 <0>         0.1391
     32 H5          2.3148   -2.3516   -4.0503 H         1 <0>         0.1371
     33 H6          1.3073   -3.6990   -2.2614 H         1 <0>         0.1423
     34 H7         -0.8182   -2.9751   -0.2859 H         1 <0>         0.3908
     35 H8          2.3563    1.4184   -4.1613 H         1 <0>         0.1367
     36 H9          3.0298   -1.3450   -5.3193 H         1 <0>         0.1356
     37 H10         5.0615   -0.7848   -7.1027 H         1 <0>         0.1288
     38 H11         5.5711   -0.5604   -9.8068 H         1 <0>         0.1356
     39 H12         5.7830    2.4765  -10.2120 H         1 <0>         0.1368
     40 H13         6.3989   -1.0882  -11.2802 H         1 <0>         0.1371
     41 H14         7.5667   -1.7639  -13.3320 H         1 <0>         0.1423
     42 H15         6.9767    3.0405  -12.3226 H         1 <0>         0.1391
     43 H16         6.9855    4.1110  -14.1123 H         1 <0>         0.0575
     44 H17         8.5317    4.1110  -13.2305 H         1 <0>         0.0580
     45 H18         8.4902    4.5526  -14.9543 H         1 <0>         0.1045
     46 H19         7.9975   -0.2431  -15.8744 H         1 <0>         0.3910
     47 H20         3.5134   -0.7940   -7.9810 H         1 <0>         0.1286
@<TRIPOS>BOND
     1    1    2 1
     2    1   28 1
     3    1   29 1
     4    1   30 1
     5    2    3 1
     6    3    8 ar
     7    3    4 ar
     8    4    5 ar
     9    4   31 1
    10    5    6 ar
    11    5   10 1
    12    6    7 ar
    13    6   32 1
    14    7    8 ar
    15    7   33 1
    16    8    9 1
    17    9   34 1
    18   10   11 2
    19   10   35 1
    20   11   12 1
    21   11   36 1
    22   12   13 1
    23   12   27 2
    24   13   14 1
    25   13   37 1
    26   13   47 1
    27   14   15 2
    28   14   16 1
    29   16   17 2
    30   16   38 1
    31   17   18 1
    32   17   39 1
    33   18   23 ar
    34   18   19 ar
    35   19   20 ar
    36   19   40 1
    37   20   21 ar
    38   20   41 1
    39   21   22 ar
    40   21   26 1
    41   22   23 ar
    42   22   24 1
    43   23   42 1
    44   24   25 1
    45   25   43 1
    46   25   44 1
    47   25   45 1
    48   26   46 1
@<TRIPOS>MOLECULE
ZINC05115722
   43    44     0     0     0
SMALL
USER_CHARGES

@<TRIPOS>ATOM
      1 C1         -0.0173    1.4248    0.0099 C.3       1 <0>         0.0223
      2 O1          0.0021   -0.0041    0.0020 O.3       1 <0>        -0.3062
      3 C2          0.6062   -0.6075   -1.0564 C.ar      1 <0>         0.1006
      4 C3          1.1701    0.1578   -2.0573 C.ar      1 <0>        -0.1693
      5 C4          1.7915   -0.4674   -3.1460 C.ar      1 <0>        -0.0546
      6 C5          1.8369   -1.8658   -3.2124 C.ar      1 <0>        -0.1154
      7 C6          1.2717   -2.6208   -2.2092 C.ar      1 <0>        -0.1104
      8 C7          0.6608   -1.9995   -1.1274 C.ar      1 <0>         0.0919
      9 O2          0.1105   -2.7497   -0.1383 O.3       1 <0>        -0.4848
     10 C8          2.3926    0.3403   -4.2140 C.2       1 <0>        -0.0035
     11 C9          2.9934   -0.2670   -5.2666 C.2       1 <0>        -0.2423
     12 C10         3.5700    0.5078   -6.2910 C.2       1 <0>         0.3744
     13 C11         4.2379   -0.1673   -7.4611 C.3       1 <0>        -0.2163
     14 C12         4.7689    0.8780   -8.4080 C.2       1 <0>         0.3751
     15 O3          4.6195    2.0570   -8.1569 O.2       1 <0>        -0.4267
     16 C13         5.4383    0.4879   -9.5836 C.2       1 <0>        -0.2508
     17 C14         5.9159    1.4281  -10.4352 C.2       1 <0>         0.0018
     18 C15         6.6137    1.0215  -11.6609 C.ar      1 <0>        -0.0973
     19 C16         6.7824   -0.3376  -11.9558 C.ar      1 <0>        -0.0781
     20 C17         7.4370   -0.7132  -13.1065 C.ar      1 <0>        -0.1499
     21 C18         7.9310    0.2536  -13.9756 C.ar      1 <0>         0.1234
     22 C19         7.7668    1.6041  -13.6876 C.ar      1 <0>        -0.1498
     23 C20         7.1084    1.9910  -12.5429 C.ar      1 <0>        -0.0727
     24 O4          8.5762   -0.1224  -15.1088 O.3       1 <0>        -0.4984
     25 O5          3.5291    1.7203   -6.2316 O.2       1 <0>        -0.4250
     26 H1          1.0053    1.8021    0.0021 H         1 <0>         0.0580
     27 H2         -0.5445    1.7859   -0.8732 H         1 <0>         0.0575
     28 H3         -0.5275    1.7763    0.9067 H         1 <0>         0.1046
     29 H4          1.1319    1.2357   -2.0014 H         1 <0>         0.1391
     30 H5          2.3148   -2.3516   -4.0503 H         1 <0>         0.1370
     31 H6          1.3073   -3.6990   -2.2614 H         1 <0>         0.1423
     32 H7         -0.8182   -2.9751   -0.2859 H         1 <0>         0.3908
     33 H8          2.3563    1.4184   -4.1612 H         1 <0>         0.1368
     34 H9          3.0298   -1.3450   -5.3193 H         1 <0>         0.1354
     35 H10         5.0615   -0.7848   -7.1027 H         1 <0>         0.1281
     36 H11         5.5712   -0.5604   -9.8068 H         1 <0>         0.1333
     37 H12         5.7830    2.4764  -10.2120 H         1 <0>         0.1373
     38 H13         6.3998   -1.0892  -11.2812 H         1 <0>         0.1347
     39 H14         7.5676   -1.7606  -13.3349 H         1 <0>         0.1343
     40 H15         8.1531    2.3507  -14.3657 H         1 <0>         0.1346
     41 H16         6.9774    3.0401  -12.3224 H         1 <0>         0.1346
     42 H17         7.9954   -0.2318  -15.8742 H         1 <0>         0.3955
     43 H18         3.5134   -0.7940   -7.9810 H         1 <0>         0.1280
@<TRIPOS>BOND
     1    1    2 1
     2    1   26 1
     3    1   27 1
     4    1   28 1
     5    2    3 1
     6    3    8 ar
     7    3    4 ar
     8    4    5 ar
     9    4   29 1
    10    5    6 ar
    11    5   10 1
    12    6    7 ar
    13    6   30 1
    14    7    8 ar
    15    7   31 1
    16    8    9 1
    17    9   32 1
    18   10   11 2
    19   10   33 1
    20   11   12 1
    21   11   34 1
    22   12   13 1
    23   12   25 2
    24   13   14 1
    25   13   35 1
    26   13   43 1
    27   14   15 2
    28   14   16 1
    29   16   17 2
    30   16   36 1
    31   17   18 1
    32   17   37 1
    33   18   23 ar
    34   18   19 ar
    35   19   20 ar
    36   19   38 1
    37   20   21 ar
    38   20   39 1
    39   21   22 ar
    40   21   24 1
    41   22   23 ar
    42   22   40 1
    43   23   41 1
    44   24   42 1
@<TRIPOS>MOLECULE
ZINC01567332
   38    41     0     0     0
SMALL
USER_CHARGES

@<TRIPOS>ATOM
      1 C1         -0.0184    1.5028    0.0103 C.3       1 <0>        -0.1161
      2 C2          0.0021   -0.0041    0.0020 C.2       1 <0>        -0.0547
      3 C3          0.0059   -0.7028   -1.2175 C.2       1 <0>        -0.1276
      4 C4          0.0242   -2.0521   -1.2305 C.2       1 <0>         0.0618
      5 N1          0.0392   -2.7557   -0.0623 N.pl3     1 <0>        -0.3905
      6 C5          0.0364   -2.1008    1.1449 C.2       1 <0>         0.1992
      7 C6          0.0226   -0.6930    1.1747 C.2       1 <0>        -0.0821
      8 N2          0.0533   -3.0310    2.0856 N.2       1 <0>        -0.2860
      9 N3          0.0661   -4.1953    1.5377 N.2       1 <0>        -0.2346
     10 C7          0.0583   -4.0835    0.2345 C.2       1 <0>         0.1390
     11 C8          0.0678   -5.2181   -0.7573 C.3       1 <0>        -0.0220
     12 C9          1.5133   -5.5832   -1.1007 C.3       1 <0>        -0.0219
     13 C10         1.5228   -6.7178   -2.0925 C.2       1 <0>         0.1386
     14 N4          1.5354   -7.9943   -1.8072 N.2       1 <0>        -0.2344
     15 N5          1.5402   -8.6930   -2.8877 N.2       1 <0>        -0.2861
     16 C11         1.5307   -7.8854   -3.9356 C.2       1 <0>         0.1993
     17 N6          1.5139   -6.6015   -3.4481 N.pl3     1 <0>        -0.3902
     18 C12         1.4961   -5.5381   -4.3018 C.2       1 <0>         0.0617
     19 C13         1.4916   -5.7317   -5.6374 C.2       1 <0>        -0.1274
     20 C14         1.5049   -7.0336   -6.1666 C.2       1 <0>        -0.0544
     21 C15         1.5304   -8.1033   -5.3268 C.2       1 <0>        -0.0826
     22 C16         1.4993   -7.2436   -7.6589 C.3       1 <0>        -0.1162
     23 H1          1.0042    1.8801    0.0026 H         1 <0>         0.0815
     24 H2         -0.5455    1.8639   -0.8728 H         1 <0>         0.0756
     25 H3         -0.5286    1.8543    0.9071 H         1 <0>         0.0766
     26 H4         -0.0062   -0.1568   -2.1492 H         1 <0>         0.1575
     27 H5          0.0266   -2.5789   -2.1733 H         1 <0>         0.1667
     28 H6          0.0243   -0.1665    2.1176 H         1 <0>         0.1585
     29 H7         -0.4324   -6.0840   -0.3235 H         1 <0>         0.1152
     30 H8         -0.4551   -4.9128   -1.6636 H         1 <0>         0.0821
     31 H9          2.0135   -4.7173   -1.5345 H         1 <0>         0.0821
     32 H10         2.0362   -5.8884   -0.1943 H         1 <0>         0.1152
     33 H11         1.4851   -4.5333   -3.9060 H         1 <0>         0.1667
     34 H12         1.4775   -4.8814   -6.3032 H         1 <0>         0.1575
     35 H13         1.5392   -9.1083   -5.7223 H         1 <0>         0.1585
     36 H14         1.4846   -6.2766   -8.1618 H         1 <0>         0.0734
     37 H15         2.3946   -7.7919   -7.9520 H         1 <0>         0.0801
     38 H16         0.6148   -7.8140   -7.9423 H         1 <0>         0.0801
@<TRIPOS>BOND
     1    1    2 1
     2    1   23 1
     3    1   24 1
     4    1   25 1
     5    2    7 2
     6    2    3 1
     7    3    4 2
     8    3   26 1
     9    4    5 1
    10    4   27 1
    11    5   10 1
    12    5    6 1
    13    6    7 1
    14    6    8 2
    15    7   28 1
    16    8    9 1
    17    9   10 2
    18   10   11 1
    19   11   12 1
    20   11   29 1
    21   11   30 1
    22   12   13 1
    23   12   31 1
    24   12   32 1
    25   13   17 1
    26   13   14 2
    27   14   15 1
    28   15   16 2
    29   16   21 1
    30   16   17 1
    31   17   18 1
    32   18   19 2
    33   18   33 1
    34   19   20 1
    35   19   34 1
    36   20   21 2
    37   20   22 1
    38   21   35 1
    39   22   36 1
    40   22   37 1
    41   22   38 1
@<TRIPOS>MOLECULE
ZINC00084613
   38    41     0     0     0
SMALL
USER_CHARGES

@<TRIPOS>ATOM
      1 C1         -0.0165    1.3620    0.0095 C.ar      1 <0>        -0.1480
      2 C2          1.1697    2.0834    0.0021 C.ar      1 <0>        -0.1015
      3 C3          2.3856    1.4362   -0.0134 C.ar      1 <0>        -0.1343
      4 C4          2.4281    0.0456   -0.0212 C.ar      1 <0>         0.0958
      5 C5          1.2234   -0.6807   -0.0132 C.ar      1 <0>        -0.0967
      6 C6          0.0021   -0.0041    0.0020 C.ar      1 <0>        -0.0705
      7 C7          1.6036   -2.0953   -0.0245 C.2       1 <0>        -0.1554
      8 C8          2.9451   -2.1410   -0.0380 C.2       1 <0>         0.0476
      9 N1          3.4551   -0.8713   -0.0363 N.pl3     1 <0>        -0.5964
     10 H1          4.3995   -0.6501   -0.0442 H         1 <0>         0.4124
     11 C9          0.6664   -3.2754   -0.0210 C.3       1 <0>        -0.0484
     12 C10         0.2361   -3.5891   -1.4554 C.3       1 <0>         0.0800
     13 H2          1.1200   -3.7379   -2.0756 H         1 <0>         0.0968
     14 C11        -0.6016   -4.8418   -1.4659 C.2       1 <0>         0.4910
     15 O1         -1.8116   -4.7672   -1.3360 O.co2     1 <0>        -0.6627
     16 O2         -0.0693   -5.9300   -1.6044 O.co2     1 <0>        -0.6880
     17 N2         -0.5497   -2.4718   -1.9849 N.am      1 <0>        -0.5382
     18 C12        -1.6986   -2.0261   -1.4455 C.2       1 <0>         0.5716
     19 O3         -2.2409   -2.4796   -0.4579 O.2       1 <0>        -0.4261
     20 C13        -2.1906   -0.8920   -2.2558 C.ar      1 <0>        -0.1249
     21 C14        -3.2954   -0.0587   -2.1840 C.ar      1 <0>        -0.0564
     22 C15        -3.4666    0.9386   -3.1314 C.ar      1 <0>        -0.1015
     23 C16        -2.5433    1.1070   -4.1462 C.ar      1 <0>        -0.1073
     24 C17        -1.4334    0.2809   -4.2306 C.ar      1 <0>        -0.0521
     25 C18        -1.2492   -0.7203   -3.2906 C.ar      1 <0>        -0.1327
     26 C19        -0.2142   -1.7527   -3.0712 C.2       1 <0>         0.5700
     27 O4          0.7727   -1.9242   -3.7578 O.2       1 <0>        -0.4841
     28 H3         -0.9613    1.8849    0.0259 H         1 <0>         0.1183
     29 H4          1.1388    3.1630    0.0081 H         1 <0>         0.1208
     30 H5          3.3028    2.0064   -0.0198 H         1 <0>         0.1153
     31 H6         -0.9246   -0.5587    0.0082 H         1 <0>         0.1174
     32 H7          3.5346   -3.0459   -0.0490 H         1 <0>         0.1712
     33 H8          1.1742   -4.1414    0.4036 H         1 <0>         0.0879
     34 H9         -0.2127   -3.0396    0.5787 H         1 <0>         0.0847
     35 H10        -4.0201   -0.1859   -1.3935 H         1 <0>         0.1386
     36 H11        -4.3275    1.5883   -3.0764 H         1 <0>         0.1356
     37 H12        -2.6878    1.8874   -4.8786 H         1 <0>         0.1348
     38 H13        -0.7154    0.4169   -5.0259 H         1 <0>         0.1352
@<TRIPOS>BOND
     1    1    6 ar
     2    1    2 ar
     3    1   28 1
     4    2    3 ar
     5    2   29 1
     6    3    4 ar
     7    3   30 1
     8    4    9 1
     9    4    5 ar
    10    5    6 ar
    11    5    7 1
    12    6   31 1
    13    7    8 2
    14    7   11 1
    15    8    9 1
    16    8   32 1
    17    9   10 1
    18   11   12 1
    19   11   33 1
    20   11   34 1
    21   12   13 1
    22   12   14 1
    23   12   17 1
    24   14   15 2
    25   14   16 1
    26   17   26 am
    27   17   18 am
    28   18   19 2
    29   18   20 1
    30   20   25 ar
    31   20   21 ar
    32   21   22 ar
    33   21   35 1
    34   22   23 ar
    35   22   36 1
    36   23   24 ar
    37   23   37 1
    38   24   25 ar
    39   24   38 1
    40   25   26 1
    41   26   27 2
@<TRIPOS>MOLECULE
ZINC00084617
   38    41     0     0     0
SMALL
USER_CHARGES

@<TRIPOS>ATOM
      1 C1         -0.0165    1.3620    0.0095 C.ar      1 <0>        -0.1532
      2 C2          1.1697    2.0834    0.0021 C.ar      1 <0>        -0.1007
      3 C3          2.3856    1.4362   -0.0134 C.ar      1 <0>        -0.1374
      4 C4          2.4281    0.0456   -0.0212 C.ar      1 <0>         0.0976
      5 C5          1.2234   -0.6807   -0.0132 C.ar      1 <0>        -0.0979
      6 C6          0.0021   -0.0041    0.0020 C.ar      1 <0>        -0.0600
      7 C7          1.6036   -2.0953   -0.0245 C.2       1 <0>        -0.1482
      8 C8          2.9451   -2.1410   -0.0380 C.2       1 <0>         0.0396
      9 N1          3.4551   -0.8713   -0.0363 N.pl3     1 <0>        -0.5968
     10 H1          4.3995   -0.6501   -0.0442 H         1 <0>         0.4113
     11 C9          0.6664   -3.2754   -0.0210 C.3       1 <0>        -0.0460
     12 C10         0.2361   -3.5891   -1.4554 C.3       1 <0>         0.0792
     13 H2         -0.1919   -2.6956   -1.9099 H         1 <0>         0.0993
     14 C11        -0.7946   -4.6885   -1.4416 C.2       1 <0>         0.4950
     15 O1         -1.9128   -4.4704   -1.0073 O.co2     1 <0>        -0.6846
     16 O2         -0.5102   -5.7961   -1.8646 O.co2     1 <0>        -0.6703
     17 N2          1.4011   -4.0216   -2.2312 N.am      1 <0>        -0.5364
     18 C12         2.1530   -5.0983   -1.9394 C.2       1 <0>         0.5745
     19 O3          1.9767   -5.8538   -1.0050 O.2       1 <0>        -0.4378
     20 C13         3.2296   -5.2078   -2.9462 C.ar      1 <0>        -0.1256
     21 C14         4.2764   -6.0923   -3.1513 C.ar      1 <0>        -0.0552
     22 C15         5.1332   -5.9059   -4.2248 C.ar      1 <0>        -0.1026
     23 C16         4.9502   -4.8444   -5.0913 C.ar      1 <0>        -0.1077
     24 C17         3.9075   -3.9518   -4.8986 C.ar      1 <0>        -0.0533
     25 C18         3.0430   -4.1256   -3.8297 C.ar      1 <0>        -0.1352
     26 C19         1.8564   -3.3977   -3.3327 C.2       1 <0>         0.5685
     27 O4          1.3743   -2.4020   -3.8337 O.2       1 <0>        -0.4791
     28 H3         -0.9613    1.8849    0.0259 H         1 <0>         0.1200
     29 H4          1.1388    3.1630    0.0081 H         1 <0>         0.1203
     30 H5          3.3028    2.0064   -0.0198 H         1 <0>         0.1145
     31 H6         -0.9246   -0.5587    0.0082 H         1 <0>         0.1259
     32 H7          3.5346   -3.0459   -0.0490 H         1 <0>         0.1609
     33 H8          1.1742   -4.1414    0.4036 H         1 <0>         0.0808
     34 H9         -0.2127   -3.0396    0.5787 H         1 <0>         0.0930
     35 H10         4.4243   -6.9231   -2.4773 H         1 <0>         0.1392
     36 H11         5.9495   -6.5945   -4.3852 H         1 <0>         0.1363
     37 H12         5.6247   -4.7095   -5.9239 H         1 <0>         0.1357
     38 H13         3.7695   -3.1241   -5.5785 H         1 <0>         0.1365
@<TRIPOS>BOND
     1    1    6 ar
     2    1    2 ar
     3    1   28 1
     4    2    3 ar
     5    2   29 1
     6    3    4 ar
     7    3   30 1
     8    4    9 1
     9    4    5 ar
    10    5    6 ar
    11    5    7 1
    12    6   31 1
    13    7    8 2
    14    7   11 1
    15    8    9 1
    16    8   32 1
    17    9   10 1
    18   11   12 1
    19   11   33 1
    20   11   34 1
    21   12   13 1
    22   12   14 1
    23   12   17 1
    24   14   15 2
    25   14   16 1
    26   17   26 am
    27   17   18 am
    28   18   19 2
    29   18   20 1
    30   20   25 ar
    31   20   21 ar
    32   21   22 ar
    33   21   35 1
    34   22   23 ar
    35   22   36 1
    36   23   24 ar
    37   23   37 1
    38   24   25 ar
    39   24   38 1
    40   25   26 1
    41   26   27 2
