@<TRIPOS>MOLECULE
ZINC53033378
   58    63     0     0     0
SMALL
USER_CHARGES

@<TRIPOS>ATOM
      1 C1          2.3405   -0.9566    0.3813 C.3       1 <0>         0.0658
      2 N1          0.9336   -1.2365    0.0842 N.pl3     1 <0>        -0.3994
      3 C2          0.4579   -1.6798   -1.0970 C.2       1 <0>         0.0916
      4 C3         -0.9100   -1.8234   -0.9878 C.2       1 <0>        -0.1191
      5 C4         -1.2635   -1.4446    0.3297 C.2       1 <0>        -0.0964
      6 C5         -0.1111   -1.0943    0.9678 C.2       1 <0>         0.0342
      7 C6         -0.0035   -0.6387    2.3607 C.2       1 <0>         0.2687
      8 C7          0.3800    0.6287    2.7920 C.2       1 <0>        -0.3160
      9 C8          0.3421    0.6203    4.2122 C.2       1 <0>         0.3389
     10 N2         -0.0372   -0.5681    4.5994 N.2       1 <0>        -0.2744
     11 N3         -0.2651   -1.3721    3.4758 N.pl3     1 <0>        -0.3279
     12 C9         -0.7074   -2.7685    3.4978 C.3       1 <0>         0.1668
     13 C10         0.4866   -3.6709    3.6737 C.ar      1 <0>        -0.0577
     14 C11         1.1196   -4.2164    2.5930 C.ar      1 <0>        -0.1427
     15 C12         2.2218   -5.0475    2.7793 C.ar      1 <0>         0.1330
     16 N4          2.6796   -5.3284    3.9752 N.ar      1 <0>        -0.4567
     17 C13         2.1066   -4.8276    5.0739 C.ar      1 <0>         0.1269
     18 C14         0.9842   -3.9705    4.9556 C.ar      1 <0>        -0.0711
     19 C15         0.3888   -3.4428    6.1127 C.ar      1 <0>        -0.0817
     20 C16         0.9000   -3.7570    7.3359 C.ar      1 <0>        -0.0223
     21 C17         2.0080   -4.5960    7.4539 C.ar      1 <0>        -0.0935
     22 C18         2.6020   -5.1330    6.3540 C.ar      1 <0>        -0.0754
     23 Cl1         0.1633   -3.1043    8.7659 Cl        1 <0>        -0.0559
     24 N5          0.6890    1.7896    4.8889 N.am      1 <0>        -0.5100
     25 C19         1.0483    2.8919    4.2097 C.2       1 <0>         0.7158
     26 O1          1.3434    3.8905    4.8373 O.2       1 <0>        -0.5289
     27 N6          1.0964    2.9394    2.8697 N.am      1 <0>        -0.5604
     28 C20         0.7813    1.8647    2.1156 C.2       1 <0>         0.5943
     29 O2          0.8292    1.9217    0.9010 O.2       1 <0>        -0.4912
     30 C21         1.4994    4.1841    2.2106 C.3       1 <0>         0.0818
     31 C22         0.6609    1.8162    6.3534 C.3       1 <0>         0.1512
     32 C23         2.0281    1.3972    6.8974 C.3       1 <0>        -0.1738
     33 C24         2.0952    0.1129    7.7263 C.3       1 <0>        -0.1682
     34 C25         2.2399    1.4736    8.4108 C.3       1 <0>        -0.1656
     35 C26        -1.8035   -2.2708   -2.0136 C.1       1 <0>         0.2850
     36 N7         -2.5123   -2.6257   -2.8273 N.1       1 <0>        -0.4277
     37 H1          2.7949   -1.8319    0.8456 H         1 <0>         0.0820
     38 H2          2.8673   -0.7211   -0.5434 H         1 <0>         0.0997
     39 H3          2.4062   -0.1085    1.0629 H         1 <0>         0.0867
     40 H4          1.0470   -1.8865   -1.9783 H         1 <0>         0.1880
     41 H5         -2.2580   -1.4384    0.7509 H         1 <0>         0.1553
     42 H6         -1.4003   -2.9171    4.3260 H         1 <0>         0.1215
     43 H7         -1.2073   -3.0061    2.5588 H         1 <0>         0.1265
     44 H8          0.7655   -4.0038    1.5951 H         1 <0>         0.1427
     45 H9          2.7120   -5.4720    1.9156 H         1 <0>         0.1662
     46 H10        -0.4691   -2.7915    6.0335 H         1 <0>         0.1452
     47 H11         2.3954   -4.8298    8.4346 H         1 <0>         0.1433
     48 H12         3.4588   -5.7814    6.4630 H         1 <0>         0.1475
     49 H13         2.5805    4.1880    2.0715 H         1 <0>         0.0743
     50 H14         1.0080    4.2572    1.2404 H         1 <0>         0.0943
     51 H15         1.2097    5.0333    2.8295 H         1 <0>         0.0954
     52 H16         0.4280    2.8251    6.6940 H         1 <0>         0.1063
     53 H17        -0.1011    1.1257    6.7148 H         1 <0>         0.0971
     54 H18         2.8797    1.6287    6.2577 H         1 <0>         0.1045
     55 H19         1.1653   -0.4335    7.8841 H         1 <0>         0.0993
     56 H20         2.9911   -0.5008    7.6320 H         1 <0>         0.0910
     57 H21         3.2310    1.7551    8.7667 H         1 <0>         0.0976
     58 H22         1.4052    1.8224    9.0188 H         1 <0>         0.0983
@<TRIPOS>BOND
     1    1    2 1
     2    1   37 1
     3    1   38 1
     4    1   39 1
     5    2    6 1
     6    2    3 1
     7    3    4 2
     8    3   40 1
     9    4    5 1
    10    4   35 1
    11    5    6 2
    12    5   41 1
    13    6    7 1
    14    7   11 1
    15    7    8 2
    16    8   28 1
    17    8    9 1
    18    9   10 2
    19    9   24 1
    20   10   11 1
    21   11   12 1
    22   12   13 1
    23   12   42 1
    24   12   43 1
    25   13   18 ar
    26   13   14 ar
    27   14   15 ar
    28   14   44 1
    29   15   16 ar
    30   15   45 1
    31   16   17 ar
    32   17   22 ar
    33   17   18 ar
    34   18   19 ar
    35   19   20 ar
    36   19   46 1
    37   20   21 ar
    38   20   23 1
    39   21   22 ar
    40   21   47 1
    41   22   48 1
    42   24   25 am
    43   24   31 1
    44   25   26 2
    45   25   27 am
    46   27   28 am
    47   27   30 1
    48   28   29 2
    49   30   49 1
    50   30   50 1
    51   30   51 1
    52   31   32 1
    53   31   52 1
    54   31   53 1
    55   32   34 1
    56   32   33 1
    57   32   54 1
    58   33   34 1
    59   33   55 1
    60   33   56 1
    61   34   57 1
    62   34   58 1
    63   35   36 3
@<TRIPOS>MOLECULE
ZINC00895124
   18    17     0     0     0
SMALL
USER_CHARGES

@<TRIPOS>ATOM
      1 C1         -0.0187    1.5258    0.0104 C.3       1 <0>        -0.1010
      2 C2          0.0021   -0.0041    0.0020 C.3       1 <0>        -0.1959
      3 C3         -1.4117   -0.5257    0.0127 C.2       1 <0>         0.4893
      4 O1         -2.3491    0.2539    0.0259 O.co2     1 <0>        -0.6871
      5 O2         -1.6182   -1.7273    0.0082 O.co2     1 <0>        -0.7016
      6 C4          1.4167    2.0553   -0.0004 C.3       1 <0>        -0.0510
      7 H1          1.9696    1.6236    0.8338 H         1 <0>         0.1263
      8 C5          1.3993    3.5565    0.1316 C.2       1 <0>         0.4931
      9 O3          1.4342    4.0717    1.2361 O.co2     1 <0>        -0.6465
     10 O4          1.3504    4.2557   -0.8660 O.co2     1 <0>        -0.6784
     11 N1          2.0667    1.6824   -1.2639 N.4       1 <0>        -0.6121
     12 H2         -0.5459    1.8868   -0.8726 H         1 <0>         0.0805
     13 H3         -0.5289    1.8773    0.9072 H         1 <0>         0.1026
     14 H4          0.5123   -0.3556   -0.8948 H         1 <0>         0.0475
     15 H5          0.5293   -0.3651    0.8851 H         1 <0>         0.0673
     16 H6          3.0133    2.0317   -1.2711 H         1 <0>         0.4211
     17 H7          2.0783    0.6774   -1.3524 H         1 <0>         0.4148
     18 H8          1.5549    2.0821   -2.0362 H         1 <0>         0.4310
@<TRIPOS>BOND
     1    1    2 1
     2    1    6 1
     3    1   12 1
     4    1   13 1
     5    2    3 1
     6    2   14 1
     7    2   15 1
     8    3    4 2
     9    3    5 1
    10    6    7 1
    11    6    8 1
    12    6   11 1
    13    8    9 2
    14    8   10 1
    15   11   16 1
    16   11   17 1
    17   11   18 1
