@<TRIPOS>MOLECULE
ZINC02391109
   41    41     0     0     0
SMALL
USER_CHARGES
2-(2-carboxy-3-phenyl-propanoyl)amino-4-methyl-pentanoic acid
@<TRIPOS>ATOM
      1 C1         -7.4726    9.3086   -3.2454 C.3       1 <0>        -0.1407
      2 C2         -6.6507    8.4576   -2.2752 C.3       1 <0>        -0.1007
      3 C3         -6.1935    9.3230   -1.0992 C.3       1 <0>        -0.1434
      4 C4         -7.5100    7.3034   -1.7553 C.3       1 <0>        -0.1016
      5 C5         -6.6461    6.3645   -0.9109 C.3       1 <0>         0.1024
      6 H1         -6.1729    6.9299   -0.1081 H         1 <0>         0.0846
      7 C6         -7.5113    5.2813   -0.3200 C.2       1 <0>         0.4529
      8 O1         -7.2885    4.1221   -0.5781 O.co2     1 <0>        -0.6106
      9 N1         -5.6139    5.7587   -1.7557 N.am      1 <0>        -0.6959
     10 C7         -4.4645    5.3200   -1.2053 C.2       1 <0>         0.5420
     11 O2         -4.2847    5.4267   -0.0107 O.2       1 <0>        -0.5667
     12 C8         -3.4027    4.6967   -2.0743 C.3       1 <0>        -0.1467
     13 H2         -3.0772    5.4180   -2.8240 H         1 <0>         0.0852
     14 C9         -2.2097    4.2881   -1.2080 C.3       1 <0>        -0.0494
     15 C10        -1.1001    3.7765   -2.0901 C.ar      1 <0>        -0.0578
     16 C11        -0.2143    4.6643   -2.6716 C.ar      1 <0>        -0.1214
     17 C12         0.8005    4.1954   -3.4847 C.ar      1 <0>        -0.1312
     18 C13         0.9360    2.8379   -3.7078 C.ar      1 <0>        -0.1391
     19 C14         0.0534    1.9497   -3.1221 C.ar      1 <0>        -0.1254
     20 C15        -0.9646    2.4190   -2.3132 C.ar      1 <0>        -0.0913
     21 C16        -3.9660    3.4789   -2.7603 C.2       1 <0>         0.4876
     22 O3         -4.0096    2.4223   -2.1758 O.co2     1 <0>        -0.6197
     23 H3         -6.8382   10.0830   -3.6765 H         1 <0>         0.0455
     24 H4         -7.8649    8.6755   -4.0413 H         1 <0>         0.0525
     25 H5         -8.3002    9.7734   -2.7096 H         1 <0>         0.0499
     26 H6         -5.7787    8.0571   -2.7922 H         1 <0>         0.0708
     27 H7         -5.6079    8.7167   -0.4080 H         1 <0>         0.0594
     28 H8         -5.5813   10.1452   -1.4696 H         1 <0>         0.0432
     29 H9         -7.0655    9.7235   -0.5822 H         1 <0>         0.0512
     30 H10        -7.9276    6.7530   -2.5984 H         1 <0>         0.0593
     31 H11        -8.3200    7.7004   -1.1435 H         1 <0>         0.0798
     32 H12        -5.7577    5.6733   -2.7112 H         1 <0>         0.3988
     33 H13        -2.5150    3.5031   -0.5161 H         1 <0>         0.0837
     34 H14        -1.8569    5.1519   -0.6446 H         1 <0>         0.0666
     35 H15        -0.3175    5.7245   -2.4937 H         1 <0>         0.1160
     36 H16         1.4902    4.8893   -3.9421 H         1 <0>         0.1115
     37 H17         1.7316    2.4713   -4.3395 H         1 <0>         0.1099
     38 H18         0.1595    0.8891   -3.2961 H         1 <0>         0.1139
     39 H19        -1.6539    1.7251   -1.8553 H         1 <0>         0.1327
     40 O4         -8.5294    5.6042    0.4930 O.co2     1 <0>        -0.7878
     41 O5         -4.4192    3.5679   -4.0206 O.co2     1 <0>        -0.7697
@<TRIPOS>BOND
     1    1    2 1
     2    1   23 1
     3    1   24 1
     4    1   25 1
     5    2    3 1
     6    2    4 1
     7    2   26 1
     8    3   27 1
     9    3   28 1
    10    3   29 1
    11    4    5 1
    12    4   30 1
    13    4   31 1
    14    5    6 1
    15    5    7 1
    16    5    9 1
    17    7    8 2
    18    7   40 1
    19    9   10 am
    20    9   32 1
    21   10   11 2
    22   10   12 1
    23   12   13 1
    24   12   14 1
    25   12   21 1
    26   14   15 1
    27   14   33 1
    28   14   34 1
    29   15   20 ar
    30   15   16 ar
    31   16   17 ar
    32   16   35 1
    33   17   18 ar
    34   17   36 1
    35   18   19 ar
    36   18   37 1
    37   19   20 ar
    38   19   38 1
    39   20   39 1
    40   21   22 2
    41   21   41 1
@<TRIPOS>MOLECULE
ZINC04899476
   41    41     0     0     0
SMALL
USER_CHARGES
2-(2-carboxy-3-phenyl-propanoyl)amino-4-methyl-pentanoic acid
@<TRIPOS>ATOM
      1 C1         -0.1280    5.7166   -2.4580 C.3       1 <0>        -0.1376
      2 C2          0.4722    5.1661   -1.1627 C.3       1 <0>        -0.1066
      3 C3         -0.3945    5.5943    0.0232 C.3       1 <0>        -0.1381
      4 C4          0.5222    3.6385   -1.2327 C.3       1 <0>        -0.0979
      5 C5          1.2350    3.0943    0.0069 C.3       1 <0>         0.1050
      6 H1          0.7441    3.4725    0.9036 H         1 <0>         0.0852
      7 C6          1.1765    1.5884   -0.0006 C.2       1 <0>         0.4599
      8 O1          2.1986    0.9442   -0.0139 O.co2     1 <0>        -0.6318
      9 N1          2.6340    3.5287   -0.0041 N.am      1 <0>        -0.6842
     10 C7          3.3188    3.6252    1.1527 C.2       1 <0>         0.5490
     11 O2          2.7769    3.3523    2.2028 O.2       1 <0>        -0.5755
     12 C8          4.7580    4.0721    1.1413 C.3       1 <0>        -0.1506
     13 H2          5.3490    3.3791    0.5425 H         1 <0>         0.0900
     14 C9          5.2960    4.0956    2.5734 C.3       1 <0>        -0.0406
     15 C10         6.7669    4.4230    2.5521 C.ar      1 <0>        -0.0593
     16 C11         7.7002    3.4066    2.4700 C.ar      1 <0>        -0.1208
     17 C12         9.0492    3.7073    2.4456 C.ar      1 <0>        -0.1448
     18 C13         9.4652    5.0238    2.5139 C.ar      1 <0>        -0.1351
     19 C14         8.5321    6.0399    2.6013 C.ar      1 <0>        -0.1369
     20 C15         7.1829    5.7395    2.6204 C.ar      1 <0>        -0.0246
     21 C16         4.8502    5.4540    0.5474 C.2       1 <0>         0.4744
     22 O3          3.8499    6.0182    0.1718 O.co2     1 <0>        -0.6256
     23 H3         -1.1373    5.3255   -2.5857 H         1 <0>         0.0457
     24 H4         -0.1636    6.8049   -2.4082 H         1 <0>         0.0459
     25 H5          0.4895    5.4116   -3.3029 H         1 <0>         0.0481
     26 H6          1.4816    5.5572   -1.0350 H         1 <0>         0.0911
     27 H7         -1.4039    5.2032   -0.1045 H         1 <0>         0.0447
     28 H8          0.0331    5.2021    0.9460 H         1 <0>         0.0584
     29 H9         -0.4301    6.6825    0.0730 H         1 <0>         0.0433
     30 H10         1.0650    3.3334   -2.1273 H         1 <0>         0.0536
     31 H11        -0.4929    3.2432   -1.2710 H         1 <0>         0.0757
     32 H12         3.0675    3.7470   -0.8440 H         1 <0>         0.3916
     33 H13         4.7636    4.8525    3.1492 H         1 <0>         0.0661
     34 H14         5.1480    3.1184    3.0332 H         1 <0>         0.0686
     35 H15         7.3752    2.3778    2.4212 H         1 <0>         0.1116
     36 H16         9.7783    2.9134    2.3777 H         1 <0>         0.1061
     37 H17        10.5193    5.2585    2.4993 H         1 <0>         0.1038
     38 H18         8.8571    7.0684    2.6550 H         1 <0>         0.1065
     39 H19         6.4539    6.5334    2.6890 H         1 <0>         0.1164
     40 O4         -0.0110    0.9628    0.0073 O.co2     1 <0>        -0.7823
     41 O5          6.0436    6.0583    0.4356 O.co2     1 <0>        -0.7484
@<TRIPOS>BOND
     1    1    2 1
     2    1   23 1
     3    1   24 1
     4    1   25 1
     5    2    3 1
     6    2    4 1
     7    2   26 1
     8    3   27 1
     9    3   28 1
    10    3   29 1
    11    4    5 1
    12    4   30 1
    13    4   31 1
    14    5    6 1
    15    5    7 1
    16    5    9 1
    17    7    8 2
    18    7   40 1
    19    9   10 am
    20    9   32 1
    21   10   11 2
    22   10   12 1
    23   12   13 1
    24   12   14 1
    25   12   21 1
    26   14   15 1
    27   14   33 1
    28   14   34 1
    29   15   20 ar
    30   15   16 ar
    31   16   17 ar
    32   16   35 1
    33   17   18 ar
    34   17   36 1
    35   18   19 ar
    36   18   37 1
    37   19   20 ar
    38   19   38 1
    39   20   39 1
    40   21   22 2
    41   21   41 1
@<TRIPOS>MOLECULE
ZINC01605729
   33    33     0     0     0
SMALL
USER_CHARGES
2-(2-amino-3-phenyl-propanoyl)aminopropanoic acid
@<TRIPOS>ATOM
      1 C1         -2.8163    0.7401    1.4565 C.3       1 <0>        -0.1412
      2 C2         -2.4492    1.1169    0.0197 C.3       1 <0>         0.0900
      3 H1         -2.3335    0.2109   -0.5752 H         1 <0>         0.0981
      4 C3         -3.5426    1.9694   -0.5709 C.2       1 <0>         0.4608
      5 O1         -3.2958    3.0884   -0.9541 O.co2     1 <0>        -0.6336
      6 N1         -1.1906    1.8666    0.0178 N.am      1 <0>        -0.6625
      7 C4         -0.0144    1.2086    0.0087 C.2       1 <0>         0.4928
      8 O2          0.0021   -0.0041    0.0020 O.2       1 <0>        -0.5419
      9 C5          1.2803    1.9798    0.0005 C.3       1 <0>         0.0178
     10 H2          1.1834    2.8456   -0.6546 H         1 <0>         0.1622
     11 C6          1.6039    2.4484    1.4206 C.3       1 <0>        -0.0947
     12 C7          2.8315    3.3221    1.3938 C.ar      1 <0>        -0.1236
     13 C8          4.0843    2.7587    1.5483 C.ar      1 <0>        -0.1407
     14 C9          5.2107    3.5596    1.5189 C.ar      1 <0>        -0.1097
     15 C10         5.0835    4.9251    1.3455 C.ar      1 <0>        -0.1057
     16 C11         3.8303    5.4891    1.1963 C.ar      1 <0>        -0.1056
     17 C12         2.7043    4.6876    1.2205 C.ar      1 <0>        -0.1014
     18 H3         -3.7527    0.1823    1.4579 H         1 <0>         0.0820
     19 H4         -2.0255    0.1235    1.8837 H         1 <0>         0.0490
     20 H5         -2.9321    1.6460    2.0514 H         1 <0>         0.0538
     21 H6         -1.2037    2.8365    0.0232 H         1 <0>         0.4133
     22 H7          0.7621    3.0165    1.8163 H         1 <0>         0.1260
     23 H8          1.7883    1.5820    2.0558 H         1 <0>         0.1060
     24 H9          4.1834    1.6924    1.6882 H         1 <0>         0.1240
     25 H10         6.1897    3.1189    1.6358 H         1 <0>         0.1305
     26 H11         5.9632    5.5513    1.3270 H         1 <0>         0.1304
     27 H12         3.7309    6.5560    1.0612 H         1 <0>         0.1326
     28 H13         1.7252    5.1283    1.1042 H         1 <0>         0.1341
     29 H14         2.4723    0.3044    0.1027 H         1 <0>         0.4407
     30 H15         2.2039    0.8442   -1.4473 H         1 <0>         0.4421
     31 O3         -4.7906    1.4856   -0.6713 O.co2     1 <0>        -0.7354
     32 N2          2.3820    1.1307   -0.4861 N.4       1 <0>        -0.6280
     33 H16         3.2590    1.6636   -0.4524 H         1 <0>         0.4378
@<TRIPOS>BOND
     1    1    2 1
     2    1   18 1
     3    1   19 1
     4    1   20 1
     5    2    3 1
     6    2    4 1
     7    2    6 1
     8    4    5 2
     9    4   31 1
    10    6    7 am
    11    6   21 1
    12    7    8 2
    13    7    9 1
    14    9   10 1
    15    9   11 1
    16    9   32 1
    17   11   12 1
    18   11   22 1
    19   11   23 1
    20   12   17 ar
    21   12   13 ar
    22   13   14 ar
    23   13   24 1
    24   14   15 ar
    25   14   25 1
    26   15   16 ar
    27   15   26 1
    28   16   17 ar
    29   16   27 1
    30   17   28 1
    31   29   32 1
    32   30   32 1
    33   32   33 1
@<TRIPOS>MOLECULE
ZINC01605730
   33    33     0     0     0
SMALL
USER_CHARGES
2-(2-amino-3-phenyl-propanoyl)aminopropanoic acid
@<TRIPOS>ATOM
      1 C1         -2.9335    4.0485   -2.3477 C.3       1 <0>        -0.1402
      2 C2         -2.8036    2.5257   -2.4184 C.3       1 <0>         0.0894
      3 H1         -2.2453    2.2498   -3.3130 H         1 <0>         0.0985
      4 C3         -4.1764    1.9064   -2.4721 C.2       1 <0>         0.4608
      5 O1         -4.5270    1.1384   -1.6076 O.co2     1 <0>        -0.6332
      6 N1         -2.0951    2.0404   -1.2315 N.am      1 <0>        -0.6625
      7 C4         -0.7475    2.0250   -1.2105 C.2       1 <0>         0.4926
      8 O2         -0.1215    2.4129   -2.1741 O.2       1 <0>        -0.5418
      9 C5         -0.0187    1.5258    0.0104 C.3       1 <0>         0.0193
     10 H2         -0.5289    1.8773    0.9072 H         1 <0>         0.1609
     11 C6          0.0021   -0.0041    0.0020 C.3       1 <0>        -0.0974
     12 C7          0.6216   -0.5051    1.2812 C.ar      1 <0>        -0.1223
     13 C8          1.9849   -0.7228    1.3499 C.ar      1 <0>        -0.1410
     14 C9          2.5538   -1.1777    2.5248 C.ar      1 <0>        -0.1100
     15 C10         1.7579   -1.4250    3.6276 C.ar      1 <0>        -0.1062
     16 C11         0.3939   -1.2123    3.5573 C.ar      1 <0>        -0.1058
     17 C12        -0.1743   -0.7524    2.3841 C.ar      1 <0>        -0.1012
     18 H3         -3.4918    4.3244   -1.4531 H         1 <0>         0.0537
     19 H4         -1.9405    4.4964   -2.3088 H         1 <0>         0.0476
     20 H5         -3.4607    4.4096   -3.2307 H         1 <0>         0.0824
     21 H6         -2.5957    1.7301   -0.4608 H         1 <0>         0.4132
     22 H7         -1.0175   -0.3808   -0.0798 H         1 <0>         0.1295
     23 H8          0.5883   -0.3548   -0.8473 H         1 <0>         0.1062
     24 H9          2.6061   -0.5338    0.4869 H         1 <0>         0.1238
     25 H10         3.6195   -1.3443    2.5796 H         1 <0>         0.1303
     26 H11         2.2018   -1.7847    4.5442 H         1 <0>         0.1301
     27 H12        -0.2280   -1.4059    4.4188 H         1 <0>         0.1324
     28 H13        -1.2401   -0.5865    2.3290 H         1 <0>         0.1346
     29 H14         1.8539    1.7219   -0.8222 H         1 <0>         0.4413
     30 H15         1.3741    3.0407    0.0702 H         1 <0>         0.4407
     31 O3         -5.0098    2.2079   -3.4802 O.co2     1 <0>        -0.7356
     32 N2          1.3683    2.0232    0.0210 N.4       1 <0>        -0.6282
     33 H16         1.8561    1.6454    0.8417 H         1 <0>         0.4379
@<TRIPOS>BOND
     1    1    2 1
     2    1   18 1
     3    1   19 1
     4    1   20 1
     5    2    3 1
     6    2    4 1
     7    2    6 1
     8    4    5 2
     9    4   31 1
    10    6    7 am
    11    6   21 1
    12    7    8 2
    13    7    9 1
    14    9   10 1
    15    9   11 1
    16    9   32 1
    17   11   12 1
    18   11   22 1
    19   11   23 1
    20   12   17 ar
    21   12   13 ar
    22   13   14 ar
    23   13   24 1
    24   14   15 ar
    25   14   25 1
    26   15   16 ar
    27   15   26 1
    28   16   17 ar
    29   16   27 1
    30   17   28 1
    31   29   32 1
    32   30   32 1
    33   32   33 1
@<TRIPOS>MOLECULE
ZINC01605731
   33    33     0     0     0
SMALL
USER_CHARGES
2-(2-amino-3-phenyl-propanoyl)aminopropanoic acid
@<TRIPOS>ATOM
      1 C1         -1.9209    0.8446   -4.0812 C.3       1 <0>        -0.1402
      2 C2         -2.5622    1.4392   -2.8258 C.3       1 <0>         0.0894
      3 H1         -2.5004    2.5267   -2.8664 H         1 <0>         0.0985
      4 C3         -4.0080    1.0204   -2.7538 C.2       1 <0>         0.4608
      5 O1         -4.4058    0.3821   -1.8082 O.co2     1 <0>        -0.6330
      6 N1         -1.8536    0.9539   -1.6389 N.am      1 <0>        -0.6625
      7 C4         -0.7416    1.5850   -1.2129 C.2       1 <0>         0.4926
      8 O2         -0.3275    2.5548   -1.8121 O.2       1 <0>        -0.5419
      9 C5         -0.0127    1.0858    0.0080 C.3       1 <0>         0.0193
     10 H2          0.0021   -0.0041    0.0020 H         1 <0>         0.1609
     11 C6         -0.7288    1.5792    1.2668 C.3       1 <0>        -0.0974
     12 C7         -0.0738    0.9805    2.4848 C.ar      1 <0>        -0.1220
     13 C8         -0.5230   -0.2259    2.9886 C.ar      1 <0>        -0.1012
     14 C9          0.0810   -0.7775    4.1029 C.ar      1 <0>        -0.1058
     15 C10         1.1275   -0.1176    4.7196 C.ar      1 <0>        -0.1063
     16 C11         1.5734    1.0913    4.2189 C.ar      1 <0>        -0.1097
     17 C12         0.9727    1.6403    3.1015 C.ar      1 <0>        -0.1414
     18 H3         -1.9826   -0.2428   -4.0405 H         1 <0>         0.0537
     19 H4         -2.4481    1.2057   -4.9643 H         1 <0>         0.0824
     20 H5         -0.8751    1.1475   -4.1332 H         1 <0>         0.0476
     21 H6         -2.1848    0.1783   -1.1596 H         1 <0>         0.4132
     22 H7         -0.6662    2.6662    1.3180 H         1 <0>         0.1062
     23 H8         -1.7755    1.2768    1.2315 H         1 <0>         0.1296
     24 H9         -1.3436   -0.7392    2.5094 H         1 <0>         0.1346
     25 H10        -0.2676   -1.7218    4.4943 H         1 <0>         0.1324
     26 H11         1.5965   -0.5464    5.5929 H         1 <0>         0.1301
     27 H12         2.3907    1.6070    4.7010 H         1 <0>         0.1303
     28 H13         1.3208    2.5850    2.7105 H         1 <0>         0.1237
     29 H14         1.8793    1.2300   -0.7907 H         1 <0>         0.4407
     30 H15         1.3787    2.6032    0.0029 H         1 <0>         0.4413
     31 O3         -4.8540    1.3566   -3.7403 O.co2     1 <0>        -0.7357
     32 N2          1.3738    1.5847    0.0195 N.4       1 <0>        -0.6282
     33 H16         1.8417    1.2613    0.8743 H         1 <0>         0.4379
@<TRIPOS>BOND
     1    1    2 1
     2    1   18 1
     3    1   19 1
     4    1   20 1
     5    2    3 1
     6    2    4 1
     7    2    6 1
     8    4    5 2
     9    4   31 1
    10    6    7 am
    11    6   21 1
    12    7    8 2
    13    7    9 1
    14    9   10 1
    15    9   11 1
    16    9   32 1
    17   11   12 1
    18   11   22 1
    19   11   23 1
    20   12   17 ar
    21   12   13 ar
    22   13   14 ar
    23   13   24 1
    24   14   15 ar
    25   14   25 1
    26   15   16 ar
    27   15   26 1
    28   16   17 ar
    29   16   27 1
    30   17   28 1
    31   29   32 1
    32   30   32 1
    33   32   33 1
@<TRIPOS>MOLECULE
ZINC01605732
   33    33     0     0     0
SMALL
USER_CHARGES
2-(2-amino-3-phenyl-propanoyl)aminopropanoic acid
@<TRIPOS>ATOM
      1 C1          0.5460    3.6251    1.2656 C.3       1 <0>        -0.1411
      2 C2          1.2350    3.0943    0.0069 C.3       1 <0>         0.0897
      3 H1          0.7272    3.4820   -0.8762 H         1 <0>         0.0981
      4 C3          1.1765    1.5884   -0.0006 C.2       1 <0>         0.4607
      5 O1          2.1986    0.9442   -0.0139 O.co2     1 <0>        -0.6336
      6 N1          2.6340    3.5287   -0.0041 N.am      1 <0>        -0.6621
      7 C4          2.9592    4.7415   -0.4940 C.2       1 <0>         0.4898
      8 O2          2.0936    5.4731   -0.9258 O.2       1 <0>        -0.5427
      9 C5          4.3984    5.1884   -0.5054 C.3       1 <0>         0.0182
     10 H2          5.0371    4.3496   -0.7820 H         1 <0>         0.1621
     11 C6          4.7880    5.6887    0.8870 C.3       1 <0>        -0.0913
     12 C7          6.2580    6.0201    0.9086 C.ar      1 <0>        -0.1225
     13 C8          7.1799    5.0511    1.2578 C.ar      1 <0>        -0.1019
     14 C9          8.5287    5.3538    1.2729 C.ar      1 <0>        -0.1065
     15 C10         8.9546    6.6284    0.9489 C.ar      1 <0>        -0.1060
     16 C11         8.0323    7.5988    0.6047 C.ar      1 <0>        -0.1107
     17 C12         6.6839    7.2947    0.5845 C.ar      1 <0>        -0.1376
     18 H3          1.0538    3.2374    2.1487 H         1 <0>         0.0538
     19 H4          0.5883    4.7143    1.2711 H         1 <0>         0.0490
     20 H5         -0.4949    3.3019    1.2738 H         1 <0>         0.0820
     21 H6          3.3263    2.9436    0.3411 H         1 <0>         0.4134
     22 H7          4.2107    6.5815    1.1270 H         1 <0>         0.1054
     23 H8          4.5798    4.9125    1.6234 H         1 <0>         0.1259
     24 H9          6.8468    4.0566    1.5152 H         1 <0>         0.1336
     25 H10         9.2492    4.5958    1.5421 H         1 <0>         0.1321
     26 H11        10.0080    6.8661    0.9649 H         1 <0>         0.1299
     27 H12         8.3650    8.5947    0.3519 H         1 <0>         0.1299
     28 H13         5.9633    8.0529    0.3160 H         1 <0>         0.1231
     29 H14         3.9840    7.0641   -1.2460 H         1 <0>         0.4407
     30 H15         5.5347    6.5478   -1.5538 H         1 <0>         0.4369
     31 O3         -0.0110    0.9628    0.0073 O.co2     1 <0>        -0.7354
     32 N2          4.5582    6.2624   -1.5015 N.4       1 <0>        -0.6276
     33 H16         4.2605    5.9166   -2.4213 H         1 <0>         0.4448
@<TRIPOS>BOND
     1    1    2 1
     2    1   18 1
     3    1   19 1
     4    1   20 1
     5    2    3 1
     6    2    4 1
     7    2    6 1
     8    4    5 2
     9    4   31 1
    10    6    7 am
    11    6   21 1
    12    7    8 2
    13    7    9 1
    14    9   10 1
    15    9   11 1
    16    9   32 1
    17   11   12 1
    18   11   22 1
    19   11   23 1
    20   12   17 ar
    21   12   13 ar
    22   13   14 ar
    23   13   24 1
    24   14   15 ar
    25   14   25 1
    26   15   16 ar
    27   15   26 1
    28   16   17 ar
    29   16   27 1
    30   17   28 1
    31   29   32 1
    32   30   32 1
    33   32   33 1
