@<TRIPOS>MOLECULE
ZINC03872335
   31    31     0     0     0
SMALL
USER_CHARGES

@<TRIPOS>ATOM
      1 C1         -0.0167    1.3781    0.0096 C.ar      1 <0>        -0.1272
      2 C2          1.1709    2.0855    0.0021 C.ar      1 <0>        -0.1174
      3 C3          2.3773    1.4107   -0.0130 C.ar      1 <0>        -0.1135
      4 C4          2.3960    0.0285   -0.0201 C.ar      1 <0>        -0.0768
      5 C5          1.2084   -0.6789   -0.0117 C.ar      1 <0>        -0.1195
      6 C6          0.0021   -0.0041    0.0020 C.ar      1 <0>        -0.1201
      7 C7          3.7112   -0.7071   -0.0376 C.3       1 <0>        -0.0562
      8 C8          4.1714   -0.9633    1.3989 C.3       1 <0>        -0.0855
      9 H1          4.2087   -0.0191    1.9423 H         1 <0>         0.1072
     10 C9          3.1871   -1.9101    2.0886 C.3       1 <0>        -0.0744
     11 S1          3.6492   -2.0971    3.8327 S.3       1 <0>        -0.2155
     12 C10         5.5425   -1.5884    1.3832 C.2       1 <0>         0.5003
     13 O1          6.0971   -1.8074    0.3271 O.2       1 <0>        -0.5619
     14 N1          6.1525   -1.9040    2.5428 N.am      1 <0>        -0.6810
     15 C11         7.4855   -2.5117    2.5276 C.3       1 <0>         0.0474
     16 C12         7.9387   -2.7640    3.9425 C.2       1 <0>         0.4891
     17 O2          7.2154   -2.4640    4.8770 O.co2     1 <0>        -0.6823
     18 O3          9.0288   -3.2681    4.1527 O.co2     1 <0>        -0.6937
     19 H2         -0.9591    1.9053    0.0259 H         1 <0>         0.1184
     20 H3          1.1563    3.1654    0.0076 H         1 <0>         0.1207
     21 H4          3.3051    1.9634   -0.0196 H         1 <0>         0.1243
     22 H5          1.2231   -1.7588   -0.0176 H         1 <0>         0.1209
     23 H6         -0.9258   -0.5567    0.0082 H         1 <0>         0.1191
     24 H7          3.5884   -1.6586   -0.5549 H         1 <0>         0.0825
     25 H8          4.4573   -0.1052   -0.5563 H         1 <0>         0.0906
     26 H9          2.1799   -1.4989    2.0217 H         1 <0>         0.0963
     27 H10         3.2154   -2.8834    1.5988 H         1 <0>         0.0871
     28 H11         2.7241   -2.9397    4.3259 H         1 <0>         0.0791
     29 H12         5.7090   -1.7288    3.3875 H         1 <0>         0.4138
     30 H13         7.4482   -3.4558    1.9842 H         1 <0>         0.0641
     31 H14         8.1867   -1.8372    2.0363 H         1 <0>         0.0640
@<TRIPOS>BOND
     1    1    6 ar
     2    1    2 ar
     3    1   19 1
     4    2    3 ar
     5    2   20 1
     6    3    4 ar
     7    3   21 1
     8    4    5 ar
     9    4    7 1
    10    5    6 ar
    11    5   22 1
    12    6   23 1
    13    7    8 1
    14    7   24 1
    15    7   25 1
    16    8    9 1
    17    8   10 1
    18    8   12 1
    19   10   11 1
    20   10   26 1
    21   10   27 1
    22   11   28 1
    23   12   13 2
    24   12   14 am
    25   14   15 1
    26   14   29 1
    27   15   16 1
    28   15   30 1
    29   15   31 1
    30   16   17 2
    31   16   18 1
@<TRIPOS>MOLECULE
ZINC03872336
   31    31     0     0     0
SMALL
USER_CHARGES

@<TRIPOS>ATOM
      1 C1          2.6440   -5.2211    3.5972 C.ar      1 <0>        -0.1212
      2 C2          1.8857   -4.0804    3.7836 C.ar      1 <0>        -0.1206
      3 C3          2.0088   -3.0179    2.9080 C.ar      1 <0>        -0.1134
      4 C4          2.8905   -3.0957    1.8463 C.ar      1 <0>        -0.0882
      5 C5          3.6495   -4.2360    1.6604 C.ar      1 <0>        -0.1056
      6 C6          3.5254   -5.2991    2.5352 C.ar      1 <0>        -0.1162
      7 C7          3.0240   -1.9378    0.8911 C.3       1 <0>        -0.0676
      8 C8          4.0524   -0.9440    1.4350 C.3       1 <0>        -0.0844
      9 H1          3.7721   -0.6478    2.4458 H         1 <0>         0.0995
     10 C9          4.0930    0.2921    0.5342 C.3       1 <0>        -0.0511
     11 S1          2.5044    1.1626    0.6300 S.3       1 <0>        -0.2429
     12 C10         5.4126   -1.5921    1.4603 C.2       1 <0>         0.5147
     13 O1          5.9284   -1.9600    0.4261 O.2       1 <0>        -0.5596
     14 N1          6.0560   -1.7629    2.6322 N.am      1 <0>        -0.6892
     15 C11         7.3784   -2.3929    2.6568 C.3       1 <0>         0.0513
     16 C12         7.8746   -2.4640    4.0780 C.2       1 <0>         0.4902
     17 O2          7.1873   -2.0288    4.9861 O.co2     1 <0>        -0.6900
     18 O3          8.9633   -2.9568    4.3197 O.co2     1 <0>        -0.6896
     19 H2          2.5511   -6.0495    4.2839 H         1 <0>         0.1182
     20 H3          1.1968   -4.0196    4.6131 H         1 <0>         0.1193
     21 H4          1.4157   -2.1270    3.0532 H         1 <0>         0.1221
     22 H5          4.3382   -4.2970    0.8306 H         1 <0>         0.1208
     23 H6          4.1182   -6.1902    2.3897 H         1 <0>         0.1190
     24 H7          3.3524   -2.3048   -0.0813 H         1 <0>         0.0829
     25 H8          2.0595   -1.4411    0.7852 H         1 <0>         0.0933
     26 H9          4.8918    0.9562    0.8645 H         1 <0>         0.0885
     27 H10         4.2778   -0.0145   -0.4953 H         1 <0>         0.0961
     28 H11         2.6604    2.2156   -0.1921 H         1 <0>         0.0859
     29 H12         5.6435   -1.4686    3.4593 H         1 <0>         0.4084
     30 H13         7.3088   -3.3999    2.2454 H         1 <0>         0.0650
     31 H14         8.0730   -1.8032    2.0585 H         1 <0>         0.0645
@<TRIPOS>BOND
     1    1    6 ar
     2    1    2 ar
     3    1   19 1
     4    2    3 ar
     5    2   20 1
     6    3    4 ar
     7    3   21 1
     8    4    5 ar
     9    4    7 1
    10    5    6 ar
    11    5   22 1
    12    6   23 1
    13    7    8 1
    14    7   24 1
    15    7   25 1
    16    8    9 1
    17    8   10 1
    18    8   12 1
    19   10   11 1
    20   10   26 1
    21   10   27 1
    22   11   28 1
    23   12   13 2
    24   12   14 am
    25   14   15 1
    26   14   29 1
    27   15   16 1
    28   15   30 1
    29   15   31 1
    30   16   17 2
    31   16   18 1
@<TRIPOS>MOLECULE
ZINC03981918
   38    40     0     0     0
SMALL
USER_CHARGES

@<TRIPOS>ATOM
      1 C1         -0.0166    1.3749    0.0096 C.ar      1 <0>        -0.1413
      2 C2          1.1723    2.0869    0.0021 C.ar      1 <0>        -0.0897
      3 C3          2.3842    1.4293   -0.0135 C.ar      1 <0>        -0.1175
      4 C4          2.4231    0.0400   -0.0218 C.ar      1 <0>         0.0809
      5 C5          1.2189   -0.6774   -0.0137 C.ar      1 <0>        -0.1121
      6 C6          0.0021   -0.0041    0.0020 C.ar      1 <0>        -0.0604
      7 C7          1.6027   -2.1020   -0.0266 C.ar      1 <0>        -0.1269
      8 C8          0.8888   -3.2957   -0.0266 C.ar      1 <0>        -0.0411
      9 C9          1.5652   -4.4973   -0.0412 C.ar      1 <0>        -0.1451
     10 C10         2.9509   -4.5156   -0.0558 C.ar      1 <0>        -0.0609
     11 C11         3.6684   -3.3382   -0.0555 C.ar      1 <0>        -0.1060
     12 C12         3.0042   -2.1173   -0.0413 C.ar      1 <0>         0.0864
     13 O1          3.4475   -0.8409   -0.0379 O.3       1 <0>        -0.2009
     14 C13         3.6801   -5.8344   -0.0717 C.3       1 <0>        -0.0835
     15 C14         3.9118   -6.2716   -1.5195 C.3       1 <0>        -0.0522
     16 H1          4.4325   -5.4805   -2.0590 H         1 <0>         0.1151
     17 C15         4.7468   -7.5259   -1.5378 C.2       1 <0>         0.4986
     18 O2          4.2467   -8.5864   -1.8722 O.co2     1 <0>        -0.6499
     19 O3          5.9226   -7.4803   -1.2184 O.co2     1 <0>        -0.6688
     20 N1          2.6185   -6.5348   -2.1644 N.4       1 <0>        -0.4458
     21 C16         2.8328   -6.8382   -3.5857 C.3       1 <0>        -0.5929
     22 P1          1.2278   -7.1649   -4.3861 P.3       1 <0>         2.1429
     23 O4          0.4794   -8.3020   -3.6106 O.2       1 <0>        -1.1436
     24 O5          0.3597   -5.8609   -4.3670 O.3       1 <0>        -1.1496
     25 O6          1.4651   -7.6126   -5.8686 O.3       1 <0>        -1.1440
     26 H2         -0.9597    1.9009    0.0259 H         1 <0>         0.1311
     27 H3          1.1495    3.1666    0.0081 H         1 <0>         0.1343
     28 H4          3.3044    1.9946   -0.0196 H         1 <0>         0.1320
     29 H5         -0.9245   -0.5589    0.0076 H         1 <0>         0.1323
     30 H6         -0.1911   -3.2815   -0.0149 H         1 <0>         0.1391
     31 H7          1.0140   -5.4260   -0.0409 H         1 <0>         0.1420
     32 H8          4.7481   -3.3646   -0.0662 H         1 <0>         0.1392
     33 H9          4.6400   -5.7248    0.4328 H         1 <0>         0.1138
     34 H10         3.0824   -6.5862    0.4437 H         1 <0>         0.0949
     35 H11         2.1730   -7.3214   -1.7161 H         1 <0>         0.4245
     36 H12         3.3141   -5.9886   -4.0700 H         1 <0>         0.0911
     37 H13         3.4702   -7.7176   -3.6774 H         1 <0>         0.1329
     38 H14         2.0284   -5.7208   -2.0796 H         1 <0>         0.4011
@<TRIPOS>BOND
     1    1    6 ar
     2    1    2 ar
     3    1   26 1
     4    2    3 ar
     5    2   27 1
     6    3    4 ar
     7    3   28 1
     8    4   13 1
     9    4    5 ar
    10    5    6 ar
    11    5    7 1
    12    6   29 1
    13    7   12 ar
    14    7    8 ar
    15    8    9 ar
    16    8   30 1
    17    9   10 ar
    18    9   31 1
    19   10   11 ar
    20   10   14 1
    21   11   12 ar
    22   11   32 1
    23   12   13 1
    24   14   15 1
    25   14   33 1
    26   14   34 1
    27   15   16 1
    28   15   17 1
    29   15   20 1
    30   17   18 2
    31   17   19 1
    32   20   21 1
    33   20   35 1
    34   20   38 1
    35   21   22 1
    36   21   36 1
    37   21   37 1
    38   22   23 2
    39   22   24 1
    40   22   25 1
@<TRIPOS>MOLECULE
ZINC03809801
   50    52     0     0     0
SMALL
USER_CHARGES
6-oxo-5-(3-phenyl-2-sulfanyl-propanoyl)amino-2-thia-7-azabicyclo[5.4.0]undecane-8-carboxylic acid
@<TRIPOS>ATOM
      1 C1          6.8759   -5.1369    7.0450 C.ar      1 <0>        -0.1216
      2 C2          6.9527   -5.6352    5.7579 C.ar      1 <0>        -0.1238
      3 C3          6.5645   -4.8501    4.6884 C.ar      1 <0>        -0.0911
      4 C4          6.0995   -3.5666    4.9061 C.ar      1 <0>        -0.0814
      5 C5          6.0276   -3.0665    6.1928 C.ar      1 <0>        -0.1097
      6 C6          6.4104   -3.8536    7.2627 C.ar      1 <0>        -0.1215
      7 C7          5.6767   -2.7105    3.7402 C.3       1 <0>        -0.0653
      8 C8          4.1882   -2.9279    3.4611 C.3       1 <0>        -0.0517
      9 H1          3.6166   -2.7380    4.3696 H         1 <0>         0.1377
     10 C9          3.7371   -1.9832    2.3771 C.2       1 <0>         0.5380
     11 O1          4.4908   -1.6950    1.4716 O.2       1 <0>        -0.5347
     12 N1          2.4962   -1.4586    2.4138 N.am      1 <0>        -0.6870
     13 C10         2.0577   -0.5402    1.3600 C.3       1 <0>         0.1686
     14 H2          2.4714   -0.8816    0.4111 H         1 <0>         0.0984
     15 C11         0.5601   -0.5944    1.2737 C.3       1 <0>        -0.1353
     16 C12         0.0021   -0.0041    0.0020 C.3       1 <0>        -0.0855
     17 S1         -0.0222    1.7835    0.0118 S.3       1 <0>        -0.2575
     18 C13         1.7050    2.3161   -0.0018 C.3       1 <0>         0.1907
     19 H3          2.2019    1.7347   -0.7784 H         1 <0>         0.0688
     20 C14         1.7550    3.7667   -0.4660 C.3       1 <0>        -0.1033
     21 C15         3.0427    4.4370    0.0152 C.3       1 <0>        -0.1173
     22 C16         2.9590    4.4679    1.5467 C.3       1 <0>        -0.1019
     23 C17         3.0314    3.0544    2.0793 C.3       1 <0>         0.1045
     24 H4          4.0807    2.7885    2.2070 H         1 <0>         0.0827
     25 N2          2.3963    2.0383    1.2302 N.am      1 <0>        -0.5491
     26 C18         2.6006    0.7940    1.6525 C.2       1 <0>         0.4878
     27 O2          3.4626    0.7479    2.5045 O.2       1 <0>        -0.5301
     28 C19         2.3680    3.0254    3.4321 C.2       1 <0>         0.4715
     29 O3          1.4721    2.2441    3.6490 O.co2     1 <0>        -0.6235
     30 S2          3.9174   -4.6391    2.9232 S.3       1 <0>        -0.1984
     31 H5          7.1791   -5.7503    7.8806 H         1 <0>         0.1180
     32 H6          7.3164   -6.6378    5.5878 H         1 <0>         0.1188
     33 H7          6.6249   -5.2393    3.6828 H         1 <0>         0.1171
     34 H8          5.6684   -2.0622    6.3625 H         1 <0>         0.1246
     35 H9          6.3500   -3.4644    8.2683 H         1 <0>         0.1209
     36 H10         6.2556   -2.9857    2.8586 H         1 <0>         0.0807
     37 H11         5.8525   -1.6613    3.9773 H         1 <0>         0.0947
     38 H12         1.8934   -1.6891    3.1380 H         1 <0>         0.4079
     39 H13         0.1427   -0.0517    2.1218 H         1 <0>         0.0990
     40 H14         0.2450   -1.6357    1.3416 H         1 <0>         0.0899
     41 H15        -1.0161   -0.3678   -0.1362 H         1 <0>         0.1164
     42 H16         0.6096   -0.3419   -0.8375 H         1 <0>         0.0790
     43 H17         0.8965    4.3040   -0.0628 H         1 <0>         0.0803
     44 H18         1.7190    3.7952   -1.5550 H         1 <0>         0.0833
     45 H19         3.1067    5.4518   -0.3774 H         1 <0>         0.0752
     46 H20         3.9089    3.8558   -0.3013 H         1 <0>         0.0666
     47 H21         2.0165    4.9234    1.8505 H         1 <0>         0.0674
     48 H22         3.7901    5.0499    1.9450 H         1 <0>         0.0805
     49 H23         4.6635   -4.7520    1.8098 H         1 <0>         0.0899
     50 O4          2.7723    3.8673    4.3961 O.co2     1 <0>        -0.7695
@<TRIPOS>BOND
     1    1    6 ar
     2    1    2 ar
     3    1   31 1
     4    2    3 ar
     5    2   32 1
     6    3    4 ar
     7    3   33 1
     8    4    5 ar
     9    4    7 1
    10    5    6 ar
    11    5   34 1
    12    6   35 1
    13    7    8 1
    14    7   36 1
    15    7   37 1
    16    8    9 1
    17    8   10 1
    18    8   30 1
    19   10   11 2
    20   10   12 am
    21   12   13 1
    22   12   38 1
    23   13   14 1
    24   13   26 1
    25   13   15 1
    26   15   16 1
    27   15   39 1
    28   15   40 1
    29   16   17 1
    30   16   41 1
    31   16   42 1
    32   17   18 1
    33   18   19 1
    34   18   25 1
    35   18   20 1
    36   20   21 1
    37   20   43 1
    38   20   44 1
    39   21   22 1
    40   21   45 1
    41   21   46 1
    42   22   23 1
    43   22   47 1
    44   22   48 1
    45   23   24 1
    46   23   25 1
    47   23   28 1
    48   25   26 am
    49   26   27 2
    50   28   29 2
    51   28   50 1
    52   30   49 1
@<TRIPOS>MOLECULE
ZINC03979014
   62    62     0     0     0
SMALL
USER_CHARGES

@<TRIPOS>ATOM
      1 C1          3.2541    2.1779    2.6729 C.3       1 <0>        -0.1533
      2 C2          3.5223    0.6722    2.6297 C.3       1 <0>        -0.1245
      3 C3          2.1925   -0.0837    2.6626 C.3       1 <0>        -0.1167
      4 C4          2.4606   -1.5894    2.6195 C.3       1 <0>        -0.1220
      5 C5          1.1309   -2.3454    2.6523 C.3       1 <0>        -0.1012
      6 C6          1.3906   -3.8423    2.4715 C.3       1 <0>        -0.0906
      7 H1          1.9759   -4.0028    1.5661 H         1 <0>         0.1121
      8 C7          0.0559   -4.5810    2.3536 C.3       1 <0>        -0.1229
      9 C8         -0.6306   -4.1768    1.0744 C.2       1 <0>         0.5261
     10 O1         -0.0560   -3.4677    0.2757 O.2       1 <0>        -0.5085
     11 N1         -1.8830   -4.6035    0.8179 N.am      1 <0>        -0.5979
     12 O2         -2.5281   -4.2238   -0.3841 O.3       1 <0>        -0.3170
     13 C9          2.1519   -4.3674    3.6614 C.2       1 <0>         0.5240
     14 O3          2.4567   -3.6181    4.5650 O.2       1 <0>        -0.5188
     15 N2          2.4941   -5.6696    3.7213 N.am      1 <0>        -0.7120
     16 C10         3.2342   -6.1801    4.8780 C.3       1 <0>         0.1368
     17 H2          3.9252   -5.4157    5.2334 H         1 <0>         0.1131
     18 C11         2.2515   -6.5381    5.9947 C.3       1 <0>        -0.1069
     19 C12         1.4658   -5.2901    6.4022 C.3       1 <0>        -0.1379
     20 C13         1.2815   -7.6111    5.4959 C.3       1 <0>        -0.1463
     21 C14         4.0080   -7.4094    4.4766 C.2       1 <0>         0.5325
     22 O4          3.9473   -7.8188    3.3366 O.2       1 <0>        -0.5380
     23 N3          4.7676   -8.0538    5.3845 N.am      1 <0>        -0.6013
     24 C15         4.9262   -7.6706    6.7992 C.3       1 <0>         0.0968
     25 C16         6.2883   -8.2744    7.2233 C.3       1 <0>        -0.1335
     26 C17         6.2883   -9.6182    6.4476 C.3       1 <0>        -0.1268
     27 C18         5.5701   -9.2590    5.1296 C.3       1 <0>         0.1392
     28 H3          6.3063   -9.0564    4.3518 H         1 <0>         0.0890
     29 C19         4.6583  -10.4101    4.7002 C.3       1 <0>         0.0623
     30 O5          3.7918  -10.7602    5.7813 O.3       1 <0>        -0.5666
     31 H4          2.7180    2.4254    3.5891 H         1 <0>         0.0527
     32 H5          4.2015    2.7165    2.6495 H         1 <0>         0.0520
     33 H6          2.6518    2.4646    1.8108 H         1 <0>         0.0528
     34 H7          4.0583    0.4248    1.7135 H         1 <0>         0.0590
     35 H8          4.1246    0.3856    3.4918 H         1 <0>         0.0600
     36 H9          1.6564    0.1637    3.5789 H         1 <0>         0.0596
     37 H10         1.5902    0.2029    1.8006 H         1 <0>         0.0585
     38 H11         2.9967   -1.8369    1.7032 H         1 <0>         0.0556
     39 H12         3.0630   -1.8761    3.4815 H         1 <0>         0.0786
     40 H13         0.6396   -2.1750    3.6103 H         1 <0>         0.0680
     41 H14         0.4897   -1.9880    1.8466 H         1 <0>         0.0795
     42 H15         0.2351   -5.6561    2.3458 H         1 <0>         0.1035
     43 H16        -0.5776   -4.3244    3.2027 H         1 <0>         0.1055
     44 H17        -2.3426   -5.1707    1.4566 H         1 <0>         0.4082
     45 H18        -3.4228   -4.5780   -0.4792 H         1 <0>         0.3886
     46 H19         2.2503   -6.2689    2.9986 H         1 <0>         0.4080
     47 H20         2.8021   -6.9179    6.8553 H         1 <0>         0.0882
     48 H21         0.7657   -5.5451    7.1978 H         1 <0>         0.0518
     49 H22         2.1568   -4.5257    6.7576 H         1 <0>         0.0658
     50 H23         0.9152   -4.9103    5.5416 H         1 <0>         0.0555
     51 H24         1.8412   -8.5002    5.2056 H         1 <0>         0.0560
     52 H25         0.5814   -7.8661    6.2915 H         1 <0>         0.0598
     53 H26         0.7308   -7.2313    4.6353 H         1 <0>         0.0542
     54 H27         4.9450   -6.5853    6.8985 H         1 <0>         0.0785
     55 H28         4.1205   -8.0934    7.3994 H         1 <0>         0.0793
     56 H29         7.1140   -7.6388    6.9035 H         1 <0>         0.0768
     57 H30         6.3222   -8.4445    8.2994 H         1 <0>         0.0878
     58 H31         7.3078   -9.9524    6.2553 H         1 <0>         0.0815
     59 H32         5.7286  -10.3782    6.9928 H         1 <0>         0.0913
     60 H33         4.0618  -10.1004    3.8421 H         1 <0>         0.0611
     61 H34         5.2662  -11.2729    4.4278 H         1 <0>         0.0544
     62 H35         3.1843  -11.4850    5.5795 H         1 <0>         0.3790
@<TRIPOS>BOND
     1    1    2 1
     2    1   31 1
     3    1   32 1
     4    1   33 1
     5    2    3 1
     6    2   34 1
     7    2   35 1
     8    3    4 1
     9    3   36 1
    10    3   37 1
    11    4    5 1
    12    4   38 1
    13    4   39 1
    14    5    6 1
    15    5   40 1
    16    5   41 1
    17    6    7 1
    18    6    8 1
    19    6   13 1
    20    8    9 1
    21    8   42 1
    22    8   43 1
    23    9   10 2
    24    9   11 am
    25   11   12 1
    26   11   44 1
    27   12   45 1
    28   13   14 2
    29   13   15 am
    30   15   16 1
    31   15   46 1
    32   16   17 1
    33   16   18 1
    34   16   21 1
    35   18   19 1
    36   18   20 1
    37   18   47 1
    38   19   48 1
    39   19   49 1
    40   19   50 1
    41   20   51 1
    42   20   52 1
    43   20   53 1
    44   21   22 2
    45   21   23 am
    46   23   27 1
    47   23   24 1
    48   24   25 1
    49   24   54 1
    50   24   55 1
    51   25   26 1
    52   25   56 1
    53   25   57 1
    54   26   27 1
    55   26   58 1
    56   26   59 1
    57   27   28 1
    58   27   29 1
    59   29   30 1
    60   29   60 1
    61   29   61 1
    62   30   62 1
@<TRIPOS>MOLECULE
ZINC03774999
   77    80     0     0     0
SMALL
USER_CHARGES
4-[1-[2-indan-5-yloxycarbonyl-3-(2-methoxyethoxy)propyl]cyclopentyl]carbonylaminocyclohexane-1-carboxylic acid
@<TRIPOS>ATOM
      1 C1         -4.2710    6.2543   -3.7878 C.3       1 <0>         0.0318
      2 O1         -2.8493    6.3423   -3.6731 O.3       1 <0>        -0.3787
      3 C2         -2.3588    7.6774   -3.5359 C.3       1 <0>         0.0643
      4 C3         -0.8333    7.6511   -3.4218 C.3       1 <0>         0.0645
      5 O2         -0.2726    7.1661   -4.6435 O.3       1 <0>        -0.3624
      6 C4          1.1550    7.1017   -4.6426 C.3       1 <0>         0.0500
      7 C5          1.6424    6.5717   -5.9926 C.3       1 <0>        -0.0780
      8 H1          1.2284    5.5780   -6.1637 H         1 <0>         0.1204
      9 C6          3.1704    6.4938   -5.9883 C.3       1 <0>        -0.0908
     10 C7          3.6217    5.3806   -5.0406 C.3       1 <0>        -0.0849
     11 C8          5.1611    5.2168   -5.0908 C.3       1 <0>        -0.1115
     12 C9          5.4758    4.5557   -3.7220 C.3       1 <0>        -0.1239
     13 C10         4.5055    5.2410   -2.7378 C.3       1 <0>        -0.1213
     14 C11         3.3266    5.7655   -3.5762 C.3       1 <0>        -0.1168
     15 C12         2.9415    4.0825   -5.3921 C.2       1 <0>         0.5261
     16 O3          2.1683    3.5718   -4.6096 O.2       1 <0>        -0.5363
     17 N1          3.1923    3.4892   -6.5759 N.am      1 <0>        -0.7158
     18 C13         2.6183    2.1744   -6.8725 C.3       1 <0>         0.1498
     19 C14         3.4874    1.4608   -7.9100 C.3       1 <0>        -0.1278
     20 C15         3.5405    2.2949   -9.1915 C.3       1 <0>        -0.0946
     21 C16         2.1250    2.4696   -9.7453 C.3       1 <0>        -0.1280
     22 C17         1.2559    3.1832   -8.7079 C.3       1 <0>        -0.0898
     23 C18         1.2028    2.3491   -7.4264 C.3       1 <0>        -0.1297
     24 C19         2.1773    3.2912  -11.0075 C.2       1 <0>         0.4640
     25 O4          3.2379    3.6956  -11.4217 O.co2     1 <0>        -0.6421
     26 C20         1.1898    7.5002   -7.0898 C.2       1 <0>         0.4690
     27 O5          2.0057    8.0439   -7.7960 O.2       1 <0>        -0.4877
     28 O6         -0.1200    7.7234   -7.2828 O.3       1 <0>        -0.2695
     29 C21        -0.4650    8.4847   -8.3546 C.ar      1 <0>         0.0866
     30 C22        -0.8705    9.7991   -8.1727 C.ar      1 <0>        -0.1211
     31 C23        -1.2193   10.5683   -9.2641 C.ar      1 <0>        -0.0985
     32 C24        -1.1664   10.0339  -10.5413 C.ar      1 <0>        -0.1020
     33 C25        -0.7626    8.7244  -10.7251 C.ar      1 <0>        -0.0720
     34 C26        -0.4071    7.9520   -9.6328 C.ar      1 <0>        -0.1046
     35 C27        -0.7891    8.3829  -12.1996 C.3       1 <0>        -0.0885
     36 C28        -0.8289    9.7428  -12.9285 C.3       1 <0>        -0.1194
     37 C29        -1.4917   10.6613  -11.8800 C.3       1 <0>        -0.0787
     38 H2         -4.5997    6.8096   -4.6662 H         1 <0>         0.0415
     39 H3         -4.5634    5.2090   -3.8883 H         1 <0>         0.0858
     40 H4         -4.7343    6.6771   -2.8963 H         1 <0>         0.0369
     41 H5         -2.7824    8.1298   -2.6392 H         1 <0>         0.0603
     42 H6         -2.6478    8.2623   -4.4091 H         1 <0>         0.0586
     43 H7         -0.5415    6.9945   -2.6022 H         1 <0>         0.0578
     44 H8         -0.4659    8.6590   -3.2284 H         1 <0>         0.0606
     45 H9          1.4880    6.4336   -3.8483 H         1 <0>         0.0926
     46 H10         1.5635    8.0981   -4.4745 H         1 <0>         0.0509
     47 H11         3.5818    7.4457   -5.6525 H         1 <0>         0.0888
     48 H12         3.5261    6.2795   -6.9961 H         1 <0>         0.0915
     49 H13         5.4536    4.5648   -5.9139 H         1 <0>         0.0746
     50 H14         5.6503    6.1874   -5.1728 H         1 <0>         0.0821
     51 H15         6.5095    4.7478   -3.4346 H         1 <0>         0.0678
     52 H16         5.2848    3.4833   -3.7615 H         1 <0>         0.0655
     53 H17         5.0055    6.0701   -2.2369 H         1 <0>         0.0634
     54 H18         4.1489    4.5201   -2.0021 H         1 <0>         0.0651
     55 H19         3.2545    6.8491   -3.4822 H         1 <0>         0.0724
     56 H20         2.3979    5.2992   -3.2474 H         1 <0>         0.0929
     57 H21         3.7529    3.9328   -7.2316 H         1 <0>         0.4017
     58 H22         2.5805    1.5801   -5.9596 H         1 <0>         0.0820
     59 H23         3.0603    0.4825   -8.1306 H         1 <0>         0.0743
     60 H24         4.4958    1.3363   -7.5154 H         1 <0>         0.0620
     61 H25         4.1597    1.7865   -9.9306 H         1 <0>         0.0637
     62 H26         3.9676    3.2732   -8.9708 H         1 <0>         0.0561
     63 H27         1.6979    1.4913   -9.9660 H         1 <0>         0.0671
     64 H28         1.6830    4.1615   -8.4872 H         1 <0>         0.0476
     65 H29         0.2474    3.3076   -9.1024 H         1 <0>         0.0663
     66 H30         0.7757    1.3708   -7.6470 H         1 <0>         0.0681
     67 H31         0.5836    2.8575   -6.6873 H         1 <0>         0.0640
     68 H32        -0.9135   10.2193   -7.1787 H         1 <0>         0.1276
     69 H33        -1.5353   11.5912   -9.1220 H         1 <0>         0.1248
     70 H34        -0.0874    6.9305   -9.7766 H         1 <0>         0.1318
     71 H35         0.1095    7.8316  -12.4764 H         1 <0>         0.0854
     72 H36        -1.6793    7.8004  -12.4370 H         1 <0>         0.0846
     73 H37         0.1786   10.0863  -13.1629 H         1 <0>         0.0728
     74 H38        -1.4382    9.6814  -13.8302 H         1 <0>         0.0771
     75 H39        -2.5707   10.6912  -12.0315 H         1 <0>         0.0794
     76 H40        -1.0728   11.6659  -11.9386 H         1 <0>         0.0734
     77 O7          1.0456    3.5738  -11.6718 O.co2     1 <0>        -0.7708
@<TRIPOS>BOND
     1    1    2 1
     2    1   38 1
     3    1   39 1
     4    1   40 1
     5    2    3 1
     6    3    4 1
     7    3   41 1
     8    3   42 1
     9    4    5 1
    10    4   43 1
    11    4   44 1
    12    5    6 1
    13    6    7 1
    14    6   45 1
    15    6   46 1
    16    7    8 1
    17    7    9 1
    18    7   26 1
    19    9   10 1
    20    9   47 1
    21    9   48 1
    22   10   14 1
    23   10   11 1
    24   10   15 1
    25   11   12 1
    26   11   49 1
    27   11   50 1
    28   12   13 1
    29   12   51 1
    30   12   52 1
    31   13   14 1
    32   13   53 1
    33   13   54 1
    34   14   55 1
    35   14   56 1
    36   15   16 2
    37   15   17 am
    38   17   18 1
    39   17   57 1
    40   18   23 1
    41   18   19 1
    42   18   58 1
    43   19   20 1
    44   19   59 1
    45   19   60 1
    46   20   21 1
    47   20   61 1
    48   20   62 1
    49   21   22 1
    50   21   24 1
    51   21   63 1
    52   22   23 1
    53   22   64 1
    54   22   65 1
    55   23   66 1
    56   23   67 1
    57   24   25 2
    58   24   77 1
    59   26   27 2
    60   26   28 1
    61   28   29 1
    62   29   34 ar
    63   29   30 ar
    64   30   31 ar
    65   30   68 1
    66   31   32 ar
    67   31   69 1
    68   32   37 1
    69   32   33 ar
    70   33   34 ar
    71   33   35 1
    72   34   70 1
    73   35   36 1
    74   35   71 1
    75   35   72 1
    76   36   37 1
    77   36   73 1
    78   36   74 1
    79   37   75 1
    80   37   76 1
@<TRIPOS>MOLECULE
ZINC03775000
   59    60     0     0     0
SMALL
USER_CHARGES
4-[1-[2-carboxy-3-(2-methoxyethoxy)propyl]cyclopentyl]carbonylaminocyclohexane-1-carboxylic acid
@<TRIPOS>ATOM
      1 C1         -4.5499    6.9296   -4.1513 C.3       1 <0>         0.0334
      2 O1         -3.1315    6.9793   -3.9850 O.3       1 <0>        -0.3779
      3 C2         -2.5850    8.2983   -4.0456 C.3       1 <0>         0.0700
      4 C3         -1.0683    8.2311   -3.8562 C.3       1 <0>         0.0601
      5 O2         -0.4819    7.5283   -4.9536 O.3       1 <0>        -0.3364
      6 C4          0.9399    7.4086   -4.8741 C.3       1 <0>         0.0743
      7 C5          1.4562    6.6430   -6.0940 C.3       1 <0>        -0.1298
      8 H1          1.0363    5.6372   -6.0962 H         1 <0>         0.0773
      9 C6          2.9827    6.5583   -6.0344 C.3       1 <0>        -0.0778
     10 C7          3.3983    5.6567   -4.8703 C.3       1 <0>        -0.0894
     11 C8          2.7261    4.2668   -4.9943 C.3       1 <0>        -0.0968
     12 C9          3.6757    3.3569   -4.1696 C.3       1 <0>        -0.1220
     13 C10         5.0865    3.8938   -4.4877 C.3       1 <0>        -0.1211
     14 C11         4.9101    5.3561   -4.9332 C.3       1 <0>        -0.1144
     15 C12         3.0426    6.2990   -3.5542 C.2       1 <0>         0.5432
     16 O3          2.3669    5.6956   -2.7479 O.2       1 <0>        -0.5497
     17 N1          3.4755    7.5441   -3.2733 N.am      1 <0>        -0.7208
     18 C13         3.0400    8.2110   -2.0437 C.3       1 <0>         0.1499
     19 C14         3.1186    9.7275   -2.2307 C.3       1 <0>        -0.1291
     20 C15         4.5612   10.1285   -2.5450 C.3       1 <0>        -0.0949
     21 C16         5.4706    9.7096   -1.3881 C.3       1 <0>        -0.1258
     22 C17         5.3920    8.1931   -1.2011 C.3       1 <0>        -0.0903
     23 C18         3.9494    7.7920   -0.8868 C.3       1 <0>        -0.1255
     24 C19         6.8916   10.1046   -1.6976 C.2       1 <0>         0.4651
     25 O4          7.1504   10.6638   -2.7369 O.co2     1 <0>        -0.6401
     26 C20         1.0418    7.3631   -7.3513 C.2       1 <0>         0.4686
     27 O5          1.8785    7.7211   -8.1462 O.co2     1 <0>        -0.6507
     28 H2         -4.8866    5.8946   -4.0927 H         1 <0>         0.0797
     29 H3         -5.0286    7.5125   -3.3645 H         1 <0>         0.0319
     30 H4         -4.8164    7.3439   -5.1237 H         1 <0>         0.0397
     31 H5         -3.0229    8.9096   -3.2565 H         1 <0>         0.0521
     32 H6         -2.8108    8.7409   -5.0157 H         1 <0>         0.0609
     33 H7         -0.8409    7.7087   -2.9270 H         1 <0>         0.0448
     34 H8         -0.6623    9.2418   -3.8135 H         1 <0>         0.0524
     35 H9          1.2089    6.8691   -3.9660 H         1 <0>         0.0554
     36 H10         1.3875    8.4022   -4.8525 H         1 <0>         0.0321
     37 H11         3.3965    7.5559   -5.8870 H         1 <0>         0.0633
     38 H12         3.3603    6.1427   -6.9686 H         1 <0>         0.0821
     39 H13         1.7266    4.2809   -4.5596 H         1 <0>         0.0782
     40 H14         2.6912    3.9461   -6.0354 H         1 <0>         0.0717
     41 H15         3.5816    2.3189   -4.4889 H         1 <0>         0.0576
     42 H16         3.4641    3.4479   -3.1042 H         1 <0>         0.0703
     43 H17         5.5357    3.3103   -5.2913 H         1 <0>         0.0606
     44 H18         5.7131    3.8479   -3.5970 H         1 <0>         0.0592
     45 H19         5.2737    5.4821   -5.9530 H         1 <0>         0.0768
     46 H20         5.4512    6.0197   -4.2587 H         1 <0>         0.0672
     47 H21         4.0753    7.9986   -3.8853 H         1 <0>         0.4024
     48 H22         2.0122    7.9253   -1.8199 H         1 <0>         0.0782
     49 H23         2.7946   10.2236   -1.3159 H         1 <0>         0.0708
     50 H24         2.4707   10.0260   -3.0550 H         1 <0>         0.0640
     51 H25         4.6172   11.2089   -2.6782 H         1 <0>         0.0621
     52 H26         4.8852    9.6324   -3.4598 H         1 <0>         0.0599
     53 H27         5.1466   10.2057   -0.4732 H         1 <0>         0.0647
     54 H28         5.7160    7.6969   -2.1159 H         1 <0>         0.0534
     55 H29         6.0399    7.8946   -0.3769 H         1 <0>         0.0630
     56 H30         3.6254    8.2882    0.0280 H         1 <0>         0.0630
     57 H31         3.8934    6.7116   -0.7536 H         1 <0>         0.0621
     58 O6          7.8697    9.8352   -0.8187 O.co2     1 <0>        -0.7787
     59 O7         -0.2567    7.6069   -7.5882 O.co2     1 <0>        -0.7501
@<TRIPOS>BOND
     1    1    2 1
     2    1   28 1
     3    1   29 1
     4    1   30 1
     5    2    3 1
     6    3    4 1
     7    3   31 1
     8    3   32 1
     9    4    5 1
    10    4   33 1
    11    4   34 1
    12    5    6 1
    13    6    7 1
    14    6   35 1
    15    6   36 1
    16    7    8 1
    17    7    9 1
    18    7   26 1
    19    9   10 1
    20    9   37 1
    21    9   38 1
    22   10   14 1
    23   10   11 1
    24   10   15 1
    25   11   12 1
    26   11   39 1
    27   11   40 1
    28   12   13 1
    29   12   41 1
    30   12   42 1
    31   13   14 1
    32   13   43 1
    33   13   44 1
    34   14   45 1
    35   14   46 1
    36   15   16 2
    37   15   17 am
    38   17   18 1
    39   17   47 1
    40   18   23 1
    41   18   19 1
    42   18   48 1
    43   19   20 1
    44   19   49 1
    45   19   50 1
    46   20   21 1
    47   20   51 1
    48   20   52 1
    49   21   22 1
    50   21   24 1
    51   21   53 1
    52   22   23 1
    53   22   54 1
    54   22   55 1
    55   23   56 1
    56   23   57 1
    57   24   25 2
    58   24   58 1
    59   26   27 2
    60   26   59 1
@<TRIPOS>MOLECULE
ZINC06020153
   38    38     0     0     0
SMALL
USER_CHARGES
(2S)-2-[[(2R)-2-benzyl-4-(hydroxyamino)-4-oxo-butanoyl]amino]propanoic acid
@<TRIPOS>ATOM
      1 C1         -5.6720    7.8357   -1.6245 C.3       1 <0>        -0.1338
      2 C2         -6.0443    6.4031   -2.0117 C.3       1 <0>         0.1040
      3 H1         -6.6185    5.9140   -1.2110 H         1 <0>         0.0838
      4 C3         -6.8536    6.4205   -3.2828 C.2       1 <0>         0.4649
      5 O1         -6.4519    5.8391   -4.2628 O.co2     1 <0>        -0.6384
      6 O2         -8.0209    7.0818   -3.3262 O.co2     1 <0>        -0.7584
      7 N1         -4.8234    5.6209   -2.2209 N.am      1 <0>        -0.7175
      8 C4         -4.2073    5.0399   -1.1723 C.2       1 <0>         0.5189
      9 O3         -4.6637    5.1647   -0.0556 O.2       1 <0>        -0.5385
     10 C5         -2.9515    4.2353   -1.3874 C.3       1 <0>        -0.0834
     11 H2         -3.1797    3.4024   -2.0688 H         1 <0>         0.1062
     12 C6         -2.4592    3.6897   -0.0454 C.3       1 <0>        -0.0736
     13 C7         -1.2751    2.7861   -0.2745 C.ar      1 <0>        -0.0718
     14 C8         -1.4698    1.4379   -0.5101 C.ar      1 <0>        -0.1160
     15 C9         -0.3833    0.6082   -0.7153 C.ar      1 <0>        -0.1173
     16 C10         0.8972    1.1284   -0.6954 C.ar      1 <0>        -0.1296
     17 C11         1.0916    2.4775   -0.4650 C.ar      1 <0>        -0.1195
     18 C12         0.0055    3.3063   -0.2546 C.ar      1 <0>        -0.1204
     19 C13        -1.8721    5.1290   -2.0015 C.3       1 <0>        -0.1256
     20 C14        -1.6481    6.3272   -1.1155 C.2       1 <0>         0.5145
     21 O4         -2.3492    6.5004   -0.1411 O.2       1 <0>        -0.4901
     22 N2         -0.6687    7.2064   -1.4059 N.am      1 <0>        -0.6046
     23 O5         -0.4583    8.3323   -0.5734 O.3       1 <0>        -0.3500
     24 H3         -5.0813    7.8230   -0.6967 H         1 <0>         0.0511
     25 H4         -6.5887    8.4231   -1.4675 H         1 <0>         0.0667
     26 H5         -5.0784    8.2910   -2.4309 H         1 <0>         0.0425
     27 H6         -4.4095    5.5077   -3.2338 H         1 <0>         0.4158
     28 H7         -2.1618    4.5265    0.6037 H         1 <0>         0.0970
     29 H8         -3.2670    3.1203    0.4375 H         1 <0>         0.0838
     30 H9         -2.4705    1.0322   -0.5301 H         1 <0>         0.1234
     31 H10        -0.5353   -0.4458   -0.8956 H         1 <0>         0.1200
     32 H11         1.7457    0.4810   -0.8602 H         1 <0>         0.1179
     33 H12         2.0921    2.8841   -0.4498 H         1 <0>         0.1183
     34 H13         0.1573    4.3604   -0.0749 H         1 <0>         0.1169
     35 H14        -0.9347    4.5610   -2.0940 H         1 <0>         0.1064
     36 H15        -2.1970    5.4649   -2.9973 H         1 <0>         0.1059
     37 H16        -0.0328    7.0493   -2.2896 H         1 <0>         0.4198
     38 H17         0.3410    9.0499   -0.8104 H         1 <0>         0.4107
@<TRIPOS>BOND
     1    1    2 1
     2    1   24 1
     3    1   25 1
     4    1   26 1
     5    2    3 1
     6    2    4 1
     7    2    7 1
     8    4    5 2
     9    4    6 1
    10    7    8 am
    11    7   27 1
    12    8    9 2
    13    8   10 1
    14   10   11 1
    15   10   12 1
    16   10   19 1
    17   12   13 1
    18   12   28 1
    19   12   29 1
    20   13   18 ar
    21   13   14 ar
    22   14   15 ar
    23   14   30 1
    24   15   16 ar
    25   15   31 1
    26   16   17 ar
    27   16   32 1
    28   17   18 ar
    29   17   33 1
    30   18   34 1
    31   19   20 1
    32   19   35 1
    33   19   36 1
    34   20   21 2
    35   20   22 am
    36   22   23 1
    37   22   37 1
    38   23   38 1
