@<TRIPOS>MOLECULE
ZINC49070819
   53    55     0     0     0
SMALL
USER_CHARGES

@<TRIPOS>ATOM
      1 C1         -0.0187    1.5258    0.0104 C.3       1 <0>        -0.1607
      2 C2          0.0021   -0.0041    0.0020 C.3       1 <0>        -0.1144
      3 C3          0.7421   -0.5109    1.2415 C.3       1 <0>        -0.0618
      4 C4          2.1775    0.0187    1.2307 C.3       1 <0>        -0.1556
      5 C5          0.0259   -0.0175    2.5003 C.3       1 <0>        -0.1534
      6 C6          0.7628   -2.0407    1.2331 C.3       1 <0>        -0.0574
      7 C7          1.4917   -2.5400    2.4540 C.2       1 <0>         0.0768
      8 C8          2.8227   -2.6959    2.5865 C.2       1 <0>        -0.0017
      9 N1          3.0652   -3.1605    3.8211 N.pl3     1 <0>        -0.4694
     10 C9          1.9350   -3.2985    4.4588 C.cat     1 <0>         0.3253
     11 N2          0.9285   -2.9165    3.6434 N.pl3     1 <0>        -0.5070
     12 H1         -0.0171   -2.9118    3.8596 H         1 <0>         0.4620
     13 C10         1.7793   -3.7962    5.8726 C.3       1 <0>        -0.0731
     14 C11         1.8364   -2.6118    6.8395 C.3       1 <0>        -0.0756
     15 C12         1.6806   -3.1095    8.2534 C.ar      1 <0>        -0.0971
     16 C13         0.4195   -3.2148    8.8118 C.ar      1 <0>        -0.1143
     17 C14         0.2709   -3.6701   10.1062 C.ar      1 <0>        -0.0765
     18 C15         1.3945   -4.0240   10.8508 C.ar      1 <0>        -0.0321
     19 C16         2.6626   -3.9158   10.2831 C.ar      1 <0>        -0.0983
     20 C17         2.7989   -3.4648    8.9859 C.ar      1 <0>        -0.1125
     21 C18         1.2412   -4.5135   12.2428 C.ar      1 <0>         0.1528
     22 C19         2.3706   -4.8596   12.9817 C.ar      1 <0>        -0.1605
     23 C20         2.2118   -5.3147   14.2791 C.ar      1 <0>        -0.0708
     24 C21         0.9270   -5.4088   14.7955 C.ar      1 <0>        -0.1664
     25 C22        -0.1491   -5.0483   14.0061 C.ar      1 <0>         0.1070
     26 N3          0.0304   -4.6129   12.7755 N.ar      1 <0>        -0.4776
     27 H2          1.0039    1.9031    0.0027 H         1 <0>         0.0599
     28 H3         -0.5459    1.8868   -0.8726 H         1 <0>         0.0609
     29 H4         -0.5289    1.8773    0.9072 H         1 <0>         0.0584
     30 H5         -1.0205   -0.3814    0.0098 H         1 <0>         0.0679
     31 H6          0.5123   -0.3556   -0.8948 H         1 <0>         0.0704
     32 H7          2.1627    1.1086    1.2367 H         1 <0>         0.0716
     33 H8          2.7046   -0.3424    2.1137 H         1 <0>         0.0500
     34 H9          2.6876   -0.3328    0.3339 H         1 <0>         0.0652
     35 H10        -0.9967   -0.3948    2.5081 H         1 <0>         0.0610
     36 H11         0.5531   -0.3786    3.3834 H         1 <0>         0.0428
     37 H12         0.0111    1.0724    2.5063 H         1 <0>         0.0743
     38 H13        -0.2598   -2.4180    1.2409 H         1 <0>         0.0982
     39 H14         1.2730   -2.3923    0.3363 H         1 <0>         0.1149
     40 H15         3.5649   -2.4839    1.8311 H         1 <0>         0.2239
     41 H16         0.8200   -4.3034    5.9757 H         1 <0>         0.1251
     42 H17         2.5852   -4.4928    6.1035 H         1 <0>         0.1256
     43 H18         2.7956   -2.1046    6.7365 H         1 <0>         0.0859
     44 H19         1.0304   -1.9152    6.6087 H         1 <0>         0.0861
     45 H20        -0.4505   -2.9400    8.2339 H         1 <0>         0.1264
     46 H21        -0.7142   -3.7516   10.5413 H         1 <0>         0.1401
     47 H22         3.5367   -4.1887   10.8557 H         1 <0>         0.1317
     48 H23         3.7808   -3.3851    8.5433 H         1 <0>         0.1271
     49 H24         3.3560   -4.7744   12.5481 H         1 <0>         0.1373
     50 H25         3.0684   -5.5908   14.8761 H         1 <0>         0.1404
     51 H26         0.7694   -5.7607   15.8044 H         1 <0>         0.1410
     52 H27        -1.1502   -5.1204   14.4049 H         1 <0>         0.1623
     53 H28         3.9423   -3.3625    4.1829 H         1 <0>         0.4641
@<TRIPOS>BOND
     1    1    2 1
     2    1   27 1
     3    1   28 1
     4    1   29 1
     5    2    3 1
     6    2   30 1
     7    2   31 1
     8    3    4 1
     9    3    5 1
    10    3    6 1
    11    4   32 1
    12    4   33 1
    13    4   34 1
    14    5   35 1
    15    5   36 1
    16    5   37 1
    17    6    7 1
    18    6   38 1
    19    6   39 1
    20    7   11 1
    21    7    8 2
    22    8    9 1
    23    8   40 1
    24    9   10 2
    25    9   53 1
    26   10   11 1
    27   10   13 1
    28   11   12 1
    29   13   14 1
    30   13   41 1
    31   13   42 1
    32   14   15 1
    33   14   43 1
    34   14   44 1
    35   15   20 ar
    36   15   16 ar
    37   16   17 ar
    38   16   45 1
    39   17   18 ar
    40   17   46 1
    41   18   19 ar
    42   18   21 1
    43   19   20 ar
    44   19   47 1
    45   20   48 1
    46   21   26 ar
    47   21   22 ar
    48   22   23 ar
    49   22   49 1
    50   23   24 ar
    51   23   50 1
    52   24   25 ar
    53   24   51 1
    54   25   26 ar
    55   25   52 1
@<TRIPOS>MOLECULE
ZINC09804746
   60    63     0     0     0
SMALL
USER_CHARGES
benzyl [2-(1H-indol-3-yl)-1-(phenethylcarbamoyl)ethyl]aminoformate
@<TRIPOS>ATOM
      1 C1         -6.1671    2.7561    0.0463 C.ar      1 <0>        -0.1200
      2 C2         -5.5696    2.4251   -1.1555 C.ar      1 <0>        -0.1180
      3 C3         -4.3630    1.7507   -1.1649 C.ar      1 <0>        -0.1137
      4 C4         -3.7541    1.4067    0.0275 C.ar      1 <0>        -0.0857
      5 C5         -4.3544    1.7327    1.2293 C.ar      1 <0>        -0.1134
      6 C6         -5.5584    2.4118    1.2387 C.ar      1 <0>        -0.1180
      7 C7         -2.4389    0.6711    0.0173 C.3       1 <0>        -0.0914
      8 C8         -1.2896    1.6810    0.0173 C.3       1 <0>         0.1244
      9 N1         -0.0111    0.9658    0.0074 N.am      1 <0>        -0.7252
     10 C9          1.1468    1.6555   -0.0000 C.2       1 <0>         0.5118
     11 O1          1.1304    2.8682    0.0067 O.2       1 <0>        -0.5268
     12 C10         2.4620    0.9199   -0.0165 C.3       1 <0>         0.1554
     13 H1          2.5197    0.2988   -0.9104 H         1 <0>         0.1181
     14 C11         2.5669    0.0347    1.2271 C.3       1 <0>        -0.0516
     15 C12         3.8242   -0.7925    1.1502 C.2       1 <0>        -0.1637
     16 C13         3.9272   -2.0472    0.6845 C.2       1 <0>         0.0690
     17 N2          5.2251   -2.4719    0.7708 N.pl3     1 <0>        -0.5913
     18 H2          5.5453   -3.3451    0.4952 H         1 <0>         0.4140
     19 C14         6.0089   -1.4754    1.3080 C.ar      1 <0>         0.1049
     20 C15         5.1668   -0.3775    1.5638 C.ar      1 <0>        -0.0788
     21 C16         5.6952    0.7927    2.1114 C.ar      1 <0>        -0.0770
     22 C17         7.0303    0.8673    2.3935 C.ar      1 <0>        -0.1443
     23 C18         7.8657   -0.2116    2.1399 C.ar      1 <0>        -0.1056
     24 C19         7.3639   -1.3789    1.6066 C.ar      1 <0>        -0.1297
     25 N3          3.5624    1.8869   -0.0218 N.am      1 <0>        -0.6956
     26 C20         4.7621    1.5398   -0.5285 C.2       1 <0>         0.6573
     27 O2          4.9310    0.4248   -0.9808 O.2       1 <0>        -0.5545
     28 O3          5.7735    2.4286   -0.5333 O.3       1 <0>        -0.3609
     29 C21         7.0373    1.9859   -1.0946 C.3       1 <0>         0.1356
     30 C22         8.0422    3.1061   -1.0147 C.ar      1 <0>        -0.0975
     31 C23         8.1628    4.0023   -2.0602 C.ar      1 <0>        -0.0948
     32 C24         9.0812    5.0327   -1.9848 C.ar      1 <0>        -0.1239
     33 C25         9.8861    5.1609   -0.8683 C.ar      1 <0>        -0.1085
     34 C26         9.7695    4.2612    0.1747 C.ar      1 <0>        -0.1243
     35 C27         8.8475    3.2340    0.1016 C.ar      1 <0>        -0.0911
     36 H3         -7.1096    3.2833    0.0536 H         1 <0>         0.1223
     37 H4         -6.0453    2.6938   -2.0872 H         1 <0>         0.1230
     38 H5         -3.8962    1.4921   -2.1039 H         1 <0>         0.1222
     39 H6         -3.8809    1.4601    2.1609 H         1 <0>         0.1226
     40 H7         -6.0254    2.6700    2.1777 H         1 <0>         0.1231
     41 H8         -2.3769    0.0501   -0.8764 H         1 <0>         0.0809
     42 H9         -2.3685    0.0404    0.9035 H         1 <0>         0.0815
     43 H10        -1.3516    2.3020    0.9110 H         1 <0>         0.0733
     44 H11        -1.3601    2.3116   -0.8689 H         1 <0>         0.0721
     45 H12         0.0021   -0.0041    0.0020 H         1 <0>         0.4035
     46 H13         2.5985    0.6620    2.1179 H         1 <0>         0.0809
     47 H14         1.7005   -0.6248    1.2777 H         1 <0>         0.0851
     48 H15         3.1071   -2.6347    0.2990 H         1 <0>         0.1647
     49 H16         5.0512    1.6364    2.3111 H         1 <0>         0.1134
     50 H17         7.4385    1.7728    2.8175 H         1 <0>         0.1181
     51 H18         8.9187   -0.1376    2.3682 H         1 <0>         0.1217
     52 H19         8.0224   -2.2123    1.4112 H         1 <0>         0.1160
     53 H20         3.4276    2.7771    0.3393 H         1 <0>         0.4133
     54 H21         7.4042    1.1278   -0.5315 H         1 <0>         0.0805
     55 H22         6.8923    1.7015   -2.1368 H         1 <0>         0.0736
     56 H23         7.5368    3.8998   -2.9343 H         1 <0>         0.1230
     57 H24         9.1725    5.7354   -2.7999 H         1 <0>         0.1249
     58 H25        10.6063    5.9637   -0.8111 H         1 <0>         0.1239
     59 H26        10.3986    4.3612    1.0469 H         1 <0>         0.1251
     60 H27         8.7564    2.5311    0.9165 H         1 <0>         0.1260
@<TRIPOS>BOND
     1    1    6 ar
     2    1    2 ar
     3    1   36 1
     4    2    3 ar
     5    2   37 1
     6    3    4 ar
     7    3   38 1
     8    4    5 ar
     9    4    7 1
    10    5    6 ar
    11    5   39 1
    12    6   40 1
    13    7    8 1
    14    7   41 1
    15    7   42 1
    16    8    9 1
    17    8   43 1
    18    8   44 1
    19    9   10 am
    20    9   45 1
    21   10   11 2
    22   10   12 1
    23   12   13 1
    24   12   14 1
    25   12   25 1
    26   14   15 1
    27   14   46 1
    28   14   47 1
    29   15   20 1
    30   15   16 2
    31   16   17 1
    32   16   48 1
    33   17   18 1
    34   17   19 1
    35   19   24 ar
    36   19   20 ar
    37   20   21 ar
    38   21   22 ar
    39   21   49 1
    40   22   23 ar
    41   22   50 1
    42   23   24 ar
    43   23   51 1
    44   24   52 1
    45   25   26 am
    46   25   53 1
    47   26   27 2
    48   26   28 1
    49   28   29 1
    50   29   30 1
    51   29   54 1
    52   29   55 1
    53   30   35 ar
    54   30   31 ar
    55   31   32 ar
    56   31   56 1
    57   32   33 ar
    58   32   57 1
    59   33   34 ar
    60   33   58 1
    61   34   35 ar
    62   34   59 1
    63   35   60 1
@<TRIPOS>MOLECULE
ZINC03951093
   79    83     0     0     0
SMALL
USER_CHARGES
(2S)-3-(1H-indol-3-yl)-N-[[1-(5-methoxy-2-pyridyl)cyclohexyl]methyl]-2-methyl-2-[(4-nitrophenyl)carbamoylamino]propanamide
@<TRIPOS>ATOM
      1 C1         -0.9882    2.1708   -0.2979 C.3       1 <0>        -0.1545
      2 C2         -1.2504    2.3390    1.2000 C.3       1 <0>         0.1898
      3 C3         -2.5733    1.6627    1.5653 C.3       1 <0>        -0.0541
      4 C4         -2.7719    1.7209    3.0580 C.2       1 <0>        -0.1695
      5 C5         -2.4053    0.7865    3.9493 C.2       1 <0>         0.0603
      6 N1         -2.7482    1.1862    5.2122 N.pl3     1 <0>        -0.5949
      7 H1         -2.5845    0.6772    6.0216 H         1 <0>         0.4151
      8 C6         -3.3594    2.4191    5.1632 C.ar      1 <0>         0.0964
      9 C7         -3.3958    2.8107    3.8123 C.ar      1 <0>        -0.0937
     10 C8         -3.9613    4.0367    3.4576 C.ar      1 <0>        -0.0614
     11 C9         -4.4744    4.8528    4.4263 C.ar      1 <0>        -0.1448
     12 C10        -4.4379    4.4726    5.7605 C.ar      1 <0>        -0.0944
     13 C11        -3.8910    3.2635    6.1320 C.ar      1 <0>        -0.1322
     14 C12        -1.3272    3.8064    1.5349 C.2       1 <0>         0.5242
     15 O1         -1.6595    4.6056    0.6854 O.2       1 <0>        -0.5075
     16 N2         -1.0265    4.2304    2.7784 N.am      1 <0>        -0.7176
     17 C13        -1.2023    5.6407    3.1339 C.3       1 <0>         0.1298
     18 C14         0.1038    6.3968    2.8819 C.3       1 <0>        -0.0164
     19 C15         1.2277    5.7608    3.7025 C.3       1 <0>        -0.1051
     20 C16         0.8761    5.8318    5.1898 C.3       1 <0>        -0.1196
     21 C17         0.7068    7.2947    5.6046 C.3       1 <0>        -0.1200
     22 C18        -0.4171    7.9307    4.7840 C.3       1 <0>        -0.1254
     23 C19        -0.0656    7.8597    3.2966 C.3       1 <0>        -0.0928
     24 C20         0.4501    6.3269    1.4169 C.ar      1 <0>         0.1227
     25 C21         0.9700    5.1573    0.8940 C.ar      1 <0>        -0.1185
     26 C22         1.2806    5.0989   -0.4548 C.ar      1 <0>        -0.1012
     27 C23         1.0654    6.2324   -1.2326 C.ar      1 <0>         0.0765
     28 C24         0.5457    7.3709   -0.6346 C.ar      1 <0>         0.0249
     29 N3          0.2582    7.3836    0.6521 N.ar      1 <0>        -0.4383
     30 O2          1.3598    6.2240   -2.5594 O.3       1 <0>        -0.3136
     31 C25         1.1091    7.4279   -3.2872 C.3       1 <0>         0.0249
     32 N4         -0.1602    1.7213    1.9590 N.am      1 <0>        -0.7258
     33 C26         0.0972    0.4058    1.8193 C.2       1 <0>         0.7105
     34 O3         -0.5754   -0.2684    1.0633 O.2       1 <0>        -0.5513
     35 N5          1.1002   -0.1625    2.5175 N.am      1 <0>        -0.6841
     36 C27         1.4438   -1.4994    2.2865 C.ar      1 <0>         0.2256
     37 C28         1.9669   -2.2711    3.3157 C.ar      1 <0>        -0.1531
     38 C29         2.3006   -3.5915    3.0857 C.ar      1 <0>        -0.0289
     39 C30         2.1241   -4.1421    1.8296 C.ar      1 <0>        -0.0667
     40 C31         1.6083   -3.3747    0.8014 C.ar      1 <0>        -0.0292
     41 C32         1.2677   -2.0552    1.0262 C.ar      1 <0>        -0.1252
     42 N6          2.4876   -5.5560    1.5853 N.pl3     1 <0>         0.0305
     43 O4          2.3322   -6.0424    0.4795 O.2       1 <0>        -0.1607
     44 O5          2.9420   -6.2331    2.4900 O.3       1 <0>        -0.1634
     45 H2         -0.9327    1.1095   -0.5401 H         1 <0>         0.0877
     46 H3         -0.0458    2.6527   -0.5582 H         1 <0>         0.0605
     47 H4         -1.7993    2.6304   -0.8626 H         1 <0>         0.0788
     48 H5         -3.3948    2.1795    1.0691 H         1 <0>         0.0850
     49 H6         -2.5507    0.6220    1.2421 H         1 <0>         0.1057
     50 H7         -1.9123   -0.1431    3.7057 H         1 <0>         0.1598
     51 H8         -3.9935    4.3390    2.4212 H         1 <0>         0.1156
     52 H9         -4.9121    5.8010    4.1513 H         1 <0>         0.1203
     53 H10        -4.8474    5.1283    6.5146 H         1 <0>         0.1235
     54 H11        -3.8657    2.9774    7.1731 H         1 <0>         0.1172
     55 H12        -0.6938    3.6018    3.4380 H         1 <0>         0.3944
     56 H13        -1.9957    6.0729    2.5242 H         1 <0>         0.0874
     57 H14        -1.4700    5.7192    4.1875 H         1 <0>         0.0909
     58 H15         1.3484    4.7186    3.4070 H         1 <0>         0.0573
     59 H16         2.1582    6.2994    3.5229 H         1 <0>         0.0669
     60 H17         1.6768    5.3788    5.7745 H         1 <0>         0.0628
     61 H18        -0.0543    5.2932    5.3694 H         1 <0>         0.0631
     62 H19         1.6372    7.8333    5.4251 H         1 <0>         0.0619
     63 H20         0.4563    7.3453    6.6643 H         1 <0>         0.0614
     64 H21        -0.5378    8.9729    5.0795 H         1 <0>         0.0646
     65 H22        -1.3476    7.3920    4.9635 H         1 <0>         0.0640
     66 H23         0.8649    8.3983    3.1171 H         1 <0>         0.0658
     67 H24        -0.8662    8.3127    2.7120 H         1 <0>         0.0751
     68 H25         1.1280    4.2980    1.5288 H         1 <0>         0.1236
     69 H26         1.6840    4.1971   -0.8911 H         1 <0>         0.1337
     70 H27         0.3744    8.2561   -1.2291 H         1 <0>         0.1538
     71 H28         1.3871    7.2857   -4.3315 H         1 <0>         0.1032
     72 H29         0.0498    7.6769   -3.2238 H         1 <0>         0.0581
     73 H30         1.6992    8.2395   -2.8614 H         1 <0>         0.0567
     74 H31         0.3763    2.2591    2.5622 H         1 <0>         0.3940
     75 H32         1.5838    0.3550    3.1802 H         1 <0>         0.4128
     76 H33         2.1092   -1.8404    4.2958 H         1 <0>         0.1490
     77 H34         2.7034   -4.1935    3.8868 H         1 <0>         0.1574
     78 H35         1.4719   -3.8075   -0.1787 H         1 <0>         0.1572
     79 H36         0.8646   -1.4565    0.2229 H         1 <0>         0.1641
@<TRIPOS>BOND
     1    1    2 1
     2    1   45 1
     3    1   46 1
     4    1   47 1
     5    2    3 1
     6    2   14 1
     7    2   32 1
     8    3    4 1
     9    3   48 1
    10    3   49 1
    11    4    9 1
    12    4    5 2
    13    5    6 1
    14    5   50 1
    15    6    7 1
    16    6    8 1
    17    8   13 ar
    18    8    9 ar
    19    9   10 ar
    20   10   11 ar
    21   10   51 1
    22   11   12 ar
    23   11   52 1
    24   12   13 ar
    25   12   53 1
    26   13   54 1
    27   14   15 2
    28   14   16 am
    29   16   17 1
    30   16   55 1
    31   17   18 1
    32   17   56 1
    33   17   57 1
    34   18   23 1
    35   18   19 1
    36   18   24 1
    37   19   20 1
    38   19   58 1
    39   19   59 1
    40   20   21 1
    41   20   60 1
    42   20   61 1
    43   21   22 1
    44   21   62 1
    45   21   63 1
    46   22   23 1
    47   22   64 1
    48   22   65 1
    49   23   66 1
    50   23   67 1
    51   24   29 ar
    52   24   25 ar
    53   25   26 ar
    54   25   68 1
    55   26   27 ar
    56   26   69 1
    57   27   28 ar
    58   27   30 1
    59   28   29 ar
    60   28   70 1
    61   30   31 1
    62   31   71 1
    63   31   72 1
    64   31   73 1
    65   32   33 am
    66   32   74 1
    67   33   34 2
    68   33   35 am
    69   35   36 1
    70   35   75 1
    71   36   41 ar
    72   36   37 ar
    73   37   38 ar
    74   37   76 1
    75   38   39 ar
    76   38   77 1
    77   39   40 ar
    78   39   42 1
    79   40   41 ar
    80   40   78 1
    81   41   79 1
    82   42   43 2
    83   42   44 1
@<TRIPOS>MOLECULE
ZINC05218495
   49    52     0     0     0
SMALL
USER_CHARGES
(2-fluorophenyl)-trimethyl-BLAHone
@<TRIPOS>ATOM
      1 C1         -5.3306    2.0542    1.4420 C.3       1 <0>        -0.1169
      2 C2         -4.4608    1.1645    0.5916 C.ar      1 <0>        -0.0706
      3 C3         -4.8813    0.7993   -0.6743 C.ar      1 <0>        -0.1229
      4 C4         -4.1002   -0.0343   -1.4565 C.ar      1 <0>        -0.1089
      5 C5         -2.8940   -0.4969   -0.9598 C.ar      1 <0>         0.1085
      6 C6         -2.4527   -0.0992    0.2934 C.ar      1 <0>         0.1738
      7 C7         -3.2462    0.7175    1.0825 C.ar      1 <0>        -0.1254
      8 N1         -1.1738   -0.4822    0.6974 N.pl3     1 <0>        -0.7672
      9 C8          0.0021   -0.0041    0.0020 C.3       1 <0>         0.2775
     10 H1          0.8836   -0.3390    0.5486 H         1 <0>         0.0992
     11 C9          0.1197   -0.4727   -1.4282 C.2       1 <0>        -0.2956
     12 C10        -0.8446   -1.0803   -2.1410 C.2       1 <0>         0.2636
     13 N2         -2.0835   -1.3742   -1.6706 N.pl3     1 <0>        -0.6865
     14 C11        -0.5901   -1.5089   -3.5761 C.3       1 <0>        -0.1028
     15 C12         0.3943   -0.5492   -4.2420 C.3       1 <0>        -0.0537
     16 C13         1.6966   -0.5810   -3.4328 C.3       1 <0>        -0.1498
     17 C14         1.3829   -0.2173   -2.0124 C.2       1 <0>         0.3968
     18 O1          2.2434    0.3157   -1.3395 O.2       1 <0>        -0.4673
     19 C15        -0.1821    0.8680   -4.2413 C.3       1 <0>        -0.1501
     20 C16         0.6656   -0.9991   -5.6789 C.3       1 <0>        -0.1416
     21 C17        -0.0184    1.5028    0.0103 C.ar      1 <0>        -0.1244
     22 C18        -1.0999    2.1824   -0.5176 C.ar      1 <0>        -0.0798
     23 C19        -1.1215    3.5645   -0.5049 C.ar      1 <0>        -0.1373
     24 C20        -0.0564    4.2687    0.0254 C.ar      1 <0>        -0.0905
     25 C21         1.0285    3.5915    0.5485 C.ar      1 <0>        -0.1629
     26 C22         1.0487    2.2069    0.5415 C.ar      1 <0>         0.1275
     27 F1          2.1087    1.5436    1.0531 F         1 <0>        -0.1293
     28 H2         -5.0766    3.0974    1.2544 H         1 <0>         0.0723
     29 H3         -6.3779    1.8846    1.1922 H         1 <0>         0.0682
     30 H4         -5.1663    1.8239    2.4947 H         1 <0>         0.0669
     31 H5         -5.8231    1.1664   -1.0546 H         1 <0>         0.1268
     32 H6         -4.4288   -0.3208   -2.4446 H         1 <0>         0.1276
     33 H7         -2.9202    1.0026    2.0718 H         1 <0>         0.1256
     34 H8         -1.0709   -1.0783    1.4557 H         1 <0>         0.3999
     35 H9         -2.4295   -2.2637   -1.8439 H         1 <0>         0.4051
     36 H10        -1.5302   -1.5027   -4.1276 H         1 <0>         0.0890
     37 H11        -0.1736   -2.5161   -3.5825 H         1 <0>         0.0917
     38 H12         2.3455    0.0742   -3.8197 H         1 <0>         0.0858
     39 H13         2.1255   -1.5824   -3.4683 H         1 <0>         0.0993
     40 H14         0.5374    1.5531   -4.6896 H         1 <0>         0.0605
     41 H15        -1.1071    0.8843   -4.8176 H         1 <0>         0.0601
     42 H16        -0.3874    1.1763   -3.2161 H         1 <0>         0.0596
     43 H17         1.0615   -2.0147   -5.6731 H         1 <0>         0.0602
     44 H18        -0.2632   -0.9745   -6.2489 H         1 <0>         0.0611
     45 H19         1.3918   -0.3287   -6.1386 H         1 <0>         0.0628
     46 H20        -1.9305    1.6334   -0.9362 H         1 <0>         0.1287
     47 H21        -1.9689    4.0946   -0.9139 H         1 <0>         0.1238
     48 H22        -0.0725    5.3486    0.0310 H         1 <0>         0.1291
     49 H23         1.8605    4.1418    0.9623 H         1 <0>         0.1326
@<TRIPOS>BOND
     1    1    2 1
     2    1   28 1
     3    1   29 1
     4    1   30 1
     5    2    7 ar
     6    2    3 ar
     7    3    4 ar
     8    3   31 1
     9    4    5 ar
    10    4   32 1
    11    5   13 1
    12    5    6 ar
    13    6    7 ar
    14    6    8 1
    15    7   33 1
    16    8    9 1
    17    8   34 1
    18    9   10 1
    19    9   11 1
    20    9   21 1
    21   11   17 1
    22   11   12 2
    23   12   13 1
    24   12   14 1
    25   13   35 1
    26   14   15 1
    27   14   36 1
    28   14   37 1
    29   15   16 1
    30   15   19 1
    31   15   20 1
    32   16   17 1
    33   16   38 1
    34   16   39 1
    35   17   18 2
    36   19   40 1
    37   19   41 1
    38   19   42 1
    39   20   43 1
    40   20   44 1
    41   20   45 1
    42   21   26 ar
    43   21   22 ar
    44   22   23 ar
    45   22   46 1
    46   23   24 ar
    47   23   47 1
    48   24   25 ar
    49   24   48 1
    50   25   26 ar
    51   25   49 1
    52   26   27 1
@<TRIPOS>MOLECULE
ZINC05218517
   49    52     0     0     0
SMALL
USER_CHARGES
(2-fluorophenyl)-trimethyl-BLAHone
@<TRIPOS>ATOM
      1 C1         -1.3517    1.8053    0.1070 C.3       1 <0>        -0.1168
      2 C2         -0.0013    1.1364    0.0976 C.ar      1 <0>        -0.0711
      3 C3          0.0820   -0.2437    0.1303 C.ar      1 <0>        -0.1227
      4 C4          1.3168   -0.8692    0.0963 C.ar      1 <0>        -0.1093
      5 C5          2.4655   -0.0999    0.0444 C.ar      1 <0>         0.1088
      6 C6          2.3856    1.2846    0.0437 C.ar      1 <0>         0.1742
      7 C7          1.1473    1.9072    0.0505 C.ar      1 <0>        -0.1265
      8 N1          3.5679    2.0199    0.0748 N.pl3     1 <0>        -0.7664
      9 C8          4.4502    1.9637    1.2208 C.3       1 <0>         0.2767
     10 H1          5.2498    2.6899    1.0743 H         1 <0>         0.0992
     11 C9          5.0723    0.6100    1.4664 C.2       1 <0>        -0.2949
     12 C10         4.7142   -0.5415    0.8732 C.2       1 <0>         0.2633
     13 N2          3.7335   -0.6615   -0.0578 N.pl3     1 <0>        -0.6862
     14 C11         5.4316   -1.8377    1.2117 C.3       1 <0>        -0.1030
     15 C12         5.8857   -1.8167    2.6701 C.3       1 <0>        -0.0538
     16 C13         6.8313   -0.6226    2.8472 C.3       1 <0>        -0.1498
     17 C14         6.1108    0.6233    2.4272 C.2       1 <0>         0.3969
     18 O1          6.4304    1.6827    2.9301 O.2       1 <0>        -0.4672
     19 C15         4.6724   -1.6581    3.5887 C.3       1 <0>        -0.1499
     20 C16         6.6228   -3.1156    3.0024 C.3       1 <0>        -0.1416
     21 C17         3.6671    2.3590    2.4463 C.ar      1 <0>        -0.1247
     22 C18         2.5187    1.6686    2.7853 C.ar      1 <0>        -0.0798
     23 C19         1.8005    2.0305    3.9094 C.ar      1 <0>        -0.1373
     24 C20         2.2302    3.0831    4.6964 C.ar      1 <0>        -0.0904
     25 C21         3.3777    3.7750    4.3592 C.ar      1 <0>        -0.1630
     26 C22         4.1009    3.4100    3.2360 C.ar      1 <0>         0.1277
     27 F1          5.2263    4.0819    2.9087 F         1 <0>        -0.1291
     28 H2         -1.6575    1.9921    1.1365 H         1 <0>         0.0722
     29 H3         -1.2926    2.7510   -0.4317 H         1 <0>         0.0668
     30 H4         -2.0819    1.1566   -0.3768 H         1 <0>         0.0681
     31 H5         -0.8197   -0.8359    0.1830 H         1 <0>         0.1269
     32 H6          1.3826   -1.9471    0.1105 H         1 <0>         0.1276
     33 H7          1.0792    2.9846    0.0189 H         1 <0>         0.1255
     34 H8          3.8038    2.5776   -0.6829 H         1 <0>         0.4005
     35 H9          3.9325   -1.1776   -0.8546 H         1 <0>         0.4052
     36 H10         4.7545   -2.6775    1.0555 H         1 <0>         0.0888
     37 H11         6.3008   -1.9501    0.5636 H         1 <0>         0.0916
     38 H12         7.1034   -0.5524    3.8069 H         1 <0>         0.0857
     39 H13         7.7175   -0.7626    2.2283 H         1 <0>         0.0996
     40 H14         3.9894   -2.4937    3.4360 H         1 <0>         0.0600
     41 H15         5.0026   -1.6438    4.6274 H         1 <0>         0.0605
     42 H16         4.1610   -0.7238    3.3571 H         1 <0>         0.0595
     43 H17         7.4941   -3.2147    2.3552 H         1 <0>         0.0603
     44 H18         6.9441   -3.0947    4.0438 H         1 <0>         0.0627
     45 H19         5.9551   -3.9627    2.8451 H         1 <0>         0.0611
     46 H20         2.1822    0.8462    2.1714 H         1 <0>         0.1287
     47 H21         0.9033    1.4905    4.1736 H         1 <0>         0.1239
     48 H22         1.6684    3.3648    5.5747 H         1 <0>         0.1292
     49 H23         3.7129    4.5974    4.9738 H         1 <0>         0.1326
@<TRIPOS>BOND
     1    1    2 1
     2    1   28 1
     3    1   29 1
     4    1   30 1
     5    2    7 ar
     6    2    3 ar
     7    3    4 ar
     8    3   31 1
     9    4    5 ar
    10    4   32 1
    11    5   13 1
    12    5    6 ar
    13    6    7 ar
    14    6    8 1
    15    7   33 1
    16    8    9 1
    17    8   34 1
    18    9   10 1
    19    9   11 1
    20    9   21 1
    21   11   17 1
    22   11   12 2
    23   12   13 1
    24   12   14 1
    25   13   35 1
    26   14   15 1
    27   14   36 1
    28   14   37 1
    29   15   16 1
    30   15   19 1
    31   15   20 1
    32   16   17 1
    33   16   38 1
    34   16   39 1
    35   17   18 2
    36   19   40 1
    37   19   41 1
    38   19   42 1
    39   20   43 1
    40   20   44 1
    41   20   45 1
    42   21   26 ar
    43   21   22 ar
    44   22   23 ar
    45   22   46 1
    46   23   24 ar
    47   23   47 1
    48   24   25 ar
    49   24   48 1
    50   25   26 ar
    51   25   49 1
    52   26   27 1
@<TRIPOS>MOLECULE
ZINC05218485
   49    52     0     0     0
SMALL
USER_CHARGES
(2-chloro-6-fluoro-phenyl)-trimethyl-BLAHone
@<TRIPOS>ATOM
      1 C1          3.3703   -2.2627    0.3831 C.3       1 <0>        -0.1145
      2 C2          2.2614   -1.2422    0.3864 C.ar      1 <0>        -0.0769
      3 C3          2.5570    0.0937    0.5880 C.ar      1 <0>        -0.1180
      4 C4          1.5450    1.0382    0.6113 C.ar      1 <0>        -0.1123
      5 C5          0.2338    0.6326    0.4302 C.ar      1 <0>         0.1425
      6 C6         -0.0593   -0.7020    0.1925 C.ar      1 <0>         0.1655
      7 C7          0.9527   -1.6473    0.1870 C.ar      1 <0>        -0.1285
      8 N1         -1.3818   -1.0448   -0.0898 N.pl3     1 <0>        -0.7657
      9 C8         -2.0428   -0.5516   -1.2794 C.3       1 <0>         0.2751
     10 H1         -3.0193   -1.0301   -1.3548 H         1 <0>         0.1085
     11 C9         -2.2399    0.9440   -1.3167 C.2       1 <0>        -0.3080
     12 C10        -1.6760    1.8355   -0.4822 C.2       1 <0>         0.2757
     13 N2         -0.8361    1.5127    0.5323 N.pl3     1 <0>        -0.6854
     14 C11        -1.9696    3.3190   -0.6234 C.3       1 <0>        -0.1036
     15 C12        -2.2173    3.6652   -2.0905 C.3       1 <0>        -0.0533
     16 C13        -3.4126    2.8334   -2.5708 C.3       1 <0>        -0.1497
     17 C14        -3.1048    1.3832   -2.3467 C.2       1 <0>         0.3966
     18 O1         -3.6159    0.5558   -3.0757 O.2       1 <0>        -0.4674
     19 C15        -0.9790    3.3212   -2.9207 C.3       1 <0>        -0.1503
     20 C16        -2.5348    5.1558   -2.2263 C.3       1 <0>        -0.1413
     21 C17        -1.2242   -0.9513   -2.4800 C.ar      1 <0>        -0.1141
     22 C18         0.0327   -0.4042   -2.6747 C.ar      1 <0>         0.1236
     23 C19         0.7836   -0.7722   -3.7780 C.ar      1 <0>        -0.1582
     24 C20         0.2785   -1.6854   -4.6845 C.ar      1 <0>        -0.0798
     25 C21        -0.9762   -2.2312   -4.4904 C.ar      1 <0>        -0.1280
     26 C22        -1.7257   -1.8691   -3.3848 C.ar      1 <0>         0.0149
     27 Cl1        -3.2985   -2.5611   -3.1378 Cl        1 <0>        -0.0473
     28 F1          0.5258    0.4886   -1.7887 F         1 <0>        -0.1162
     29 H2          3.7524   -2.3808   -0.6308 H         1 <0>         0.0693
     30 H3          4.1747   -1.9272    1.0377 H         1 <0>         0.0667
     31 H4          2.9859   -3.2181    0.7401 H         1 <0>         0.0652
     32 H5          3.5826    0.4017    0.7285 H         1 <0>         0.1231
     33 H6          1.7762    2.0814    0.7684 H         1 <0>         0.1238
     34 H7          0.7232   -2.6906    0.0283 H         1 <0>         0.1218
     35 H8         -1.8661   -1.6223    0.5208 H         1 <0>         0.3992
     36 H9         -0.9942    1.9280    1.3945 H         1 <0>         0.4047
     37 H10        -1.1190    3.8925   -0.2550 H         1 <0>         0.0888
     38 H11        -2.8547    3.5687   -0.0383 H         1 <0>         0.0917
     39 H12        -3.5684    3.0046   -3.5436 H         1 <0>         0.0855
     40 H13        -4.3024    3.1105   -2.0054 H         1 <0>         0.0989
     41 H14        -1.1727    3.5416   -3.9704 H         1 <0>         0.0591
     42 H15        -0.1331    3.9153   -2.5748 H         1 <0>         0.0597
     43 H16        -0.7491    2.2617   -2.8082 H         1 <0>         0.0604
     44 H17        -3.4085    5.3978   -1.6213 H         1 <0>         0.0602
     45 H18        -1.6819    5.7416   -1.8836 H         1 <0>         0.0609
     46 H19        -2.7400    5.3898   -3.2709 H         1 <0>         0.0626
     47 H20         1.7640   -0.3456   -3.9306 H         1 <0>         0.1364
     48 H21         0.8646   -1.9722   -5.5450 H         1 <0>         0.1397
     49 H22        -1.3701   -2.9443   -5.1994 H         1 <0>         0.1382
@<TRIPOS>BOND
     1    1    2 1
     2    1   29 1
     3    1   30 1
     4    1   31 1
     5    2    7 ar
     6    2    3 ar
     7    3    4 ar
     8    3   32 1
     9    4    5 ar
    10    4   33 1
    11    5   13 1
    12    5    6 ar
    13    6    7 ar
    14    6    8 1
    15    7   34 1
    16    8    9 1
    17    8   35 1
    18    9   10 1
    19    9   11 1
    20    9   21 1
    21   11   17 1
    22   11   12 2
    23   12   13 1
    24   12   14 1
    25   13   36 1
    26   14   15 1
    27   14   37 1
    28   14   38 1
    29   15   16 1
    30   15   19 1
    31   15   20 1
    32   16   17 1
    33   16   39 1
    34   16   40 1
    35   17   18 2
    36   19   41 1
    37   19   42 1
    38   19   43 1
    39   20   44 1
    40   20   45 1
    41   20   46 1
    42   21   26 ar
    43   21   22 ar
    44   22   23 ar
    45   22   28 1
    46   23   24 ar
    47   23   47 1
    48   24   25 ar
    49   24   48 1
    50   25   26 ar
    51   25   49 1
    52   26   27 1
@<TRIPOS>MOLECULE
ZINC05218507
   49    52     0     0     0
SMALL
USER_CHARGES
(2-chloro-6-fluoro-phenyl)-trimethyl-BLAHone
@<TRIPOS>ATOM
      1 C1         -2.5023    1.8628   -8.2722 C.3       1 <0>        -0.1146
      2 C2         -1.8532    1.9345   -6.9140 C.ar      1 <0>        -0.0767
      3 C3         -0.5699    1.4495   -6.7393 C.ar      1 <0>        -0.1184
      4 C4          0.0436    1.5281   -5.5005 C.ar      1 <0>        -0.1129
      5 C5         -0.6396    2.0979   -4.4404 C.ar      1 <0>         0.1387
      6 C6         -1.9402    2.5502   -4.6044 C.ar      1 <0>         0.1680
      7 C7         -2.5450    2.4858   -5.8495 C.ar      1 <0>        -0.1297
      8 N1         -2.6133    3.0540   -3.4928 N.pl3     1 <0>        -0.7654
      9 C8         -2.9331    2.2052   -2.3645 C.3       1 <0>         0.2749
     10 H1         -3.5440    2.7776   -1.6664 H         1 <0>         0.1078
     11 C9         -1.7303    1.6722   -1.6229 C.2       1 <0>        -0.3065
     12 C10        -0.4554    1.7329   -2.0414 C.2       1 <0>         0.2753
     13 N2         -0.0450    2.3048   -3.2016 N.pl3     1 <0>        -0.6845
     14 C11         0.6590    1.1320   -1.2003 C.3       1 <0>        -0.1009
     15 C12         0.3194    1.2694    0.2829 C.3       1 <0>        -0.0570
     16 C13        -0.9928    0.5202    0.5340 C.3       1 <0>        -0.1490
     17 C14        -2.0440    1.0786   -0.3773 C.2       1 <0>         0.3966
     18 O1         -3.2083    1.0197   -0.0335 O.2       1 <0>        -0.4673
     19 C15         1.4351    0.6537    1.1296 C.3       1 <0>        -0.1421
     20 C16         0.1504    2.7472    0.6414 C.3       1 <0>        -0.1498
     21 C17        -3.7451    1.0366   -2.8606 C.ar      1 <0>        -0.1136
     22 C18        -3.1669    0.0963   -3.6964 C.ar      1 <0>         0.1234
     23 C19        -3.9140   -0.9768   -4.1515 C.ar      1 <0>        -0.1579
     24 C20        -5.2364   -1.1089   -3.7715 C.ar      1 <0>        -0.0797
     25 C21        -5.8135   -0.1706   -2.9369 C.ar      1 <0>        -0.1280
     26 C22        -5.0667    0.8998   -2.4768 C.ar      1 <0>         0.0158
     27 Cl1        -5.7906    2.0742   -1.4232 Cl        1 <0>        -0.0472
     28 F1         -1.8745    0.2261   -4.0680 F         1 <0>        -0.1190
     29 H2         -3.0402    0.9197   -8.3685 H         1 <0>         0.0694
     30 H3         -3.2002    2.6924   -8.3856 H         1 <0>         0.0652
     31 H4         -1.7359    1.9246   -9.0448 H         1 <0>         0.0668
     32 H5         -0.0442    1.0072   -7.5726 H         1 <0>         0.1234
     33 H6          1.0452    1.1483   -5.3628 H         1 <0>         0.1242
     34 H7         -3.5478    2.8622   -5.9880 H         1 <0>         0.1219
     35 H8         -2.8713    3.9889   -3.4747 H         1 <0>         0.3997
     36 H9          0.7186    2.9016   -3.1634 H         1 <0>         0.4054
     37 H10         0.7723    0.0770   -1.4497 H         1 <0>         0.0954
     38 H11         1.5922    1.6555   -1.4082 H         1 <0>         0.0850
     39 H12        -1.2679    0.6402    1.4879 H         1 <0>         0.0867
     40 H13        -0.8544   -0.5408    0.3260 H         1 <0>         0.0964
     41 H14         2.3732    1.1700    0.9255 H         1 <0>         0.0610
     42 H15         1.1873    0.7547    2.1862 H         1 <0>         0.0625
     43 H16         1.5398   -0.4022    0.8803 H         1 <0>         0.0591
     44 H17        -0.6559    3.1756    0.0460 H         1 <0>         0.0616
     45 H18        -0.0917    2.8388    1.7002 H         1 <0>         0.0611
     46 H19         1.0783    3.2800    0.4334 H         1 <0>         0.0599
     47 H20        -3.4637   -1.7104   -4.8037 H         1 <0>         0.1366
     48 H21        -5.8189   -1.9461   -4.1267 H         1 <0>         0.1399
     49 H22        -6.8467   -0.2750   -2.6402 H         1 <0>         0.1384
@<TRIPOS>BOND
     1    1    2 1
     2    1   29 1
     3    1   30 1
     4    1   31 1
     5    2    7 ar
     6    2    3 ar
     7    3    4 ar
     8    3   32 1
     9    4    5 ar
    10    4   33 1
    11    5   13 1
    12    5    6 ar
    13    6    7 ar
    14    6    8 1
    15    7   34 1
    16    8    9 1
    17    8   35 1
    18    9   10 1
    19    9   11 1
    20    9   21 1
    21   11   17 1
    22   11   12 2
    23   12   13 1
    24   12   14 1
    25   13   36 1
    26   14   15 1
    27   14   37 1
    28   14   38 1
    29   15   16 1
    30   15   19 1
    31   15   20 1
    32   16   17 1
    33   16   39 1
    34   16   40 1
    35   17   18 2
    36   19   41 1
    37   19   42 1
    38   19   43 1
    39   20   44 1
    40   20   45 1
    41   20   46 1
    42   21   26 ar
    43   21   22 ar
    44   22   23 ar
    45   22   28 1
    46   23   24 ar
    47   23   47 1
    48   24   25 ar
    49   24   48 1
    50   25   26 ar
    51   25   49 1
    52   26   27 1
@<TRIPOS>MOLECULE
ZINC00103695
   49    52     0     0     0
SMALL
USER_CHARGES
trimethyl-phenyl-BLAHone
@<TRIPOS>ATOM
      1 C1          3.7920    2.0769   -0.0987 C.3       1 <0>        -0.1166
      2 C2          2.4795    1.3369   -0.0695 C.ar      1 <0>        -0.0715
      3 C3          1.2916    2.0452   -0.0583 C.ar      1 <0>        -0.1233
      4 C4          0.0798    1.3753   -0.0515 C.ar      1 <0>        -0.1103
      5 C5          0.0698   -0.0081   -0.0404 C.ar      1 <0>         0.1093
      6 C6          1.2597   -0.7202   -0.0190 C.ar      1 <0>         0.1766
      7 C7          2.4707   -0.0470   -0.0537 C.ar      1 <0>        -0.1244
      8 N1          1.2024   -2.1098    0.0763 N.pl3     1 <0>        -0.7677
      9 C8          0.6696   -2.7540    1.2578 C.3       1 <0>         0.2758
     10 H1          0.8191   -3.8295    1.1619 H         1 <0>         0.0938
     11 C9         -0.7974   -2.4949    1.5046 C.2       1 <0>        -0.2952
     12 C10        -1.5529   -1.5788    0.8753 C.2       1 <0>         0.2617
     13 N2         -1.1084   -0.7445   -0.0989 N.pl3     1 <0>        -0.6864
     14 C11        -3.0250   -1.4264    1.2200 C.3       1 <0>        -0.1034
     15 C12        -3.2504   -1.7461    2.6967 C.3       1 <0>        -0.0535
     16 C13        -2.7939   -3.1902    2.9364 C.3       1 <0>        -0.1507
     17 C14        -1.3623   -3.3157    2.5091 C.2       1 <0>         0.4008
     18 O1         -0.6621   -4.1526    3.0445 O.2       1 <0>        -0.4723
     19 C15        -2.4285   -0.7916    3.5652 C.3       1 <0>        -0.1506
     20 C16        -4.7359   -1.6087    3.0362 C.3       1 <0>        -0.1417
     21 C17         1.4476   -2.2738    2.4557 C.ar      1 <0>        -0.0860
     22 C18         1.4493   -0.9314    2.7859 C.ar      1 <0>        -0.1035
     23 C19         2.1595   -0.4915    3.8873 C.ar      1 <0>        -0.1256
     24 C20         2.8757   -1.3925    4.6529 C.ar      1 <0>        -0.1208
     25 C21         2.8778   -2.7342    4.3199 C.ar      1 <0>        -0.1247
     26 C22         2.1642   -3.1747    3.2210 C.ar      1 <0>        -0.0912
     27 H2          4.0921    2.2436   -1.1332 H         1 <0>         0.0716
     28 H3          3.6794    3.0363    0.4061 H         1 <0>         0.0676
     29 H4          4.5536    1.4858    0.4099 H         1 <0>         0.0666
     30 H5          1.3093    3.1251   -0.0553 H         1 <0>         0.1259
     31 H6         -0.8484    1.9272   -0.0592 H         1 <0>         0.1265
     32 H7          3.3997   -0.5976   -0.0679 H         1 <0>         0.1244
     33 H8          1.5244   -2.6529   -0.6600 H         1 <0>         0.3988
     34 H9         -1.6539   -0.6549   -0.8960 H         1 <0>         0.4045
     35 H10        -3.3396   -0.4023    1.0194 H         1 <0>         0.0880
     36 H11        -3.6127   -2.1105    0.6079 H         1 <0>         0.0910
     37 H12        -2.8806   -3.4102    3.9080 H         1 <0>         0.0855
     38 H13        -3.4138   -3.8715    2.3535 H         1 <0>         0.0992
     39 H14        -2.7362    0.2353    3.3679 H         1 <0>         0.0594
     40 H15        -2.5933   -1.0245    4.6172 H         1 <0>         0.0602
     41 H16        -1.3705   -0.9056    3.3293 H         1 <0>         0.0610
     42 H17        -5.3139   -2.3021    2.4251 H         1 <0>         0.0601
     43 H18        -4.8904   -1.8380    4.0905 H         1 <0>         0.0626
     44 H19        -5.0618   -0.5883    2.8347 H         1 <0>         0.0609
     45 H20         0.8931   -0.2269    2.1853 H         1 <0>         0.1162
     46 H21         2.1575    0.5566    4.1477 H         1 <0>         0.1154
     47 H22         3.4332   -1.0483    5.5114 H         1 <0>         0.1175
     48 H23         3.4374   -3.4381    4.9180 H         1 <0>         0.1189
     49 H24         2.1661   -4.2229    2.9606 H         1 <0>         0.1195
@<TRIPOS>BOND
     1    1    2 1
     2    1   27 1
     3    1   28 1
     4    1   29 1
     5    2    7 ar
     6    2    3 ar
     7    3    4 ar
     8    3   30 1
     9    4    5 ar
    10    4   31 1
    11    5   13 1
    12    5    6 ar
    13    6    7 ar
    14    6    8 1
    15    7   32 1
    16    8    9 1
    17    8   33 1
    18    9   10 1
    19    9   11 1
    20    9   21 1
    21   11   17 1
    22   11   12 2
    23   12   13 1
    24   12   14 1
    25   13   34 1
    26   14   15 1
    27   14   35 1
    28   14   36 1
    29   15   16 1
    30   15   19 1
    31   15   20 1
    32   16   17 1
    33   16   37 1
    34   16   38 1
    35   17   18 2
    36   19   39 1
    37   19   40 1
    38   19   41 1
    39   20   42 1
    40   20   43 1
    41   20   44 1
    42   21   26 ar
    43   21   22 ar
    44   22   23 ar
    45   22   45 1
    46   23   24 ar
    47   23   46 1
    48   24   25 ar
    49   24   47 1
    50   25   26 ar
    51   25   48 1
    52   26   49 1
@<TRIPOS>MOLECULE
ZINC00103702
   49    52     0     0     0
SMALL
USER_CHARGES
trimethyl-phenyl-BLAHone
@<TRIPOS>ATOM
      1 C1          6.0429    1.6676    2.7608 C.3       1 <0>        -0.1165
      2 C2          5.3827    2.5166    1.7051 C.ar      1 <0>        -0.0708
      3 C3          6.1002    2.9064    0.5889 C.ar      1 <0>        -0.1239
      4 C4          5.5096    3.7025   -0.3780 C.ar      1 <0>        -0.1104
      5 C5          4.1957    4.1055   -0.2149 C.ar      1 <0>         0.1066
      6 C6          3.4633    3.6848    0.8850 C.ar      1 <0>         0.1785
      7 C7          4.0622    2.9017    1.8589 C.ar      1 <0>        -0.1261
      8 N1          2.1240    4.0598    0.9740 N.pl3     1 <0>        -0.7674
      9 C8          1.1505    3.5924    0.0099 C.3       1 <0>         0.2761
     10 H1          0.1618    3.9219    0.3293 H         1 <0>         0.0933
     11 C9          1.3831    4.0820   -1.3998 C.2       1 <0>        -0.2947
     12 C10         2.4902    4.6953   -1.8486 C.2       1 <0>         0.2611
     13 N2          3.5772    4.9901   -1.0914 N.pl3     1 <0>        -0.6850
     14 C11         2.6046    5.1019   -3.3088 C.3       1 <0>        -0.1004
     15 C12         1.2294    5.4894   -3.8497 C.3       1 <0>        -0.0568
     16 C13         0.3120    4.2689   -3.7102 C.3       1 <0>        -0.1504
     17 C14         0.2952    3.8448   -2.2724 C.2       1 <0>         0.4007
     18 O1         -0.6886    3.2760   -1.8411 O.2       1 <0>        -0.4725
     19 C15         0.6642    6.6580   -3.0400 C.3       1 <0>        -0.1499
     20 C16         1.3448    5.8871   -5.3226 C.3       1 <0>        -0.1423
     21 C17         1.1709    2.0855    0.0021 C.ar      1 <0>        -0.0863
     22 C18         0.0222    1.3771    0.3012 C.ar      1 <0>        -0.0898
     23 C19         0.0409   -0.0051    0.2937 C.ar      1 <0>        -0.1251
     24 C20         1.2082   -0.6789   -0.0131 C.ar      1 <0>        -0.1211
     25 C21         2.3568    0.0295   -0.3128 C.ar      1 <0>        -0.1260
     26 C22         2.3380    1.4117   -0.3061 C.ar      1 <0>        -0.1057
     27 H2          5.8971    0.6139    2.5232 H         1 <0>         0.0718
     28 H3          7.1097    1.8892    2.7905 H         1 <0>         0.0677
     29 H4          5.5993    1.8858    3.7323 H         1 <0>         0.0666
     30 H5          7.1254    2.5882    0.4706 H         1 <0>         0.1259
     31 H6          6.0689    4.0062   -1.2505 H         1 <0>         0.1268
     32 H7          3.5031    2.5941    2.7303 H         1 <0>         0.1248
     33 H8          1.8394    4.6443    1.6940 H         1 <0>         0.3988
     34 H9          3.9494    5.8827   -1.1669 H         1 <0>         0.4053
     35 H10         3.2807    5.9524   -3.3959 H         1 <0>         0.0846
     36 H11         2.9976    4.2661   -3.8877 H         1 <0>         0.0947
     37 H12        -0.6123    4.5113   -4.0050 H         1 <0>         0.0862
     38 H13         0.6887    3.4552   -4.3300 H         1 <0>         0.0976
     39 H14         1.3361    7.5128   -3.1182 H         1 <0>         0.0599
     40 H15        -0.3165    6.9299   -3.4303 H         1 <0>         0.0609
     41 H16         0.5704    6.3641   -1.9946 H         1 <0>         0.0614
     42 H17         1.7339    5.0462   -5.8966 H         1 <0>         0.0593
     43 H18         0.3610    6.1624   -5.7028 H         1 <0>         0.0625
     44 H19         2.0217    6.7362   -5.4177 H         1 <0>         0.0611
     45 H20        -0.8910    1.9036    0.5365 H         1 <0>         0.1202
     46 H21        -0.8565   -0.5585    0.5278 H         1 <0>         0.1191
     47 H22         1.2230   -1.7588   -0.0184 H         1 <0>         0.1176
     48 H23         3.2691   -0.4969   -0.5518 H         1 <0>         0.1155
     49 H24         3.2354    1.9652   -0.5399 H         1 <0>         0.1169
@<TRIPOS>BOND
     1    1    2 1
     2    1   27 1
     3    1   28 1
     4    1   29 1
     5    2    7 ar
     6    2    3 ar
     7    3    4 ar
     8    3   30 1
     9    4    5 ar
    10    4   31 1
    11    5   13 1
    12    5    6 ar
    13    6    7 ar
    14    6    8 1
    15    7   32 1
    16    8    9 1
    17    8   33 1
    18    9   10 1
    19    9   11 1
    20    9   21 1
    21   11   17 1
    22   11   12 2
    23   12   13 1
    24   12   14 1
    25   13   34 1
    26   14   15 1
    27   14   35 1
    28   14   36 1
    29   15   16 1
    30   15   19 1
    31   15   20 1
    32   16   17 1
    33   16   37 1
    34   16   38 1
    35   17   18 2
    36   19   39 1
    37   19   40 1
    38   19   41 1
    39   20   42 1
    40   20   43 1
    41   20   44 1
    42   21   26 ar
    43   21   22 ar
    44   22   23 ar
    45   22   45 1
    46   23   24 ar
    47   23   46 1
    48   24   25 ar
    49   24   47 1
    50   25   26 ar
    51   25   48 1
    52   26   49 1
@<TRIPOS>MOLECULE
ZINC00672446
   49    52     0     0     0
SMALL
USER_CHARGES
(2-chlorophenyl)-trimethyl-BLAHone
@<TRIPOS>ATOM
      1 C1         -1.3337    2.1212    0.0167 C.3       1 <0>        -0.1167
      2 C2         -0.0170    1.3882    0.0064 C.ar      1 <0>        -0.0713
      3 C3         -0.0007    0.0053   -0.0028 C.ar      1 <0>        -0.1228
      4 C4          1.2030   -0.6781   -0.0380 C.ar      1 <0>        -0.1100
      5 C5          2.3880    0.0357   -0.0488 C.ar      1 <0>         0.1098
      6 C6          2.3748    1.4219   -0.0075 C.ar      1 <0>         0.1741
      7 C7          1.1679    2.1033    0.0004 C.ar      1 <0>        -0.1257
      8 N1          3.5905    2.0975    0.0642 N.pl3     1 <0>        -0.7661
      9 C8          4.4502    1.9637    1.2208 C.3       1 <0>         0.2686
     10 H1          5.2860    2.6544    1.1089 H         1 <0>         0.1060
     11 C9          5.0024    0.5745    1.4332 C.2       1 <0>        -0.2937
     12 C10         4.5991   -0.5396    0.7991 C.2       1 <0>         0.2606
     13 N2          3.6291   -0.5834   -0.1497 N.pl3     1 <0>        -0.6867
     14 C11         5.2477   -1.8788    1.1074 C.3       1 <0>        -0.1027
     15 C12         5.6784   -1.9244    2.5724 C.3       1 <0>        -0.0537
     16 C13         6.6773   -0.7836    2.8008 C.3       1 <0>        -0.1498
     17 C14         6.0246    0.5081    2.4093 C.2       1 <0>         0.3944
     18 O1          6.3864    1.5349    2.9497 O.2       1 <0>        -0.4601
     19 C15         4.4594   -1.7351    3.4774 C.3       1 <0>        -0.1497
     20 C16         6.3467   -3.2671    2.8749 C.3       1 <0>        -0.1416
     21 C17         3.6671    2.3590    2.4463 C.ar      1 <0>        -0.0790
     22 C18         2.5186    1.6684    2.7852 C.ar      1 <0>        -0.0942
     23 C19         1.8000    2.0311    3.9088 C.ar      1 <0>        -0.1217
     24 C20         2.2299    3.0841    4.6950 C.ar      1 <0>        -0.1079
     25 C21         3.3782    3.7749    4.3574 C.ar      1 <0>        -0.1183
     26 C22         4.1006    3.4092    3.2353 C.ar      1 <0>        -0.0076
     27 Cl1         5.5471    4.2719    2.8146 Cl        1 <0>        -0.0569
     28 H2         -1.6469    2.2912    1.0468 H         1 <0>         0.0717
     29 H3         -1.2203    3.0789   -0.4913 H         1 <0>         0.0667
     30 H4         -2.0862    1.5238   -0.4980 H         1 <0>         0.0679
     31 H5         -0.9305   -0.5438    0.0180 H         1 <0>         0.1263
     32 H6          1.2167   -1.7579   -0.0565 H         1 <0>         0.1271
     33 H7          1.1523    3.1832    0.0016 H         1 <0>         0.1249
     34 H8          3.8652    2.6660   -0.6722 H         1 <0>         0.4001
     35 H9          3.8160   -1.0840   -0.9592 H         1 <0>         0.4047
     36 H10         4.5337   -2.6796    0.9151 H         1 <0>         0.0880
     37 H11         6.1210   -2.0135    0.4692 H         1 <0>         0.0910
     38 H12         6.9368   -0.7561    3.7661 H         1 <0>         0.0853
     39 H13         7.5657   -0.9475    2.1909 H         1 <0>         0.0985
     40 H14         3.7396   -2.5316    3.2886 H         1 <0>         0.0593
     41 H15         4.7728   -1.7685    4.5208 H         1 <0>         0.0602
     42 H16         3.9973   -0.7705    3.2675 H         1 <0>         0.0597
     43 H17         7.2228   -3.3886    2.2378 H         1 <0>         0.0600
     44 H18         6.6517   -3.2936    3.9210 H         1 <0>         0.0625
     45 H19         5.6417   -4.0755    2.6813 H         1 <0>         0.0607
     46 H20         2.1825    0.8455    2.1717 H         1 <0>         0.1260
     47 H21         0.9025    1.4915    4.1730 H         1 <0>         0.1231
     48 H22         1.6680    3.3670    5.5728 H         1 <0>         0.1284
     49 H23         3.7141    4.5972    4.9717 H         1 <0>         0.1305
@<TRIPOS>BOND
     1    1    2 1
     2    1   28 1
     3    1   29 1
     4    1   30 1
     5    2    7 ar
     6    2    3 ar
     7    3    4 ar
     8    3   31 1
     9    4    5 ar
    10    4   32 1
    11    5   13 1
    12    5    6 ar
    13    6    7 ar
    14    6    8 1
    15    7   33 1
    16    8    9 1
    17    8   34 1
    18    9   10 1
    19    9   11 1
    20    9   21 1
    21   11   17 1
    22   11   12 2
    23   12   13 1
    24   12   14 1
    25   13   35 1
    26   14   15 1
    27   14   36 1
    28   14   37 1
    29   15   16 1
    30   15   19 1
    31   15   20 1
    32   16   17 1
    33   16   38 1
    34   16   39 1
    35   17   18 2
    36   19   40 1
    37   19   41 1
    38   19   42 1
    39   20   43 1
    40   20   44 1
    41   20   45 1
    42   21   26 ar
    43   21   22 ar
    44   22   23 ar
    45   22   46 1
    46   23   24 ar
    47   23   47 1
    48   24   25 ar
    49   24   48 1
    50   25   26 ar
    51   25   49 1
    52   26   27 1
@<TRIPOS>MOLECULE
ZINC00672448
   49    52     0     0     0
SMALL
USER_CHARGES
(2-chlorophenyl)-trimethyl-BLAHone
@<TRIPOS>ATOM
      1 C1         -5.3306    2.0542    1.4420 C.3       1 <0>        -0.1167
      2 C2         -4.4608    1.1645    0.5916 C.ar      1 <0>        -0.0708
      3 C3         -4.8813    0.7993   -0.6743 C.ar      1 <0>        -0.1230
      4 C4         -4.1002   -0.0343   -1.4565 C.ar      1 <0>        -0.1096
      5 C5         -2.8940   -0.4969   -0.9598 C.ar      1 <0>         0.1094
      6 C6         -2.4527   -0.0992    0.2934 C.ar      1 <0>         0.1737
      7 C7         -3.2462    0.7175    1.0825 C.ar      1 <0>        -0.1246
      8 N1         -1.1738   -0.4822    0.6974 N.pl3     1 <0>        -0.7669
      9 C8          0.0021   -0.0041    0.0020 C.3       1 <0>         0.2694
     10 H1          0.8836   -0.3390    0.5486 H         1 <0>         0.1060
     11 C9          0.1197   -0.4727   -1.4282 C.2       1 <0>        -0.2944
     12 C10        -0.8446   -1.0803   -2.1410 C.2       1 <0>         0.2609
     13 N2         -2.0835   -1.3742   -1.6706 N.pl3     1 <0>        -0.6869
     14 C11        -0.5901   -1.5089   -3.5761 C.3       1 <0>        -0.1025
     15 C12         0.3943   -0.5492   -4.2420 C.3       1 <0>        -0.0536
     16 C13         1.6966   -0.5810   -3.4328 C.3       1 <0>        -0.1497
     17 C14         1.3829   -0.2173   -2.0124 C.2       1 <0>         0.3944
     18 O1          2.2434    0.3157   -1.3395 O.2       1 <0>        -0.4602
     19 C15        -0.1821    0.8680   -4.2413 C.3       1 <0>        -0.1498
     20 C16         0.6656   -0.9991   -5.6789 C.3       1 <0>        -0.1416
     21 C17        -0.0184    1.5028    0.0103 C.ar      1 <0>        -0.0787
     22 C18        -1.0675    2.1832   -0.5790 C.ar      1 <0>        -0.0942
     23 C19        -1.0888    3.5652   -0.5673 C.ar      1 <0>        -0.1217
     24 C20        -0.0556    4.2680    0.0246 C.ar      1 <0>        -0.1080
     25 C21         0.9964    3.5890    0.6093 C.ar      1 <0>        -0.1183
     26 C22         1.0156    2.2054    0.6026 C.ar      1 <0>        -0.0077
     27 Cl1         2.3365    1.3517    1.3375 Cl        1 <0>        -0.0571
     28 H2         -5.0766    3.0974    1.2544 H         1 <0>         0.0718
     29 H3         -6.3779    1.8846    1.1922 H         1 <0>         0.0679
     30 H4         -5.1663    1.8239    2.4947 H         1 <0>         0.0668
     31 H5         -5.8231    1.1664   -1.0546 H         1 <0>         0.1262
     32 H6         -4.4288   -0.3208   -2.4446 H         1 <0>         0.1270
     33 H7         -2.9202    1.0026    2.0718 H         1 <0>         0.1250
     34 H8         -1.0709   -1.0783    1.4557 H         1 <0>         0.3995
     35 H9         -2.4295   -2.2637   -1.8439 H         1 <0>         0.4047
     36 H10        -1.5302   -1.5027   -4.1276 H         1 <0>         0.0882
     37 H11        -0.1736   -2.5161   -3.5825 H         1 <0>         0.0911
     38 H12         2.3455    0.0742   -3.8197 H         1 <0>         0.0854
     39 H13         2.1255   -1.5824   -3.4683 H         1 <0>         0.0983
     40 H14         0.5374    1.5531   -4.6896 H         1 <0>         0.0602
     41 H15        -1.1071    0.8843   -4.8176 H         1 <0>         0.0594
     42 H16        -0.3874    1.1763   -3.2161 H         1 <0>         0.0598
     43 H17         1.0615   -2.0147   -5.6731 H         1 <0>         0.0600
     44 H18        -0.2632   -0.9745   -6.2489 H         1 <0>         0.0607
     45 H19         1.3918   -0.3287   -6.1386 H         1 <0>         0.0625
     46 H20        -1.8726    1.6348   -1.0453 H         1 <0>         0.1260
     47 H21        -1.9105    4.0963   -1.0245 H         1 <0>         0.1230
     48 H22        -0.0709    5.3479    0.0301 H         1 <0>         0.1283
     49 H23         1.8035    4.1381    1.0713 H         1 <0>         0.1305
@<TRIPOS>BOND
     1    1    2 1
     2    1   28 1
     3    1   29 1
     4    1   30 1
     5    2    7 ar
     6    2    3 ar
     7    3    4 ar
     8    3   31 1
     9    4    5 ar
    10    4   32 1
    11    5   13 1
    12    5    6 ar
    13    6    7 ar
    14    6    8 1
    15    7   33 1
    16    8    9 1
    17    8   34 1
    18    9   10 1
    19    9   11 1
    20    9   21 1
    21   11   17 1
    22   11   12 2
    23   12   13 1
    24   12   14 1
    25   13   35 1
    26   14   15 1
    27   14   36 1
    28   14   37 1
    29   15   16 1
    30   15   19 1
    31   15   20 1
    32   16   17 1
    33   16   38 1
    34   16   39 1
    35   17   18 2
    36   19   40 1
    37   19   41 1
    38   19   42 1
    39   20   43 1
    40   20   44 1
    41   20   45 1
    42   21   26 ar
    43   21   22 ar
    44   22   23 ar
    45   22   46 1
    46   23   24 ar
    47   23   47 1
    48   24   25 ar
    49   24   48 1
    50   25   26 ar
    51   25   49 1
    52   26   27 1
@<TRIPOS>MOLECULE
ZINC05190626
   46    49     0     0     0
SMALL
USER_CHARGES
chloro-(2-chloro-6-fluoro-phenyl)-dimethyl-BLAHone
@<TRIPOS>ATOM
      1 C1         -0.3160    3.2363    2.5328 C.3       1 <0>        -0.1501
      2 C2         -1.5554    3.6843    1.7555 C.3       1 <0>        -0.0535
      3 C3         -1.4686    3.1895    0.3128 C.3       1 <0>        -0.1033
      4 C4         -1.3904    1.6729    0.2875 C.2       1 <0>         0.2735
      5 C5         -2.0055    0.9402    1.2330 C.2       1 <0>        -0.3043
      6 C6         -2.0161   -0.5664    1.3183 C.3       1 <0>         0.2740
      7 H1         -3.0410   -0.8921    1.4961 H         1 <0>         0.1112
      8 N1         -1.5189   -1.2423    0.1388 N.pl3     1 <0>        -0.7627
      9 C7         -0.1869   -1.1137   -0.2553 C.ar      1 <0>         0.1739
     10 C8          0.6856   -2.1888   -0.2260 C.ar      1 <0>        -0.1201
     11 C9          2.0199   -1.9897   -0.5413 C.ar      1 <0>        -0.0261
     12 C10         2.4774   -0.7289   -0.8826 C.ar      1 <0>        -0.1070
     13 C11         1.6028    0.3433   -0.9285 C.ar      1 <0>        -0.1049
     14 C12         0.2659    0.1421   -0.6308 C.ar      1 <0>         0.1551
     15 N2         -0.6797    1.1540   -0.7450 N.pl3     1 <0>        -0.6862
     16 Cl1         3.1237   -3.3292   -0.5087 Cl        1 <0>        -0.0687
     17 C13        -1.1743   -0.9830    2.4968 C.ar      1 <0>        -0.1161
     18 C14         0.1578   -0.6112    2.5626 C.ar      1 <0>         0.1211
     19 C15         0.9284   -0.9894    3.6488 C.ar      1 <0>        -0.1559
     20 C16         0.3710   -1.7478    4.6611 C.ar      1 <0>        -0.0783
     21 C17        -0.9570   -2.1241    4.5925 C.ar      1 <0>        -0.1263
     22 C18        -1.7304   -1.7418    3.5105 C.ar      1 <0>         0.0155
     23 Cl2        -3.3988   -2.2141    3.4259 Cl        1 <0>        -0.0460
     24 F1          0.7038    0.1249    1.5700 F         1 <0>        -0.1192
     25 C19        -2.7223    1.5789    2.2722 C.2       1 <0>         0.3966
     26 O1         -3.2846    0.8936    3.1039 O.2       1 <0>        -0.4653
     27 C20        -2.8127    3.0714    2.3838 C.3       1 <0>        -0.1496
     28 C21        -1.6573    5.2108    1.7749 C.3       1 <0>        -0.1415
     29 H2          0.5765    3.6498    2.0632 H         1 <0>         0.0602
     30 H3         -0.3837    3.5921    3.5609 H         1 <0>         0.0597
     31 H4         -0.2580    2.1479    2.5281 H         1 <0>         0.0596
     32 H5         -0.5786    3.6056   -0.1594 H         1 <0>         0.0898
     33 H6         -2.3537    3.5153   -0.2336 H         1 <0>         0.0928
     34 H7         -2.1212   -1.7927   -0.3858 H         1 <0>         0.4023
     35 H8          0.3293   -3.1729    0.0404 H         1 <0>         0.1341
     36 H9          3.5219   -0.5806   -1.1139 H         1 <0>         0.1356
     37 H10         1.9600    1.3272   -1.1948 H         1 <0>         0.1351
     38 H11        -0.8437    1.5168   -1.6295 H         1 <0>         0.4075
     39 H12         1.9663   -0.6956    3.7031 H         1 <0>         0.1375
     40 H13         0.9735   -2.0461    5.5063 H         1 <0>         0.1407
     41 H14        -1.3916   -2.7167    5.3840 H         1 <0>         0.1391
     42 H15        -2.8700    3.3405    3.3452 H         1 <0>         0.0861
     43 H16        -3.6968    3.4253    1.8534 H         1 <0>         0.0996
     44 H17        -2.5502    5.5222    1.2329 H         1 <0>         0.0604
     45 H18        -1.7189    5.5577    2.8064 H         1 <0>         0.0629
     46 H19        -0.7754    5.6399    1.2993 H         1 <0>         0.0612
@<TRIPOS>BOND
     1    1    2 1
     2    1   29 1
     3    1   30 1
     4    1   31 1
     5    2   27 1
     6    2    3 1
     7    2   28 1
     8    3    4 1
     9    3   32 1
    10    3   33 1
    11    4   15 1
    12    4    5 2
    13    5    6 1
    14    5   25 1
    15    6    7 1
    16    6    8 1
    17    6   17 1
    18    8    9 1
    19    8   34 1
    20    9   14 ar
    21    9   10 ar
    22   10   11 ar
    23   10   35 1
    24   11   12 ar
    25   11   16 1
    26   12   13 ar
    27   12   36 1
    28   13   14 ar
    29   13   37 1
    30   14   15 1
    31   15   38 1
    32   17   22 ar
    33   17   18 ar
    34   18   19 ar
    35   18   24 1
    36   19   20 ar
    37   19   39 1
    38   20   21 ar
    39   20   40 1
    40   21   22 ar
    41   21   41 1
    42   22   23 1
    43   25   26 2
    44   25   27 1
    45   27   42 1
    46   27   43 1
    47   28   44 1
    48   28   45 1
    49   28   46 1
@<TRIPOS>MOLECULE
ZINC05190760
   46    49     0     0     0
SMALL
USER_CHARGES
chloro-(2-chloro-6-fluoro-phenyl)-dimethyl-BLAHone
@<TRIPOS>ATOM
      1 C1         -1.1833    6.5400    3.0528 C.3       1 <0>        -0.1512
      2 C2         -0.8610    7.7663    2.1965 C.3       1 <0>        -0.0534
      3 C3         -0.7605    7.3598    0.7271 C.3       1 <0>        -0.1033
      4 C4          0.3360    6.3236    0.5508 C.2       1 <0>         0.2739
      5 C5          1.4298    6.3472    1.3332 C.2       1 <0>        -0.3046
      6 C6          2.5942    5.3903    1.2566 C.3       1 <0>         0.2741
      7 H1          3.5178    5.9688    1.2771 H         1 <0>         0.1114
      8 N1          2.6074    4.5480    0.0794 N.pl3     1 <0>        -0.7627
      9 C7          1.6071    3.6004   -0.1380 C.ar      1 <0>         0.1728
     10 C8          1.8780    2.2424   -0.1197 C.ar      1 <0>        -0.1195
     11 C9          0.8355    1.3397   -0.2522 C.ar      1 <0>        -0.0264
     12 C10        -0.4641    1.7901   -0.4068 C.ar      1 <0>        -0.1070
     13 C11        -0.7348    3.1474   -0.4367 C.ar      1 <0>        -0.1047
     14 C12         0.3082    4.0504   -0.3220 C.ar      1 <0>         0.1550
     15 N2          0.1185    5.4221   -0.4393 N.pl3     1 <0>        -0.6858
     16 Cl1         1.1618   -0.3652   -0.2314 Cl        1 <0>        -0.0685
     17 C13         2.5627    4.5025    2.4739 C.ar      1 <0>        -0.1161
     18 C14         1.4402    3.7388    2.7454 C.ar      1 <0>         0.1213
     19 C15         1.4149    2.9189    3.8607 C.ar      1 <0>        -0.1557
     20 C16         2.5054    2.8719    4.7088 C.ar      1 <0>        -0.0782
     21 C17         3.6236    3.6388    4.4411 C.ar      1 <0>        -0.1261
     22 C18         3.6529    4.4543    3.3234 C.ar      1 <0>         0.0152
     23 Cl2         5.0584    5.4163    2.9875 Cl        1 <0>        -0.0461
     24 F1          0.3722    3.7896    1.9195 F         1 <0>        -0.1195
     25 C19         1.5579    7.3267    2.3459 C.2       1 <0>         0.3966
     26 O1          2.5663    7.3395    3.0243 O.2       1 <0>        -0.4656
     27 C20         0.4946    8.3493    2.6131 C.3       1 <0>        -0.1497
     28 C21        -1.9548    8.8218    2.3702 C.3       1 <0>        -0.1415
     29 H2         -1.2233    6.8303    4.1027 H         1 <0>         0.0594
     30 H3         -2.1475    6.1302    2.7522 H         1 <0>         0.0601
     31 H4         -0.4087    5.7859    2.9136 H         1 <0>         0.0607
     32 H5         -0.5294    8.2377    0.1237 H         1 <0>         0.0928
     33 H6         -1.7120    6.9390    0.4021 H         1 <0>         0.0896
     34 H7          3.3232    4.6438   -0.5682 H         1 <0>         0.4021
     35 H8          2.8924    1.8904   -0.0037 H         1 <0>         0.1342
     36 H9         -1.2716    1.0790   -0.5000 H         1 <0>         0.1357
     37 H10        -1.7495    3.4985   -0.5529 H         1 <0>         0.1352
     38 H11        -0.1932    5.7604   -1.2933 H         1 <0>         0.4075
     39 H12         0.5415    2.3194    4.0705 H         1 <0>         0.1376
     40 H13         2.4838    2.2353    5.5809 H         1 <0>         0.1408
     41 H14         4.4751    3.6014    5.1044 H         1 <0>         0.1392
     42 H15         0.4749    8.5759    3.5869 H         1 <0>         0.0861
     43 H16         0.6992    9.2497    2.0339 H         1 <0>         0.0997
     44 H17        -1.7276    9.6866    1.7467 H         1 <0>         0.0604
     45 H18        -2.9156    8.4018    2.0726 H         1 <0>         0.0612
     46 H19        -2.0006    9.1291    3.4150 H         1 <0>         0.0628
@<TRIPOS>BOND
     1    1    2 1
     2    1   29 1
     3    1   30 1
     4    1   31 1
     5    2   27 1
     6    2    3 1
     7    2   28 1
     8    3    4 1
     9    3   32 1
    10    3   33 1
    11    4   15 1
    12    4    5 2
    13    5    6 1
    14    5   25 1
    15    6    7 1
    16    6    8 1
    17    6   17 1
    18    8    9 1
    19    8   34 1
    20    9   14 ar
    21    9   10 ar
    22   10   11 ar
    23   10   35 1
    24   11   12 ar
    25   11   16 1
    26   12   13 ar
    27   12   36 1
    28   13   14 ar
    29   13   37 1
    30   14   15 1
    31   15   38 1
    32   17   22 ar
    33   17   18 ar
    34   18   19 ar
    35   18   24 1
    36   19   20 ar
    37   19   39 1
    38   20   21 ar
    39   20   40 1
    40   21   22 ar
    41   21   41 1
    42   22   23 1
    43   25   26 2
    44   25   27 1
    45   27   42 1
    46   27   43 1
    47   28   44 1
    48   28   45 1
    49   28   46 1
@<TRIPOS>MOLECULE
ZINC08922776
   64    68     0     0     0
SMALL
USER_CHARGES
benzyl [2-(1H-indol-3-yl)-1-[2-(1H-indol-3-yl)ethylcarbamoyl]ethyl]aminoformate
@<TRIPOS>ATOM
      1 C1         -9.1280   -4.7315   -9.7588 C.ar      1 <0>        -0.1087
      2 C2         -8.7039   -5.8210   -9.0213 C.ar      1 <0>        -0.1244
      3 C3         -8.4246   -5.6779   -7.6751 C.ar      1 <0>        -0.0912
      4 C4         -8.5698   -4.4454   -7.0662 C.ar      1 <0>        -0.0973
      5 C5         -8.9994   -3.3572   -7.8025 C.ar      1 <0>        -0.0948
      6 C6         -9.2737   -3.4991   -9.1499 C.ar      1 <0>        -0.1239
      7 C7         -8.2658   -4.2895   -5.5985 C.3       1 <0>         0.1357
      8 O1         -6.8674   -3.9372   -5.4286 O.3       1 <0>        -0.3611
      9 C8         -6.4305   -3.7601   -4.1675 C.2       1 <0>         0.6571
     10 O2         -7.1967   -3.8963   -3.2343 O.2       1 <0>        -0.5547
     11 N1         -5.1433   -3.4319   -3.9401 N.am      1 <0>        -0.6954
     12 C9         -4.6678   -3.2392   -2.5679 C.3       1 <0>         0.1550
     13 H1         -5.4608   -2.7927   -1.9679 H         1 <0>         0.1179
     14 C10        -4.2757   -4.5916   -1.9694 C.3       1 <0>        -0.0514
     15 C11        -5.5002   -5.4616   -1.8487 C.2       1 <0>        -0.1634
     16 C12        -6.2734   -5.6054   -0.7608 C.2       1 <0>         0.0688
     17 N2         -7.2945   -6.4768   -1.0260 N.pl3     1 <0>        -0.5913
     18 H2         -7.9816   -6.7391   -0.3935 H         1 <0>         0.4139
     19 C13        -7.2009   -6.9265   -2.3240 C.ar      1 <0>         0.1049
     20 C14        -6.0763   -6.3059   -2.8981 C.ar      1 <0>        -0.0787
     21 C15        -5.7351   -6.5727   -4.2252 C.ar      1 <0>        -0.0769
     22 C16        -6.4985   -7.4342   -4.9618 C.ar      1 <0>        -0.1445
     23 C17        -7.6107   -8.0464   -4.4012 C.ar      1 <0>        -0.1058
     24 C18        -7.9612   -7.8030   -3.0910 C.ar      1 <0>        -0.1298
     25 C19        -3.4688   -2.3264   -2.5751 C.2       1 <0>         0.5113
     26 O3         -3.0523   -1.8807   -3.6234 O.2       1 <0>        -0.5278
     27 N3         -2.8592   -2.0054   -1.4168 N.am      1 <0>        -0.7247
     28 C20        -1.6935   -1.1181   -1.4239 C.3       1 <0>         0.1240
     29 C21        -1.1970   -0.9169    0.0093 C.3       1 <0>        -0.0523
     30 C22         0.0021   -0.0041    0.0020 C.2       1 <0>        -0.1740
     31 C23         1.2909   -0.3790   -0.0123 C.2       1 <0>         0.0623
     32 N4          2.0983    0.7258   -0.0141 N.pl3     1 <0>        -0.5948
     33 H3          3.0681    0.7073   -0.0231 H         1 <0>         0.4172
     34 C24         1.3290    1.8677   -0.0006 C.ar      1 <0>         0.0947
     35 C25        -0.0178    1.4607    0.0101 C.ar      1 <0>        -0.1003
     36 C26        -1.0343    2.4172    0.0300 C.ar      1 <0>        -0.0716
     37 C27        -0.7155    3.7461    0.0298 C.ar      1 <0>        -0.1444
     38 C28         0.6114    4.1527    0.0193 C.ar      1 <0>        -0.0979
     39 C29         1.6305    3.2255    0.0042 C.ar      1 <0>        -0.1302
     40 H4         -9.3459   -4.8432  -10.8107 H         1 <0>         0.1238
     41 H5         -8.5904   -6.7840   -9.4970 H         1 <0>         0.1250
     42 H6         -8.0932   -6.5291   -7.0989 H         1 <0>         0.1260
     43 H7         -9.1171   -2.3952   -7.3258 H         1 <0>         0.1231
     44 H8         -9.6055   -2.6479   -9.7260 H         1 <0>         0.1248
     45 H9         -8.4690   -5.2285   -5.0836 H         1 <0>         0.0804
     46 H10        -8.8923   -3.5023   -5.1792 H         1 <0>         0.0736
     47 H11        -4.5316   -3.3231   -4.6851 H         1 <0>         0.4131
     48 H12        -3.5468   -5.0781   -2.6176 H         1 <0>         0.0805
     49 H13        -3.8394   -4.4393   -0.9822 H         1 <0>         0.0854
     50 H14        -6.1131   -5.1073    0.1839 H         1 <0>         0.1649
     51 H15        -4.8712   -6.0997   -4.6682 H         1 <0>         0.1135
     52 H16        -6.2339   -7.6406   -5.9884 H         1 <0>         0.1178
     53 H17        -8.2042   -8.7249   -4.9960 H         1 <0>         0.1215
     54 H18        -8.8296   -8.2829   -2.6643 H         1 <0>         0.1158
     55 H19        -3.1922   -2.3619   -0.5784 H         1 <0>         0.4029
     56 H20        -1.9729   -0.1546   -1.8502 H         1 <0>         0.0711
     57 H21        -0.9006   -1.5646   -2.0238 H         1 <0>         0.0707
     58 H22        -0.9176   -1.8803    0.4356 H         1 <0>         0.0777
     59 H23        -1.9899   -0.4703    0.6092 H         1 <0>         0.0777
     60 H24         1.6391   -1.4013   -0.0211 H         1 <0>         0.1707
     61 H25        -2.0691    2.1081    0.0430 H         1 <0>         0.1205
     62 H26        -1.5024    4.4857    0.0412 H         1 <0>         0.1226
     63 H27         0.8476    5.2066    0.0226 H         1 <0>         0.1255
     64 H28         2.6600    3.5519   -0.0043 H         1 <0>         0.1198
@<TRIPOS>BOND
     1    1    6 ar
     2    1    2 ar
     3    1   40 1
     4    2    3 ar
     5    2   41 1
     6    3    4 ar
     7    3   42 1
     8    4    5 ar
     9    4    7 1
    10    5    6 ar
    11    5   43 1
    12    6   44 1
    13    7    8 1
    14    7   45 1
    15    7   46 1
    16    8    9 1
    17    9   10 2
    18    9   11 am
    19   11   12 1
    20   11   47 1
    21   12   13 1
    22   12   14 1
    23   12   25 1
    24   14   15 1
    25   14   48 1
    26   14   49 1
    27   15   20 1
    28   15   16 2
    29   16   17 1
    30   16   50 1
    31   17   18 1
    32   17   19 1
    33   19   24 ar
    34   19   20 ar
    35   20   21 ar
    36   21   22 ar
    37   21   51 1
    38   22   23 ar
    39   22   52 1
    40   23   24 ar
    41   23   53 1
    42   24   54 1
    43   25   26 2
    44   25   27 am
    45   27   28 1
    46   27   55 1
    47   28   29 1
    48   28   56 1
    49   28   57 1
    50   29   30 1
    51   29   58 1
    52   29   59 1
    53   30   35 1
    54   30   31 2
    55   31   32 1
    56   31   60 1
    57   32   33 1
    58   32   34 1
    59   34   39 ar
    60   34   35 ar
    61   35   36 ar
    62   36   37 ar
    63   36   61 1
    64   37   38 ar
    65   37   62 1
    66   38   39 ar
    67   38   63 1
    68   39   64 1
