@<TRIPOS>MOLECULE
ZINC00527386
   45    48     0     0     0
SMALL
USER_CHARGES

@<TRIPOS>ATOM
      1 C1         -0.0167    1.3782    0.0096 C.ar      1 <0>        -0.0786
      2 C2          1.1703    2.0860    0.0021 C.ar      1 <0>        -0.1478
      3 C3          2.3786    1.4101   -0.0131 C.ar      1 <0>         0.1155
      4 C4          2.3962    0.0256   -0.0207 C.ar      1 <0>        -0.1485
      5 C5          1.2079   -0.6800   -0.0132 C.ar      1 <0>        -0.0833
      6 C6          0.0021   -0.0041    0.0020 C.ar      1 <0>        -0.1160
      7 C7         -1.2930   -0.7747    0.0103 C.3       1 <0>        -0.0467
      8 H1         -2.1314   -0.0783    0.0220 H         1 <0>         0.1035
      9 C8         -1.3504   -1.6663    1.2540 C.3       1 <0>        -0.1398
     10 C9         -2.6302   -2.5042    1.2156 C.3       1 <0>        -0.0090
     11 N1         -2.6348   -3.3421    0.0104 N.4       1 <0>        -0.5052
     12 C10        -2.6523   -2.4927   -1.1866 C.3       1 <0>        -0.0061
     13 C11        -1.3743   -1.6529   -1.2416 C.3       1 <0>        -0.1007
     14 H2         -0.5077   -2.3130   -1.2801 H         1 <0>         0.1106
     15 C12        -1.3973   -0.7654   -2.4877 C.3       1 <0>         0.0632
     16 O1         -1.3556   -1.5854   -3.6573 O.3       1 <0>        -0.3149
     17 C13        -1.3694   -0.9484   -4.8586 C.ar      1 <0>         0.1338
     18 C14        -1.4163    0.4369   -4.9082 C.ar      1 <0>        -0.1955
     19 C15        -1.4304    1.0865   -6.1281 C.ar      1 <0>        -0.0597
     20 C16        -1.3978    0.3558   -7.3046 C.ar      1 <0>         0.0066
     21 C17        -1.3507   -1.0351   -7.2573 C.ar      1 <0>         0.0775
     22 C18        -1.3310   -1.6838   -6.0334 C.ar      1 <0>        -0.1326
     23 O2         -1.3260   -1.5147   -8.5352 O.3       1 <0>        -0.3028
     24 C19        -1.7704   -0.4244   -9.3640 C.3       1 <0>         0.2131
     25 O3         -1.4025    0.7478   -8.6132 O.3       1 <0>        -0.3042
     26 F1          3.5396    2.1009   -0.0209 F         1 <0>        -0.1301
     27 H3         -0.9592    1.9052    0.0260 H         1 <0>         0.1361
     28 H4          1.1554    3.1659    0.0077 H         1 <0>         0.1428
     29 H5          3.3381   -0.5027   -0.0329 H         1 <0>         0.1414
     30 H6          1.2213   -1.7599   -0.0195 H         1 <0>         0.1298
     31 H7         -0.4833   -2.3267    1.2687 H         1 <0>         0.0938
     32 H8         -1.3497   -1.0436    2.1486 H         1 <0>         0.1200
     33 H9         -2.6744   -3.1401    2.0998 H         1 <0>         0.1375
     34 H10        -3.4966   -1.8429    1.2011 H         1 <0>         0.1332
     35 H11        -1.8072   -3.9191    0.0000 H         1 <0>         0.4292
     36 H12        -2.7128   -3.1202   -2.0759 H         1 <0>         0.1435
     37 H13        -3.5182   -1.8317   -1.1499 H         1 <0>         0.1340
     38 H14        -2.3107   -0.1706   -2.4933 H         1 <0>         0.0766
     39 H15        -0.5321   -0.1026   -2.4777 H         1 <0>         0.0872
     40 H16        -1.4421    1.0088   -3.9923 H         1 <0>         0.1409
     41 H17        -1.4672    2.1652   -6.1642 H         1 <0>         0.1431
     42 H18        -1.2900   -2.7623   -5.9944 H         1 <0>         0.1446
     43 H19        -1.2571   -0.4402  -10.3254 H         1 <0>         0.1387
     44 H20        -2.8505   -0.4658   -9.5047 H         1 <0>         0.0906
     45 H21        -3.4535   -3.9318    0.0151 H         1 <0>         0.4349
@<TRIPOS>BOND
     1    1    6 ar
     2    1    2 ar
     3    1   27 1
     4    2    3 ar
     5    2   28 1
     6    3    4 ar
     7    3   26 1
     8    4    5 ar
     9    4   29 1
    10    5    6 ar
    11    5   30 1
    12    6    7 1
    13    7    8 1
    14    7   13 1
    15    7    9 1
    16    9   10 1
    17    9   31 1
    18    9   32 1
    19   10   11 1
    20   10   33 1
    21   10   34 1
    22   11   12 1
    23   11   35 1
    24   11   45 1
    25   12   13 1
    26   12   36 1
    27   12   37 1
    28   13   14 1
    29   13   15 1
    30   15   16 1
    31   15   38 1
    32   15   39 1
    33   16   17 1
    34   17   22 ar
    35   17   18 ar
    36   18   19 ar
    37   18   40 1
    38   19   20 ar
    39   19   41 1
    40   20   25 1
    41   20   21 ar
    42   21   22 ar
    43   21   23 1
    44   22   42 1
    45   23   24 1
    46   24   25 1
    47   24   43 1
    48   24   44 1
