@<TRIPOS>MOLECULE
ZINC01529776
   30    29     0     0     0
SMALL
USER_CHARGES

@<TRIPOS>ATOM
      1 C1         -0.0178    1.4608    0.0101 C.3       1 <0>         0.0551
      2 N1          0.0021   -0.0041    0.0020 N.pl3     1 <0>        -0.6967
      3 C2          0.5968   -0.6778   -1.0385 C.cat     1 <0>         0.7320
      4 N2          1.1429   -0.0132   -2.0177 N.pl3     1 <0>        -0.7705
      5 N3          0.6154   -2.0524   -1.0460 N.pl3     1 <0>        -0.7005
      6 C3          1.2492   -2.7703   -2.1547 C.3       1 <0>         0.0939
      7 C4          1.1321   -4.2776   -1.9196 C.3       1 <0>        -0.1464
      8 C5          1.7939   -5.0273   -3.0775 C.3       1 <0>        -0.1250
      9 C6          1.6769   -6.5346   -2.8423 C.3       1 <0>        -0.0511
     10 H1          0.6297   -6.7992   -2.6953 H         1 <0>         0.1370
     11 C7          2.2183   -7.2733   -4.0391 C.2       1 <0>         0.4860
     12 O1          3.2648   -7.8927   -3.9510 O.co2     1 <0>        -0.6645
     13 O2          1.6099   -7.2515   -5.0955 O.co2     1 <0>        -0.6296
     14 N4          2.4479   -6.9052   -1.6482 N.4       1 <0>        -0.6147
     15 H2          1.0048    1.8381    0.0023 H         1 <0>         0.0856
     16 H3         -0.5450    1.8219   -0.8730 H         1 <0>         0.0860
     17 H4         -0.5280    1.8123    0.9069 H         1 <0>         0.1178
     18 H5         -0.4044   -0.4986    0.7308 H         1 <0>         0.4371
     19 H6          1.5625   -0.4885   -2.7518 H         1 <0>         0.4413
     20 H7          0.2090   -2.5470   -0.3173 H         1 <0>         0.4341
     21 H8          0.7517   -2.5086   -3.0886 H         1 <0>         0.0993
     22 H9          2.3015   -2.4924   -2.2133 H         1 <0>         0.0954
     23 H10         1.6295   -4.5394   -0.9857 H         1 <0>         0.0726
     24 H11         0.0798   -4.5556   -1.8610 H         1 <0>         0.0947
     25 H12         1.2965   -4.7656   -4.0114 H         1 <0>         0.1189
     26 H13         2.8463   -4.7494   -3.1361 H         1 <0>         0.0903
     27 H14         2.0854   -6.4107   -0.8469 H         1 <0>         0.4084
     28 H15         2.3707   -7.8993   -1.4931 H         1 <0>         0.4382
     29 H16         1.1298    0.9567   -2.0124 H         1 <0>         0.4423
     30 H17         3.4172   -6.6604   -1.7843 H         1 <0>         0.4331
@<TRIPOS>BOND
     1    1    2 1
     2    1   15 1
     3    1   16 1
     4    1   17 1
     5    2    3 1
     6    2   18 1
     7    3    4 2
     8    3    5 1
     9    4   19 1
    10    4   29 1
    11    5    6 1
    12    5   20 1
    13    6    7 1
    14    6   21 1
    15    6   22 1
    16    7    8 1
    17    7   23 1
    18    7   24 1
    19    8    9 1
    20    8   25 1
    21    8   26 1
    22    9   10 1
    23    9   11 1
    24    9   14 1
    25   11   12 2
    26   11   13 1
    27   14   27 1
    28   14   28 1
    29   14   30 1
