@<TRIPOS>MOLECULE
ZINC02022527
   54    55     0     0     0
SMALL
USER_CHARGES

@<TRIPOS>ATOM
      1 C1         -3.0730    2.2881   -4.2693 C.3       1 <0>        -0.1569
      2 C2         -2.3049    1.5870   -3.1471 C.3       1 <0>        -0.1270
      3 C3         -2.8110    2.0874   -1.7927 C.3       1 <0>        -0.1231
      4 C4         -2.0429    1.3862   -0.6705 C.3       1 <0>        -0.1174
      5 C5         -2.5490    1.8867    0.6839 C.3       1 <0>        -0.1006
      6 C6         -2.2117    3.3722    0.8391 C.3       1 <0>        -0.1451
      7 C7         -2.6658    3.8518    2.2196 C.3       1 <0>        -0.0114
      8 C8         -2.3347    1.6429    3.1595 C.3       1 <0>        -0.0001
      9 C9         -1.8707    1.0973    1.8070 C.3       1 <0>        -0.1442
     10 C10        -2.2939    3.5901    4.5974 C.3       1 <0>        -0.0052
     11 C11        -2.1583    5.1140    4.5919 C.3       1 <0>        -0.1459
     12 C12        -2.4764    5.6593    5.9856 C.3       1 <0>        -0.1543
     13 C13        -2.3428    7.1604    5.9803 C.2       1 <0>         0.3987
     14 O1         -2.0245    7.7371    4.9623 O.2       1 <0>        -0.4456
     15 C14        -2.5986    7.9263    7.2106 C.ar      1 <0>        -0.1885
     16 C15        -3.0878    7.2813    8.3513 C.ar      1 <0>        -0.0705
     17 C16        -3.3195    8.0047    9.5018 C.ar      1 <0>        -0.1389
     18 C17        -3.0801    9.3679    9.5265 C.ar      1 <0>        -0.0729
     19 C18        -2.6016   10.0143    8.4004 C.ar      1 <0>        -0.1345
     20 C19        -2.3594    9.3036    7.2436 C.ar      1 <0>        -0.0178
     21 C20        -1.8387   10.0095    6.0182 C.3       1 <0>        -0.1264
     22 H1         -4.1363    2.0676   -4.1746 H         1 <0>         0.0549
     23 H2         -2.9175    3.3647   -4.1985 H         1 <0>         0.0540
     24 H3         -2.7125    1.9316   -5.2342 H         1 <0>         0.0581
     25 H4         -1.2417    1.8075   -3.2417 H         1 <0>         0.0621
     26 H5         -2.4605    0.5104   -3.2179 H         1 <0>         0.0631
     27 H6         -3.8743    1.8669   -1.6981 H         1 <0>         0.0644
     28 H7         -2.6555    3.1639   -1.7219 H         1 <0>         0.0632
     29 H8         -2.1984    0.3097   -0.7413 H         1 <0>         0.0733
     30 H9         -0.9796    1.6067   -0.7651 H         1 <0>         0.0688
     31 H10        -3.6287    1.7492    0.7427 H         1 <0>         0.0884
     32 H11        -1.1354    3.5132    0.7407 H         1 <0>         0.0881
     33 H12        -2.7264    3.9447    0.0675 H         1 <0>         0.1133
     34 H13        -3.7442    3.7233    2.3122 H         1 <0>         0.1295
     35 H14        -2.4142    4.9057    2.3388 H         1 <0>         0.1342
     36 H15        -3.4146    1.5248    3.2476 H         1 <0>         0.1293
     37 H16        -1.8426    1.0924    3.9613 H         1 <0>         0.1282
     38 H17        -2.1418    0.0446    1.7270 H         1 <0>         0.1118
     39 H18        -0.7890    1.2025    1.7239 H         1 <0>         0.0880
     40 H19        -3.3133    3.3170    4.8704 H         1 <0>         0.1315
     41 H20        -1.5979    3.1659    5.3211 H         1 <0>         0.1302
     42 H21        -1.1389    5.3871    4.3190 H         1 <0>         0.0944
     43 H22        -2.8542    5.5382    3.8682 H         1 <0>         0.0968
     44 H23        -3.4115    5.4088    6.2361 H         1 <0>         0.0981
     45 H24        -1.7805    5.2352    6.7093 H         1 <0>         0.1100
     46 H25        -3.2793    6.2186    8.3321 H         1 <0>         0.1290
     47 H26        -3.6933    7.5074   10.3846 H         1 <0>         0.1322
     48 H27        -3.2682    9.9300   10.4293 H         1 <0>         0.1326
     49 H28        -2.4176   11.0782    8.4274 H         1 <0>         0.1332
     50 H29        -2.6709   10.2515    5.3572 H         1 <0>         0.0784
     51 H30        -1.3321   10.9277    6.3156 H         1 <0>         0.0652
     52 H31        -1.1365    9.3600    5.4956 H         1 <0>         0.0893
     53 N1         -1.9588    3.0696    3.2558 N.4       1 <0>        -0.3931
     54 H32        -0.9467    3.1581    3.1071 H         1 <0>         0.4272
@<TRIPOS>BOND
     1    1    2 1
     2    1   22 1
     3    1   23 1
     4    1   24 1
     5    2    3 1
     6    2   25 1
     7    2   26 1
     8    3    4 1
     9    3   27 1
    10    3   28 1
    11    4    5 1
    12    4   29 1
    13    4   30 1
    14    5    9 1
    15    5    6 1
    16    5   31 1
    17    6    7 1
    18    6   32 1
    19    6   33 1
    20    7   34 1
    21    7   35 1
    22    7   53 1
    23    8    9 1
    24    8   36 1
    25    8   37 1
    26    8   53 1
    27    9   38 1
    28    9   39 1
    29   10   11 1
    30   10   40 1
    31   10   41 1
    32   10   53 1
    33   11   12 1
    34   11   42 1
    35   11   43 1
    36   12   13 1
    37   12   44 1
    38   12   45 1
    39   13   14 2
    40   13   15 1
    41   15   20 ar
    42   15   16 ar
    43   16   17 ar
    44   16   46 1
    45   17   18 ar
    46   17   47 1
    47   18   19 ar
    48   18   48 1
    49   19   20 ar
    50   19   49 1
    51   20   21 1
    52   21   50 1
    53   21   51 1
    54   21   52 1
    55   53   54 1
@<TRIPOS>MOLECULE
ZINC03828640
   64    68     0     0     0
SMALL
USER_CHARGES

@<TRIPOS>ATOM
      1 C1          2.4030   -3.5768   -2.0092 C.ar      1 <0>        -0.1203
      2 C2          3.6670   -3.0308   -2.2260 C.ar      1 <0>        -0.0806
      3 C3          4.1055   -1.9679   -1.4981 C.ar      1 <0>        -0.1408
      4 C4          3.2737   -1.4096   -0.5123 C.ar      1 <0>         0.0301
      5 C5          1.9881   -1.9645   -0.2921 C.ar      1 <0>        -0.0755
      6 C6          1.5704   -3.0626   -1.0635 C.ar      1 <0>        -0.0905
      7 C7          1.1563   -1.4060    0.6930 C.ar      1 <0>        -0.0358
      8 C8          1.5947   -0.3425    1.4208 C.ar      1 <0>        -0.1522
      9 C9          2.8583    0.2032    1.2041 C.ar      1 <0>         0.0093
     10 C10         3.6914   -0.3118    0.2587 C.ar      1 <0>        -0.6758
     11 S1          5.2853    0.3945    0.0034 S.o2      1 <0>         2.6957
     12 O1          5.3860    1.5007    0.8896 O.2       1 <0>        -0.9606
     13 O2          6.2136   -0.6813    0.0193 O.2       1 <0>        -0.9492
     14 N1          5.3058    1.0147   -1.5320 N.pl3     1 <0>        -1.1160
     15 C11         4.4105    2.1181   -1.8883 C.3       1 <0>         0.1171
     16 C12         4.8902    2.7643   -3.1895 C.3       1 <0>        -0.0952
     17 C13         6.2587    3.4102   -2.9638 C.3       1 <0>        -0.1158
     18 C14         6.1448    4.4793   -1.8752 C.3       1 <0>        -0.1217
     19 C15         5.1422    5.5487   -2.3134 C.3       1 <0>        -0.0956
     20 C16         3.7737    4.9028   -2.5391 C.3       1 <0>        -0.1255
     21 C17         3.8876    3.8337   -3.6277 C.3       1 <0>        -0.1134
     22 C18         5.0283    6.6177   -1.2248 C.3       1 <0>         0.0885
     23 N2          4.1608    7.7013   -1.6934 N.pl3     1 <0>        -0.6662
     24 C19         3.9075    8.7873   -0.8752 C.ar      1 <0>         0.6845
     25 N3          4.4656    8.8219    0.3199 N.ar      1 <0>        -0.5846
     26 C20         4.2448    9.8579    1.1425 C.ar      1 <0>         0.2022
     27 C21         4.8216    9.9274    2.4180 C.ar      1 <0>        -0.1475
     28 C22         4.5652   11.0033    3.2152 C.ar      1 <0>        -0.0186
     29 C23         3.7380   12.0356    2.7823 C.ar      1 <0>        -0.1209
     30 C24         3.1607   11.9993    1.5468 C.ar      1 <0>        -0.0370
     31 C25         3.4039   10.9096    0.7040 C.ar      1 <0>        -0.1948
     32 C26         2.8323   10.8181   -0.5896 C.ar      1 <0>         0.5606
     33 N4          3.1160    9.7554   -1.3282 N.ar      1 <0>        -0.5977
     34 N5          2.0062   11.8119   -1.0692 N.pl3     1 <0>        -0.7694
     35 H1          2.0778   -4.4178   -2.6036 H         1 <0>         0.1319
     36 H2          4.3081   -3.4580   -2.9829 H         1 <0>         0.1328
     37 H3          5.0877   -1.5558   -1.6767 H         1 <0>         0.1313
     38 H4          0.5936   -3.4958   -0.9069 H         1 <0>         0.1342
     39 H5          0.1742   -1.8182    0.8715 H         1 <0>         0.1385
     40 H6          0.9534    0.0849    2.1774 H         1 <0>         0.1364
     41 H7          3.1817    1.0473    1.7952 H         1 <0>         0.1434
     42 H8          5.9106    0.6473   -2.1954 H         1 <0>         0.4207
     43 H9          3.3988    1.7358   -2.0240 H         1 <0>         0.0668
     44 H10         4.4142    2.8611   -1.0907 H         1 <0>         0.0824
     45 H11         4.9714    2.0027   -3.9650 H         1 <0>         0.0867
     46 H12         6.9730    2.6484   -2.6516 H         1 <0>         0.0741
     47 H13         6.6005    3.8706   -3.8908 H         1 <0>         0.0711
     48 H14         5.8030    4.0189   -0.9482 H         1 <0>         0.0792
     49 H15         7.1198    4.9394   -1.7144 H         1 <0>         0.0726
     50 H16         5.4840    6.0090   -3.2404 H         1 <0>         0.0914
     51 H17         3.4319    4.4424   -1.6121 H         1 <0>         0.0729
     52 H18         3.0594    5.6646   -2.8514 H         1 <0>         0.0650
     53 H19         4.2294    4.2941   -4.5547 H         1 <0>         0.0738
     54 H20         2.9127    3.3736   -3.7885 H         1 <0>         0.0731
     55 H21         4.6027    6.1752   -0.3242 H         1 <0>         0.0902
     56 H22         6.0182    7.0156   -1.0013 H         1 <0>         0.0896
     57 H23         3.7641    7.6571   -2.5774 H         1 <0>         0.4405
     58 H24         5.4649    9.1334    2.7674 H         1 <0>         0.1568
     59 H25         5.0104   11.0552    4.1977 H         1 <0>         0.1559
     60 H26         3.5503   12.8765    3.4335 H         1 <0>         0.1526
     61 H27         2.5203   12.8060    1.2219 H         1 <0>         0.1487
     62 H28         1.8096   12.5865   -0.5193 H         1 <0>         0.4311
     63 H29         1.6216   11.7367   -1.9564 H         1 <0>         0.4316
     64 H30         5.0388    8.0933    0.6055 H         1 <0>         0.4384
@<TRIPOS>BOND
     1    1    6 ar
     2    1    2 ar
     3    1   35 1
     4    2    3 ar
     5    2   36 1
     6    3    4 ar
     7    3   37 1
     8    4   10 ar
     9    4    5 ar
    10    5    6 ar
    11    5    7 ar
    12    6   38 1
    13    7    8 ar
    14    7   39 1
    15    8    9 ar
    16    8   40 1
    17    9   10 ar
    18    9   41 1
    19   10   11 1
    20   11   12 2
    21   11   13 2
    22   11   14 1
    23   14   15 1
    24   14   42 1
    25   15   16 1
    26   15   43 1
    27   15   44 1
    28   16   21 1
    29   16   17 1
    30   16   45 1
    31   17   18 1
    32   17   46 1
    33   17   47 1
    34   18   19 1
    35   18   48 1
    36   18   49 1
    37   19   20 1
    38   19   22 1
    39   19   50 1
    40   20   21 1
    41   20   51 1
    42   20   52 1
    43   21   53 1
    44   21   54 1
    45   22   23 1
    46   22   55 1
    47   22   56 1
    48   23   24 1
    49   23   57 1
    50   24   33 ar
    51   24   25 ar
    52   25   26 ar
    53   25   64 1
    54   26   31 ar
    55   26   27 ar
    56   27   28 ar
    57   27   58 1
    58   28   29 ar
    59   28   59 1
    60   29   30 ar
    61   29   60 1
    62   30   31 ar
    63   30   61 1
    64   31   32 ar
    65   32   33 ar
    66   32   34 1
    67   34   62 1
    68   34   63 1
@<TRIPOS>MOLECULE
ZINC03952359
   75    77     0     0     0
SMALL
USER_CHARGES
2-(2,2-diphenylacetyl)amino-5-guanidino-N-[[4-(ureidomethyl)phenyl]methyl]pentanamide
@<TRIPOS>ATOM
      1 C1        -10.1298   -8.1631    0.5928 C.ar      1 <0>        -0.1096
      2 C2        -11.2193   -8.0973   -0.2554 C.ar      1 <0>        -0.1133
      3 C3        -11.6818   -6.8702   -0.6927 C.ar      1 <0>        -0.1070
      4 C4        -11.0544   -5.7089   -0.2821 C.ar      1 <0>        -0.0879
      5 C5         -9.9613   -5.7749    0.5616 C.ar      1 <0>        -0.1073
      6 C6         -9.5025   -7.0017    1.0034 C.ar      1 <0>        -0.1131
      7 C7        -11.5583   -4.3711   -0.7592 C.3       1 <0>        -0.0210
      8 C8        -12.1658   -3.6213    0.3983 C.ar      1 <0>        -0.0709
      9 C9        -11.3665   -3.1987    1.4439 C.ar      1 <0>        -0.0789
     10 C10       -11.9228   -2.5062    2.5031 C.ar      1 <0>        -0.1213
     11 C11       -13.2803   -2.2459    2.5219 C.ar      1 <0>        -0.1138
     12 C12       -14.0806   -2.6734    1.4790 C.ar      1 <0>        -0.1234
     13 C13       -13.5233   -3.3609    0.4170 C.ar      1 <0>        -0.1116
     14 C14       -10.4111   -3.5755   -1.3266 C.2       1 <0>         0.5316
     15 O1        -10.1159   -2.5049   -0.8391 O.2       1 <0>        -0.5271
     16 N1         -9.7132   -4.0536   -2.3758 N.am      1 <0>        -0.7086
     17 C15        -8.5980   -3.2801   -2.9273 C.3       1 <0>         0.1308
     18 H1         -8.0842   -2.7575   -2.1206 H         1 <0>         0.1196
     19 C16        -9.1333   -2.2612   -3.9354 C.3       1 <0>        -0.1243
     20 C17       -10.0141   -1.2413   -3.2109 C.3       1 <0>        -0.1287
     21 C18       -10.5494   -0.2224   -4.2190 C.3       1 <0>         0.0915
     22 N2        -11.3927    0.7543   -3.5252 N.pl3     1 <0>        -0.6944
     23 C19       -11.9879    1.7729   -4.2311 C.cat     1 <0>         0.7377
     24 N3        -12.7793    2.6894   -3.5800 N.pl3     1 <0>        -0.8073
     25 C20        -7.6340   -4.2106   -3.6174 C.2       1 <0>         0.5084
     26 O2         -7.8567   -5.4024   -3.6455 O.2       1 <0>        -0.5200
     27 N4         -6.5246   -3.7182   -4.2031 N.am      1 <0>        -0.7193
     28 C21        -5.5874   -4.6227   -4.8737 C.3       1 <0>         0.1602
     29 C22        -4.4402   -3.8271   -5.4412 C.ar      1 <0>        -0.1065
     30 C23        -3.3119   -3.5989   -4.6757 C.ar      1 <0>        -0.0995
     31 C24        -2.2597   -2.8691   -5.1962 C.ar      1 <0>        -0.0984
     32 C25        -2.3352   -2.3682   -6.4824 C.ar      1 <0>        -0.0961
     33 C26        -3.4655   -2.5923   -7.2461 C.ar      1 <0>        -0.1004
     34 C27        -4.5160   -3.3258   -6.7272 C.ar      1 <0>        -0.1014
     35 C28        -1.1880   -1.5725   -7.0498 C.3       1 <0>         0.1766
     36 N5         -0.2504   -2.4773   -7.7197 N.am      1 <0>        -0.7437
     37 C29         0.8564   -1.9844   -8.3100 C.2       1 <0>         0.7054
     38 O3          1.0793   -0.7893   -8.2823 O.2       1 <0>        -0.5925
     39 N6          1.7162   -2.8160   -8.9310 N.am      1 <0>        -0.8658
     40 H2         -9.7690   -9.1218    0.9350 H         1 <0>         0.1257
     41 H3        -11.7095   -9.0047   -0.5762 H         1 <0>         0.1268
     42 H4        -12.5331   -6.8188   -1.3553 H         1 <0>         0.1238
     43 H5         -9.4685   -4.8678    0.8787 H         1 <0>         0.1187
     44 H6         -8.6513   -7.0530    1.6663 H         1 <0>         0.1244
     45 H7        -12.3131   -4.5214   -1.5310 H         1 <0>         0.1109
     46 H8        -10.3066   -3.4060    1.4313 H         1 <0>         0.1203
     47 H9        -11.2976   -2.1720    3.3178 H         1 <0>         0.1225
     48 H10       -13.7156   -1.7082    3.3512 H         1 <0>         0.1224
     49 H11       -15.1412   -2.4700    1.4936 H         1 <0>         0.1226
     50 H12       -14.1485   -3.6950   -0.3978 H         1 <0>         0.1194
     51 H13        -9.9493   -4.9098   -2.7657 H         1 <0>         0.4151
     52 H14        -8.2980   -1.7471   -4.4108 H         1 <0>         0.0853
     53 H15        -9.7226   -2.7759   -4.6943 H         1 <0>         0.0817
     54 H16       -10.8494   -1.7553   -2.7354 H         1 <0>         0.0879
     55 H17        -9.4248   -0.7265   -2.4520 H         1 <0>         0.0927
     56 H18        -9.7140    0.2917   -4.6944 H         1 <0>         0.0915
     57 H19       -11.1386   -0.7372   -4.9778 H         1 <0>         0.0898
     58 H20       -11.5311    0.6822   -2.5679 H         1 <0>         0.4358
     59 H21       -12.1790    2.5530   -6.1028 H         1 <0>         0.4509
     60 H22       -12.9177    2.6173   -2.6226 H         1 <0>         0.4404
     61 H23       -13.1993    3.4081   -4.0780 H         1 <0>         0.4384
     62 H24        -6.3465   -2.7649   -4.1805 H         1 <0>         0.4028
     63 H25        -6.1013   -5.1453   -5.6805 H         1 <0>         0.0818
     64 H26        -5.2061   -5.3486   -4.1556 H         1 <0>         0.0816
     65 H27        -3.2527   -3.9905   -3.6710 H         1 <0>         0.1277
     66 H28        -1.3783   -2.6905   -4.5980 H         1 <0>         0.1295
     67 H29        -3.5263   -2.1972   -8.2493 H         1 <0>         0.1283
     68 H30        -5.3973   -3.5044   -7.3253 H         1 <0>         0.1263
     69 H31        -0.6745   -1.0494   -6.2431 H         1 <0>         0.0778
     70 H32        -1.5693   -0.8472   -7.7685 H         1 <0>         0.0771
     71 H33        -0.4282   -3.4306   -7.7417 H         1 <0>         0.3984
     72 H34         1.5383   -3.7693   -8.9531 H         1 <0>         0.3979
     73 H35         2.5126   -2.4612   -9.3559 H         1 <0>         0.4178
     74 N7        -11.7595    1.8161   -5.5356 N.pl3     1 <0>        -0.7974
     75 H36       -11.1605    1.1077   -5.9757 H         1 <0>         0.4544
@<TRIPOS>BOND
     1    1    6 ar
     2    1    2 ar
     3    1   40 1
     4    2    3 ar
     5    2   41 1
     6    3    4 ar
     7    3   42 1
     8    4    5 ar
     9    4    7 1
    10    5    6 ar
    11    5   43 1
    12    6   44 1
    13    7    8 1
    14    7   14 1
    15    7   45 1
    16    8   13 ar
    17    8    9 ar
    18    9   10 ar
    19    9   46 1
    20   10   11 ar
    21   10   47 1
    22   11   12 ar
    23   11   48 1
    24   12   13 ar
    25   12   49 1
    26   13   50 1
    27   14   15 2
    28   14   16 am
    29   16   17 1
    30   16   51 1
    31   17   18 1
    32   17   19 1
    33   17   25 1
    34   19   20 1
    35   19   52 1
    36   19   53 1
    37   20   21 1
    38   20   54 1
    39   20   55 1
    40   21   22 1
    41   21   56 1
    42   21   57 1
    43   22   23 1
    44   22   58 1
    45   23   24 1
    46   23   74 2
    47   24   60 1
    48   24   61 1
    49   25   26 2
    50   25   27 am
    51   27   28 1
    52   27   62 1
    53   28   29 1
    54   28   63 1
    55   28   64 1
    56   29   34 ar
    57   29   30 ar
    58   30   31 ar
    59   30   65 1
    60   31   32 ar
    61   31   66 1
    62   32   33 ar
    63   32   35 1
    64   33   34 ar
    65   33   67 1
    66   34   68 1
    67   35   36 1
    68   35   69 1
    69   35   70 1
    70   36   37 am
    71   36   71 1
    72   37   38 2
    73   37   39 am
    74   39   72 1
    75   39   73 1
    76   59   74 1
    77   74   75 1
@<TRIPOS>MOLECULE
ZINC27727562
   80    84     0     0     0
SMALL
USER_CHARGES
2-(phenoxymethyl)-4-[3-(1-piperidyl)propoxy]-1-[3-(4-piperidyl)propyl]benzimidazole
@<TRIPOS>ATOM
      1 C1         -0.0167    1.3784    0.0096 C.ar      1 <0>        -0.1502
      2 C2          1.1698    2.0883    0.0021 C.ar      1 <0>        -0.0800
      3 C3          2.3774    1.4175   -0.0131 C.ar      1 <0>        -0.2111
      4 C4          2.3989    0.0304   -0.0208 C.ar      1 <0>         0.1230
      5 C5          1.2070   -0.6796   -0.0132 C.ar      1 <0>        -0.1457
      6 C6          0.0021   -0.0041    0.0020 C.ar      1 <0>        -0.0756
      7 O1          3.5855   -0.6319   -0.0353 O.3       1 <0>        -0.3085
      8 C7          4.7725    0.1638   -0.0424 C.3       1 <0>         0.1422
      9 C8          5.9808   -0.7367   -0.0583 C.2       1 <0>         0.2702
     10 N1          6.5918   -1.1829    0.9997 N.2       1 <0>        -0.4459
     11 C9          7.6360   -1.9672    0.6268 C.ar      1 <0>         0.0204
     12 C10         7.6550   -1.9847   -0.7769 C.ar      1 <0>         0.0974
     13 N2          6.5958   -1.1972   -1.1820 N.pl3     1 <0>        -0.4770
     14 C11         6.2060   -0.9104   -2.5648 C.3       1 <0>         0.1028
     15 C12         6.9312    0.3469   -3.0487 C.3       1 <0>        -0.1400
     16 C13         6.5242    0.6464   -4.4928 C.3       1 <0>        -0.1164
     17 C14         7.2494    1.9037   -4.9768 C.3       1 <0>        -0.0992
     18 C15         6.7737    3.1127   -4.1664 C.3       1 <0>        -0.1495
     19 C16         7.4557    4.3761   -4.6964 C.3       1 <0>        -0.0017
     20 N3          7.1264    4.5542   -6.1163 N.4       1 <0>        -0.5359
     21 C17         7.6163    3.4274   -6.9204 C.3       1 <0>        -0.0045
     22 C18         6.9380    2.1359   -6.4579 C.3       1 <0>        -0.1466
     23 C19         8.6295   -2.7117   -1.4485 C.ar      1 <0>        -0.1466
     24 C20         9.5767   -3.4151   -0.7355 C.ar      1 <0>        -0.0514
     25 C21         9.5658   -3.4036    0.6515 C.ar      1 <0>        -0.2263
     26 C22         8.6054   -2.6870    1.3383 C.ar      1 <0>         0.1901
     27 O2          8.6006   -2.6797    2.6973 O.3       1 <0>        -0.2975
     28 C23         9.6195   -3.4366    3.3537 C.3       1 <0>         0.0578
     29 C24         9.4534   -3.3086    4.8693 C.3       1 <0>        -0.1507
     30 C25        10.5444   -4.1191    5.5721 C.3       1 <0>        -0.0028
     31 N4         10.3849   -3.9962    7.0272 N.4       1 <0>        -0.3970
     32 C26        10.6278   -2.6169    7.4687 C.3       1 <0>        -0.0102
     33 C27        10.3122   -2.4944    8.9611 C.3       1 <0>        -0.1469
     34 C28        11.1984   -3.4651    9.7466 C.3       1 <0>        -0.1416
     35 C29        10.9616   -4.8885    9.2344 C.3       1 <0>        -0.1475
     36 C30        11.2585   -4.9416    7.7340 C.3       1 <0>        -0.0037
     37 H1         -0.9597    1.9047    0.0170 H         1 <0>         0.1286
     38 H2          1.1525    3.1682    0.0081 H         1 <0>         0.1269
     39 H3          3.3039    1.9724   -0.0187 H         1 <0>         0.1242
     40 H4          1.2211   -1.7595   -0.0195 H         1 <0>         0.1320
     41 H5         -0.9261   -0.5563    0.0076 H         1 <0>         0.1344
     42 H6          4.7799    0.8032   -0.9374 H         1 <0>         0.0809
     43 H7          4.7968    0.7942    0.8587 H         1 <0>         0.1026
     44 H8          6.4789   -1.7611   -3.2066 H         1 <0>         0.0996
     45 H9          5.1191   -0.7484   -2.6133 H         1 <0>         0.1001
     46 H10         6.6583    1.1975   -2.4069 H         1 <0>         0.0718
     47 H11         8.0181    0.1849   -3.0001 H         1 <0>         0.0767
     48 H12         6.7971   -0.2043   -5.1346 H         1 <0>         0.0808
     49 H13         5.4373    0.8084   -4.5414 H         1 <0>         0.0760
     50 H14         8.3332    1.7719   -4.8430 H         1 <0>         0.0891
     51 H15         5.6828    3.2139   -4.2649 H         1 <0>         0.0902
     52 H16         7.0345    2.9699   -3.1074 H         1 <0>         0.1088
     53 H17         7.1038    5.2490   -4.1271 H         1 <0>         0.1321
     54 H18         8.5456    4.2795   -4.5830 H         1 <0>         0.1257
     55 H19         6.0347    4.6208   -6.2339 H         1 <0>         0.4499
     56 H20         7.3824    3.6045   -7.9806 H         1 <0>         0.1341
     57 H21         8.7052    3.3340   -6.7958 H         1 <0>         0.1261
     58 H22         7.3162    1.2890   -7.0492 H         1 <0>         0.1115
     59 H23         5.8499    2.2218   -6.5948 H         1 <0>         0.0900
     60 H24         8.6448   -2.7262   -2.5283 H         1 <0>         0.1270
     61 H25        10.3330   -3.9793   -1.2608 H         1 <0>         0.1391
     62 H26        10.3134   -3.9592    1.1982 H         1 <0>         0.1359
     63 H27         9.5349   -4.4943    3.0636 H         1 <0>         0.0764
     64 H28        10.6078   -3.0536    3.0595 H         1 <0>         0.0749
     65 H29         9.5380   -2.2509    5.1594 H         1 <0>         0.0990
     66 H30         8.4651   -3.6916    5.1635 H         1 <0>         0.1012
     67 H31        10.4598   -5.1768    5.2819 H         1 <0>         0.1358
     68 H32        11.5327   -3.7361    5.2779 H         1 <0>         0.1306
     69 H33        11.6823   -2.3566    7.2949 H         1 <0>         0.1262
     70 H34         9.9824   -1.9310    6.9004 H         1 <0>         0.1313
     71 H35        10.5086   -1.4646    9.2941 H         1 <0>         0.1122
     72 H36         9.2539   -2.7400    9.1335 H         1 <0>         0.0889
     73 H37        12.2548   -3.1928    9.6060 H         1 <0>         0.0812
     74 H38        10.9448   -3.4101   10.8155 H         1 <0>         0.0954
     75 H39        11.6264   -5.5849    9.7664 H         1 <0>         0.1136
     76 H40         9.9141   -5.1729    9.4130 H         1 <0>         0.0892
     77 H41        11.0753   -5.9598    7.3602 H         1 <0>         0.1315
     78 H42        12.3101   -4.6704    7.5589 H         1 <0>         0.1264
     79 H43         7.5923    5.4789   -6.4876 H         1 <0>         0.4561
     80 H44         9.3442   -4.2498    7.2774 H         1 <0>         0.4420
@<TRIPOS>BOND
     1    1    6 ar
     2    1    2 ar
     3    1   37 1
     4    2    3 ar
     5    2   38 1
     6    3    4 ar
     7    3   39 1
     8    4    5 ar
     9    4    7 1
    10    5    6 ar
    11    5   40 1
    12    6   41 1
    13    7    8 1
    14    8    9 1
    15    8   42 1
    16    8   43 1
    17    9   13 1
    18    9   10 2
    19   10   11 1
    20   11   26 ar
    21   11   12 ar
    22   12   13 1
    23   12   23 ar
    24   13   14 1
    25   14   15 1
    26   14   44 1
    27   14   45 1
    28   15   16 1
    29   15   46 1
    30   15   47 1
    31   16   17 1
    32   16   48 1
    33   16   49 1
    34   17   22 1
    35   17   18 1
    36   17   50 1
    37   18   19 1
    38   18   51 1
    39   18   52 1
    40   19   20 1
    41   19   53 1
    42   19   54 1
    43   20   21 1
    44   20   55 1
    45   20   79 1
    46   21   22 1
    47   21   56 1
    48   21   57 1
    49   22   58 1
    50   22   59 1
    51   23   24 ar
    52   23   60 1
    53   24   25 ar
    54   24   61 1
    55   25   26 ar
    56   25   62 1
    57   26   27 1
    58   27   28 1
    59   28   29 1
    60   28   63 1
    61   28   64 1
    62   29   30 1
    63   29   65 1
    64   29   66 1
    65   30   31 1
    66   30   67 1
    67   30   68 1
    68   31   36 1
    69   31   32 1
    70   31   80 1
    71   32   33 1
    72   32   69 1
    73   32   70 1
    74   33   34 1
    75   33   71 1
    76   33   72 1
    77   34   35 1
    78   34   73 1
    79   34   74 1
    80   35   36 1
    81   35   75 1
    82   35   76 1
    83   36   77 1
    84   36   78 1
@<TRIPOS>MOLECULE
ZINC27088632
   86    89     0     0     0
SMALL
USER_CHARGES

@<TRIPOS>ATOM
      1 C1          3.5153   -3.4467    1.9960 C.3       1 <0>        -0.1177
      2 C2          2.3637   -3.0336    2.8758 C.2       1 <0>         0.2438
      3 C3          1.4123   -3.9303    3.1886 C.2       1 <0>        -0.2616
      4 C4          0.2420   -3.5606    4.0551 C.3       1 <0>         0.0890
      5 C5          0.5069   -2.2757    4.7872 C.2       1 <0>        -0.2276
      6 C6          1.4945   -1.4453    4.4105 C.2       1 <0>         0.1858
      7 N1          2.3022   -1.7521    3.3511 N.pl3     1 <0>        -0.6275
      8 C7          1.7177   -0.1620    5.1685 C.3       1 <0>        -0.1357
      9 C8         -0.3004   -1.9323    5.8963 C.2       1 <0>         0.5360
     10 O1         -0.1430   -2.4982    6.9619 O.2       1 <0>        -0.4971
     11 O2         -1.2455   -0.9768    5.7728 O.3       1 <0>        -0.3467
     12 C9         -2.0243   -0.6809    6.9337 C.3       1 <0>         0.0318
     13 C10        -0.9824   -3.3965    3.1919 C.ar      1 <0>        -0.0556
     14 C11        -0.9931   -2.4533    2.1805 C.ar      1 <0>        -0.1082
     15 C12        -2.1144   -2.2996    1.3864 C.ar      1 <0>        -0.1003
     16 C13        -3.2279   -3.0884    1.6010 C.ar      1 <0>        -0.1436
     17 C14        -3.2203   -4.0363    2.6156 C.ar      1 <0>         0.1503
     18 C15        -2.0903   -4.1920    3.4079 C.ar      1 <0>        -0.0967
     19 N2         -4.3468   -4.8369    2.8356 N.am      1 <0>        -0.6808
     20 C16        -4.6788   -5.2030    4.0895 C.2       1 <0>         0.7047
     21 O3         -3.9550   -4.9079    5.0208 O.2       1 <0>        -0.5611
     22 N3         -5.8132   -5.8962    4.3110 N.am      1 <0>        -0.7487
     23 C17        -6.1741   -6.2942    5.6740 C.3       1 <0>         0.1433
     24 C18        -7.4965   -7.0632    5.6474 C.3       1 <0>        -0.1632
     25 C19        -7.8734   -7.4788    7.0709 C.3       1 <0>        -0.0061
     26 N4         -9.1431   -8.2172    7.0454 N.4       1 <0>        -0.3827
     27 C20        -8.9643   -9.4694    6.3007 C.3       1 <0>        -0.0120
     28 C21       -10.3030  -10.2039    6.2016 C.3       1 <0>        -0.1390
     29 C22       -10.8140  -10.5150    7.6113 C.3       1 <0>        -0.0541
     30 C23       -10.9259   -9.2088    8.4029 C.3       1 <0>        -0.1397
     31 C24        -9.5641   -8.5112    8.4205 C.3       1 <0>        -0.0060
     32 C25       -12.1691  -11.1686    7.5234 C.ar      1 <0>        -0.0565
     33 C26       -13.2204  -10.5010    6.9223 C.ar      1 <0>        -0.1566
     34 C27       -14.4646  -11.0978    6.8400 C.ar      1 <0>        -0.0721
     35 C28       -14.6608  -12.3632    7.3588 C.ar      1 <0>        -0.2019
     36 C29       -13.6078  -13.0350    7.9622 C.ar      1 <0>         0.1377
     37 C30       -12.3584  -12.4362    8.0381 C.ar      1 <0>        -0.1448
     38 O4        -13.7982  -14.2798    8.4733 O.3       1 <0>        -0.3152
     39 C31       -15.1090  -14.8364    8.3544 C.3       1 <0>         0.0242
     40 C32         1.5150   -5.2499    2.6908 C.2       1 <0>         0.5215
     41 O5          2.4572   -5.5633    1.9875 O.2       1 <0>        -0.5212
     42 O6          0.5680   -6.1617    2.9958 O.3       1 <0>        -0.3490
     43 C33         0.7353   -7.4754    2.4588 C.3       1 <0>         0.0378
     44 H1          4.1860   -2.5993    1.8537 H         1 <0>         0.0649
     45 H2          4.0588   -4.2646    2.4690 H         1 <0>         0.1051
     46 H3          3.1343   -3.7749    1.0290 H         1 <0>         0.1027
     47 H4          0.0659   -4.3563    4.7790 H         1 <0>         0.0922
     48 H5          2.8317   -1.0558    2.9320 H         1 <0>         0.4239
     49 H6          2.4851   -0.3168    5.9269 H         1 <0>         0.0917
     50 H7          2.0414    0.6164    4.4777 H         1 <0>         0.0870
     51 H8          0.7880    0.1424    5.6491 H         1 <0>         0.0908
     52 H9         -2.5547   -1.5778    7.2538 H         1 <0>         0.0597
     53 H10        -1.3678   -0.3416    7.7349 H         1 <0>         0.0603
     54 H11        -2.7447    0.1025    6.6980 H         1 <0>         0.1006
     55 H12        -0.1239   -1.8351    2.0109 H         1 <0>         0.1157
     56 H13        -2.1198   -1.5619    0.5976 H         1 <0>         0.1264
     57 H14        -4.1036   -2.9677    0.9806 H         1 <0>         0.1227
     58 H15        -2.0795   -4.9317    4.1948 H         1 <0>         0.1385
     59 H16        -4.8886   -5.1284    2.0857 H         1 <0>         0.4063
     60 H17        -6.3906   -6.1317    3.5681 H         1 <0>         0.3989
     61 H18        -5.3914   -6.9313    6.0857 H         1 <0>         0.0790
     62 H19        -6.2832   -5.4052    6.2952 H         1 <0>         0.0786
     63 H20        -8.2792   -6.4261    5.2357 H         1 <0>         0.0948
     64 H21        -7.3874   -7.9522    5.0262 H         1 <0>         0.0949
     65 H22        -7.0908   -8.1160    7.4826 H         1 <0>         0.1354
     66 H23        -7.9825   -6.5898    7.6921 H         1 <0>         0.1368
     67 H24        -8.5976   -9.2466    5.2988 H         1 <0>         0.1326
     68 H25        -8.2420  -10.0999    6.8192 H         1 <0>         0.1315
     69 H26       -11.0261   -9.5743    5.6830 H         1 <0>         0.0911
     70 H27       -10.1678  -11.1342    5.6499 H         1 <0>         0.1150
     71 H28       -10.1162  -11.1860    8.1121 H         1 <0>         0.0981
     72 H29       -11.6619   -8.5586    7.9300 H         1 <0>         0.0914
     73 H30       -11.2359   -9.4278    9.4246 H         1 <0>         0.1158
     74 H31        -8.8290   -9.1621    8.8937 H         1 <0>         0.1313
     75 H32        -9.6402   -7.5809    8.9834 H         1 <0>         0.1336
     76 H33       -13.0693   -9.5115    6.5167 H         1 <0>         0.1198
     77 H34       -15.2841  -10.5744    6.3701 H         1 <0>         0.1294
     78 H35       -15.6332  -12.8288    7.2950 H         1 <0>         0.1330
     79 H36       -11.5358  -12.9591    8.5032 H         1 <0>         0.1322
     80 H37       -15.8240  -14.1956    8.8702 H         1 <0>         0.0593
     81 H38       -15.3791  -14.9079    7.3008 H         1 <0>         0.0593
     82 H39       -15.1235  -15.8304    8.8014 H         1 <0>         0.1068
     83 H40         0.7521   -7.4234    1.3701 H         1 <0>         0.0586
     84 H41         1.6743   -7.8974    2.8169 H         1 <0>         0.0595
     85 H42        -0.0928   -8.1073    2.7797 H         1 <0>         0.0952
     86 H43        -9.8483   -7.6561    6.5915 H         1 <0>         0.4224
@<TRIPOS>BOND
     1    1    2 1
     2    1   44 1
     3    1   45 1
     4    1   46 1
     5    2    7 1
     6    2    3 2
     7    3    4 1
     8    3   40 1
     9    4    5 1
    10    4   13 1
    11    4   47 1
    12    5    6 2
    13    5    9 1
    14    6    7 1
    15    6    8 1
    16    7   48 1
    17    8   49 1
    18    8   50 1
    19    8   51 1
    20    9   10 2
    21    9   11 1
    22   11   12 1
    23   12   52 1
    24   12   53 1
    25   12   54 1
    26   13   18 ar
    27   13   14 ar
    28   14   15 ar
    29   14   55 1
    30   15   16 ar
    31   15   56 1
    32   16   17 ar
    33   16   57 1
    34   17   18 ar
    35   17   19 1
    36   18   58 1
    37   19   20 am
    38   19   59 1
    39   20   21 2
    40   20   22 am
    41   22   23 1
    42   22   60 1
    43   23   24 1
    44   23   61 1
    45   23   62 1
    46   24   25 1
    47   24   63 1
    48   24   64 1
    49   25   26 1
    50   25   65 1
    51   25   66 1
    52   26   31 1
    53   26   27 1
    54   26   86 1
    55   27   28 1
    56   27   67 1
    57   27   68 1
    58   28   29 1
    59   28   69 1
    60   28   70 1
    61   29   30 1
    62   29   32 1
    63   29   71 1
    64   30   31 1
    65   30   72 1
    66   30   73 1
    67   31   74 1
    68   31   75 1
    69   32   37 ar
    70   32   33 ar
    71   33   34 ar
    72   33   76 1
    73   34   35 ar
    74   34   77 1
    75   35   36 ar
    76   35   78 1
    77   36   37 ar
    78   36   38 1
    79   37   79 1
    80   38   39 1
    81   39   80 1
    82   39   81 1
    83   39   82 1
    84   40   41 2
    85   40   42 1
    86   42   43 1
    87   43   83 1
    88   43   84 1
    89   43   85 1
@<TRIPOS>MOLECULE
ZINC03824468
   43    45     0     0     0
SMALL
USER_CHARGES

@<TRIPOS>ATOM
      1 C1         -0.0187    1.5258    0.0104 C.3       1 <0>        -0.1447
      2 C2          0.0021   -0.0041    0.0020 C.3       1 <0>        -0.0909
      3 C3          0.7182   -0.4975   -1.2568 C.3       1 <0>        -0.1396
      4 C4          0.7309   -0.5033    1.2229 C.ar      1 <0>         0.0310
      5 C5          2.0503   -0.1479    1.4339 C.ar      1 <0>        -0.1360
      6 C6          2.7188   -0.6057    2.5536 C.ar      1 <0>        -0.0495
      7 C7          2.0680   -1.4188    3.4630 C.ar      1 <0>        -0.1324
      8 C8          0.7488   -1.7733    3.2525 C.ar      1 <0>        -0.0012
      9 C9          0.0788   -1.3118    2.1346 C.ar      1 <0>        -0.6648
     10 S1         -1.6048   -1.7588    1.8695 S.o2      1 <0>         2.5533
     11 O1         -1.6966   -2.2184    0.5280 O.2       1 <0>        -0.9122
     12 O2         -1.9916   -2.5602    2.9775 O.2       1 <0>        -0.9119
     13 C10        -2.5573   -0.2793    1.9613 C.ar      1 <0>        -0.5352
     14 C11        -3.2290    0.1751    0.8299 C.ar      1 <0>        -0.1499
     15 C12        -3.9810    1.3286    0.8709 C.ar      1 <0>         0.2896
     16 C13        -4.0707    2.0578    2.0776 C.ar      1 <0>         0.1145
     17 C14        -3.3823    1.5830    3.2206 C.ar      1 <0>        -0.0389
     18 C15        -2.6300    0.3997    3.1393 C.ar      1 <0>         0.0153
     19 N1         -1.9121   -0.1055    4.3314 N.pl3     1 <0>        -0.0001
     20 O3         -0.7763    0.2476    4.5477 O.2       1 <0>        -0.1334
     21 O4         -2.4618   -0.8712    5.0886 O.3       1 <0>        -0.0910
     22 C16        -3.4728    2.3108    4.4220 C.ar      1 <0>        -0.0701
     23 C17        -4.2263    3.4502    4.4302 C.ar      1 <0>        -0.1362
     24 C18        -4.8778    3.8608    3.2696 C.ar      1 <0>         0.1406
     25 N2         -4.7911    3.1795    2.1527 N.ar      1 <0>        -0.4583
     26 N3         -4.6481    1.7733   -0.2699 N.pl3     1 <0>        -0.8303
     27 H1          1.0039    1.9031    0.0027 H         1 <0>         0.0650
     28 H2         -0.5459    1.8868   -0.8726 H         1 <0>         0.0657
     29 H3         -0.5289    1.8773    0.9072 H         1 <0>         0.0542
     30 H4         -1.0205   -0.3814    0.0098 H         1 <0>         0.0822
     31 H5          1.7408   -0.1202   -1.2645 H         1 <0>         0.0605
     32 H6          0.7330   -1.5874   -1.2628 H         1 <0>         0.0659
     33 H7          0.1910   -0.1364   -2.1398 H         1 <0>         0.0658
     34 H8          2.5586    0.4873    0.7235 H         1 <0>         0.1334
     35 H9          3.7496   -0.3286    2.7180 H         1 <0>         0.1338
     36 H10         2.5905   -1.7771    4.3376 H         1 <0>         0.1375
     37 H11         0.2405   -2.4087    3.9627 H         1 <0>         0.1441
     38 H12        -3.1594   -0.3835   -0.0918 H         1 <0>         0.1687
     39 H13        -2.9611    1.9774    5.3128 H         1 <0>         0.1440
     40 H14        -4.3170    4.0319    5.3357 H         1 <0>         0.1547
     41 H15        -5.4702    4.7636    3.2904 H         1 <0>         0.1759
     42 H16        -4.5837    1.2699   -1.0965 H         1 <0>         0.4125
     43 H17        -5.1766    2.5860   -0.2368 H         1 <0>         0.4184
@<TRIPOS>BOND
     1    1    2 1
     2    1   27 1
     3    1   28 1
     4    1   29 1
     5    2    3 1
     6    2    4 1
     7    2   30 1
     8    3   31 1
     9    3   32 1
    10    3   33 1
    11    4    9 ar
    12    4    5 ar
    13    5    6 ar
    14    5   34 1
    15    6    7 ar
    16    6   35 1
    17    7    8 ar
    18    7   36 1
    19    8    9 ar
    20    8   37 1
    21    9   10 1
    22   10   11 2
    23   10   12 2
    24   10   13 1
    25   13   18 ar
    26   13   14 ar
    27   14   15 ar
    28   14   38 1
    29   15   16 ar
    30   15   26 1
    31   16   25 ar
    32   16   17 ar
    33   17   18 ar
    34   17   22 ar
    35   18   19 1
    36   19   20 2
    37   19   21 1
    38   22   23 ar
    39   22   39 1
    40   23   24 ar
    41   23   40 1
    42   24   25 ar
    43   24   41 1
    44   26   42 1
    45   26   43 1
@<TRIPOS>MOLECULE
ZINC03811314
   67    69     0     0     0
SMALL
USER_CHARGES
2-(2,2-diphenylacetyl)amino-5-guanidino-N-[(4-hydroxyphenyl)methyl]pentanamide
@<TRIPOS>ATOM
      1 C1          0.4303   10.9509   -1.4986 C.ar      1 <0>        -0.1096
      2 C2          1.2797   11.7350   -0.7406 C.ar      1 <0>        -0.1134
      3 C3          1.7455   11.2728    0.4761 C.ar      1 <0>        -0.1070
      4 C4          1.3623   10.0262    0.9345 C.ar      1 <0>        -0.0879
      5 C5          0.5174    9.2397    0.1739 C.ar      1 <0>        -0.1073
      6 C6          0.0471    9.7043   -1.0401 C.ar      1 <0>        -0.1131
      7 C7          1.8705    9.5222    2.2607 C.3       1 <0>        -0.0211
      8 C8          0.7308    9.4603    3.2448 C.ar      1 <0>        -0.0707
      9 C9         -0.3047    8.5658    3.0479 C.ar      1 <0>        -0.0789
     10 C10        -1.3474    8.5055    3.9534 C.ar      1 <0>        -0.1213
     11 C11        -1.3602    9.3472    5.0498 C.ar      1 <0>        -0.1139
     12 C12        -0.3276   10.2456    5.2437 C.ar      1 <0>        -0.1234
     13 C13         0.7180   10.3021    4.3412 C.ar      1 <0>        -0.1116
     14 C14         2.4564    8.1450    2.0835 C.2       1 <0>         0.5315
     15 O1          1.9941    7.2060    2.6961 O.2       1 <0>        -0.5272
     16 N1          3.4943    7.9572    1.2444 N.am      1 <0>        -0.7085
     17 C15         4.0639    6.6185    1.0722 C.3       1 <0>         0.1307
     18 H1          3.2696    5.8748    1.1356 H         1 <0>         0.1196
     19 C16         5.0955    6.3579    2.1717 C.3       1 <0>        -0.1244
     20 C17         4.3949    6.3278    3.5315 C.3       1 <0>        -0.1286
     21 C18         5.4264    6.0672    4.6311 C.3       1 <0>         0.0914
     22 N2          4.7555    6.0383    5.9332 N.pl3     1 <0>        -0.6942
     23 C19         5.4850    5.8181    7.0775 C.cat     1 <0>         0.7376
     24 N3          4.8556    5.7910    8.2994 N.pl3     1 <0>        -0.8073
     25 C20         4.7320    6.5264   -0.2754 C.2       1 <0>         0.5081
     26 O2          4.7323    7.4847   -1.0189 O.2       1 <0>        -0.5204
     27 N4          5.3291    5.3791   -0.6546 N.am      1 <0>        -0.7195
     28 C21         5.9786    5.2897   -1.9647 C.3       1 <0>         0.1627
     29 C22         6.5646    3.9125   -2.1418 C.ar      1 <0>        -0.1268
     30 C23         5.8037    2.9062   -2.7075 C.ar      1 <0>        -0.0809
     31 C24         6.3385    1.6431   -2.8710 C.ar      1 <0>        -0.1461
     32 C25         7.6402    1.3847   -2.4670 C.ar      1 <0>         0.1204
     33 C26         8.4017    2.3961   -1.8996 C.ar      1 <0>        -0.1482
     34 C27         7.8623    3.6576   -1.7384 C.ar      1 <0>        -0.0828
     35 O3          8.1685    0.1427   -2.6263 O.3       1 <0>        -0.5001
     36 H2          0.0658   11.3123   -2.4488 H         1 <0>         0.1257
     37 H3          1.5791   12.7089   -1.0988 H         1 <0>         0.1268
     38 H4          2.4091   11.8854    1.0683 H         1 <0>         0.1238
     39 H5          0.2216    8.2640    0.5300 H         1 <0>         0.1187
     40 H6         -0.6168    9.0919   -1.6322 H         1 <0>         0.1244
     41 H7          2.6385   10.1983    2.6362 H         1 <0>         0.1109
     42 H8         -0.2968    7.9114    2.1889 H         1 <0>         0.1204
     43 H9         -2.1539    7.8034    3.8022 H         1 <0>         0.1225
     44 H10        -2.1768    9.3027    5.7553 H         1 <0>         0.1224
     45 H11        -0.3376   10.9032    6.1003 H         1 <0>         0.1226
     46 H12         1.5247   11.0040    4.4926 H         1 <0>         0.1194
     47 H13         3.8640    8.7083    0.7545 H         1 <0>         0.4152
     48 H14         5.5829    5.3994    1.9929 H         1 <0>         0.0854
     49 H15         5.8420    7.1520    2.1651 H         1 <0>         0.0818
     50 H16         3.9074    7.2861    3.7105 H         1 <0>         0.0879
     51 H17         3.6483    5.5336    3.5382 H         1 <0>         0.0926
     52 H18         5.9139    5.1088    4.4522 H         1 <0>         0.0915
     53 H19         6.1730    6.8613    4.6244 H         1 <0>         0.0899
     54 H20         3.7968    6.1748    5.9878 H         1 <0>         0.4357
     55 H21         7.3745    5.4720    7.7547 H         1 <0>         0.4508
     56 H22         3.8967    5.9273    8.3542 H         1 <0>         0.4404
     57 H23         5.3701    5.6355    9.1068 H         1 <0>         0.4384
     58 H24         5.3289    4.6128   -0.0600 H         1 <0>         0.4027
     59 H25         6.7729    6.0334   -2.0280 H         1 <0>         0.0818
     60 H26         5.2438    5.4754   -2.7479 H         1 <0>         0.0815
     61 H27         4.7918    3.1092   -3.0260 H         1 <0>         0.1300
     62 H28         5.7438    0.8575   -3.3132 H         1 <0>         0.1335
     63 H29         9.4153    2.1973   -1.5839 H         1 <0>         0.1323
     64 H30         8.4548    4.4453   -1.2971 H         1 <0>         0.1286
     65 H31         8.6153    0.0111   -3.4737 H         1 <0>         0.3977
     66 N5          6.7903    5.6390    6.9353 N.pl3     1 <0>        -0.7975
     67 H32         7.2136    5.6684    6.0003 H         1 <0>         0.4544
@<TRIPOS>BOND
     1    1    6 ar
     2    1    2 ar
     3    1   36 1
     4    2    3 ar
     5    2   37 1
     6    3    4 ar
     7    3   38 1
     8    4    5 ar
     9    4    7 1
    10    5    6 ar
    11    5   39 1
    12    6   40 1
    13    7    8 1
    14    7   14 1
    15    7   41 1
    16    8   13 ar
    17    8    9 ar
    18    9   10 ar
    19    9   42 1
    20   10   11 ar
    21   10   43 1
    22   11   12 ar
    23   11   44 1
    24   12   13 ar
    25   12   45 1
    26   13   46 1
    27   14   15 2
    28   14   16 am
    29   16   17 1
    30   16   47 1
    31   17   18 1
    32   17   19 1
    33   17   25 1
    34   19   20 1
    35   19   48 1
    36   19   49 1
    37   20   21 1
    38   20   50 1
    39   20   51 1
    40   21   22 1
    41   21   52 1
    42   21   53 1
    43   22   23 1
    44   22   54 1
    45   23   24 1
    46   23   66 2
    47   24   56 1
    48   24   57 1
    49   25   26 2
    50   25   27 am
    51   27   28 1
    52   27   58 1
    53   28   29 1
    54   28   59 1
    55   28   60 1
    56   29   34 ar
    57   29   30 ar
    58   30   31 ar
    59   30   61 1
    60   31   32 ar
    61   31   62 1
    62   32   33 ar
    63   32   35 1
    64   33   34 ar
    65   33   63 1
    66   34   64 1
    67   35   65 1
    68   55   66 1
    69   66   67 1
