@<TRIPOS>MOLECULE
ZINC08687060
   62    65     0     0     0
SMALL
USER_CHARGES

@<TRIPOS>ATOM
      1 C1          4.4165    2.1892   -2.7987 C.3       1 <0>        -0.1531
      2 C2          4.0077    0.7354   -3.0441 C.3       1 <0>         0.0532
      3 O1          4.2779   -0.0394   -1.8742 O.3       1 <0>        -0.3156
      4 C3          3.9703   -1.3629   -1.9256 C.ar      1 <0>         0.1369
      5 C4          3.4252   -1.9036   -3.0810 C.ar      1 <0>        -0.1995
      6 C5          3.1126   -3.2476   -3.1339 C.ar      1 <0>        -0.0317
      7 C6          3.3443   -4.0579   -2.0305 C.ar      1 <0>         0.0831
      8 C7          3.8903   -3.5162   -0.8745 C.ar      1 <0>        -0.0841
      9 C8          4.2069   -2.1730   -0.8247 C.ar      1 <0>        -0.1480
     10 N1          3.0269   -5.4215   -2.0834 N.pl3     1 <0>        -0.6284
     11 C9          3.2455   -6.1209   -3.2145 C.2       1 <0>         0.5598
     12 S1          4.0526   -5.3856   -4.5332 S.2       1 <0>        -0.6233
     13 N2          2.8288   -7.3992   -3.3075 N.pl3     1 <0>        -0.5618
     14 C10         2.0288   -8.0057   -2.2347 C.3       1 <0>         0.0967
     15 C11         2.7066   -9.3051   -1.7886 C.3       1 <0>        -0.1348
     16 C12         2.9161  -10.2101   -3.0049 C.3       1 <0>        -0.1092
     17 C13         3.8304   -9.5097   -4.0126 C.3       1 <0>        -0.1235
     18 C14         3.1606   -8.2109   -4.4864 C.3       1 <0>         0.1020
     19 C15         3.5615  -11.5233   -2.5579 C.3       1 <0>         0.2286
     20 C16         2.6725  -12.2017   -1.5476 C.ar      1 <0>        -0.1093
     21 C17         1.3066  -12.2540   -1.7537 C.ar      1 <0>        -0.1081
     22 C18         0.4912  -12.8762   -0.8270 C.ar      1 <0>        -0.1185
     23 C19         1.0417  -13.4465    0.3055 C.ar      1 <0>        -0.1168
     24 C20         2.4077  -13.3950    0.5111 C.ar      1 <0>        -0.1174
     25 C21         3.2236  -12.7765   -0.4177 C.ar      1 <0>        -0.1067
     26 C22         3.7445  -12.4249   -3.7515 C.ar      1 <0>        -0.0696
     27 C23         2.8219  -12.4049   -4.7807 C.ar      1 <0>        -0.1119
     28 C24         2.9897  -13.2319   -5.8756 C.ar      1 <0>        -0.1197
     29 C25         4.0805  -14.0785   -5.9416 C.ar      1 <0>        -0.1157
     30 C26         5.0036  -14.0979   -4.9128 C.ar      1 <0>        -0.1213
     31 C27         4.8380  -13.2678   -3.8199 C.ar      1 <0>        -0.0901
     32 O2          4.8338  -11.2518   -1.9666 O.3       1 <0>        -0.5423
     33 H1          3.8487    2.5894   -1.9587 H         1 <0>         0.0661
     34 H2          5.4816    2.2337   -2.5714 H         1 <0>         0.0667
     35 H3          4.2104    2.7802   -3.6910 H         1 <0>         0.0791
     36 H4          2.9426    0.6909   -3.2713 H         1 <0>         0.0629
     37 H5          4.5754    0.3352   -3.8841 H         1 <0>         0.0645
     38 H6          3.2451   -1.2731   -3.9392 H         1 <0>         0.1324
     39 H7          2.6876   -3.6682   -4.0333 H         1 <0>         0.1499
     40 H8          4.0708   -4.1459   -0.0159 H         1 <0>         0.1293
     41 H9          4.6354   -1.7522    0.0730 H         1 <0>         0.1353
     42 H10         2.6498   -5.8621   -1.3059 H         1 <0>         0.4036
     43 H11         1.9669   -7.3178   -1.3915 H         1 <0>         0.0804
     44 H12         1.0272   -8.2245   -2.6048 H         1 <0>         0.0894
     45 H13         3.6710   -9.0755   -1.3356 H         1 <0>         0.0729
     46 H14         2.0743   -9.8141   -1.0611 H         1 <0>         0.0893
     47 H15         1.9537  -10.4193   -3.4720 H         1 <0>         0.0881
     48 H16         4.7843   -9.2781   -3.5386 H         1 <0>         0.0790
     49 H17         3.9981  -10.1642   -4.8679 H         1 <0>         0.0889
     50 H18         2.2494   -8.4460   -5.0364 H         1 <0>         0.0798
     51 H19         3.8457   -7.6583   -5.1294 H         1 <0>         0.1295
     52 H20         0.8765  -11.8085   -2.6385 H         1 <0>         0.1201
     53 H21        -0.5760  -12.9165   -0.9876 H         1 <0>         0.1231
     54 H22         0.4046  -13.9320    1.0299 H         1 <0>         0.1224
     55 H23         2.8378  -13.8402    1.3961 H         1 <0>         0.1233
     56 H24         4.2912  -12.7395   -0.2589 H         1 <0>         0.1285
     57 H25         1.9697  -11.7434   -4.7292 H         1 <0>         0.1207
     58 H26         2.2685  -13.2167   -6.6794 H         1 <0>         0.1240
     59 H27         4.2112  -14.7252   -6.7967 H         1 <0>         0.1224
     60 H28         5.8556  -14.7596   -4.9641 H         1 <0>         0.1229
     61 H29         5.5612  -13.2802   -3.0179 H         1 <0>         0.1279
     62 H30         4.7921  -10.6758   -1.1910 H         1 <0>         0.3775
@<TRIPOS>BOND
     1    1    2 1
     2    1   33 1
     3    1   34 1
     4    1   35 1
     5    2    3 1
     6    2   36 1
     7    2   37 1
     8    3    4 1
     9    4    9 ar
    10    4    5 ar
    11    5    6 ar
    12    5   38 1
    13    6    7 ar
    14    6   39 1
    15    7    8 ar
    16    7   10 1
    17    8    9 ar
    18    8   40 1
    19    9   41 1
    20   10   11 1
    21   10   42 1
    22   11   12 2
    23   11   13 1
    24   13   18 1
    25   13   14 1
    26   14   15 1
    27   14   43 1
    28   14   44 1
    29   15   16 1
    30   15   45 1
    31   15   46 1
    32   16   17 1
    33   16   19 1
    34   16   47 1
    35   17   18 1
    36   17   48 1
    37   17   49 1
    38   18   50 1
    39   18   51 1
    40   19   20 1
    41   19   26 1
    42   19   32 1
    43   20   25 ar
    44   20   21 ar
    45   21   22 ar
    46   21   52 1
    47   22   23 ar
    48   22   53 1
    49   23   24 ar
    50   23   54 1
    51   24   25 ar
    52   24   55 1
    53   25   56 1
    54   26   31 ar
    55   26   27 ar
    56   27   28 ar
    57   27   57 1
    58   28   29 ar
    59   28   58 1
    60   29   30 ar
    61   29   59 1
    62   30   31 ar
    63   30   60 1
    64   31   61 1
    65   32   62 1
@<TRIPOS>MOLECULE
ZINC03828640
   64    68     0     0     0
SMALL
USER_CHARGES

@<TRIPOS>ATOM
      1 C1          2.4030   -3.5768   -2.0092 C.ar      1 <0>        -0.1203
      2 C2          3.6670   -3.0308   -2.2260 C.ar      1 <0>        -0.0806
      3 C3          4.1055   -1.9679   -1.4981 C.ar      1 <0>        -0.1408
      4 C4          3.2737   -1.4096   -0.5123 C.ar      1 <0>         0.0301
      5 C5          1.9881   -1.9645   -0.2921 C.ar      1 <0>        -0.0755
      6 C6          1.5704   -3.0626   -1.0635 C.ar      1 <0>        -0.0905
      7 C7          1.1563   -1.4060    0.6930 C.ar      1 <0>        -0.0358
      8 C8          1.5947   -0.3425    1.4208 C.ar      1 <0>        -0.1522
      9 C9          2.8583    0.2032    1.2041 C.ar      1 <0>         0.0093
     10 C10         3.6914   -0.3118    0.2587 C.ar      1 <0>        -0.6758
     11 S1          5.2853    0.3945    0.0034 S.o2      1 <0>         2.6957
     12 O1          5.3860    1.5007    0.8896 O.2       1 <0>        -0.9606
     13 O2          6.2136   -0.6813    0.0193 O.2       1 <0>        -0.9492
     14 N1          5.3058    1.0147   -1.5320 N.pl3     1 <0>        -1.1160
     15 C11         4.4105    2.1181   -1.8883 C.3       1 <0>         0.1171
     16 C12         4.8902    2.7643   -3.1895 C.3       1 <0>        -0.0952
     17 C13         6.2587    3.4102   -2.9638 C.3       1 <0>        -0.1158
     18 C14         6.1448    4.4793   -1.8752 C.3       1 <0>        -0.1217
     19 C15         5.1422    5.5487   -2.3134 C.3       1 <0>        -0.0956
     20 C16         3.7737    4.9028   -2.5391 C.3       1 <0>        -0.1255
     21 C17         3.8876    3.8337   -3.6277 C.3       1 <0>        -0.1134
     22 C18         5.0283    6.6177   -1.2248 C.3       1 <0>         0.0885
     23 N2          4.1608    7.7013   -1.6934 N.pl3     1 <0>        -0.6662
     24 C19         3.9075    8.7873   -0.8752 C.ar      1 <0>         0.6845
     25 N3          4.4656    8.8219    0.3199 N.ar      1 <0>        -0.5846
     26 C20         4.2448    9.8579    1.1425 C.ar      1 <0>         0.2022
     27 C21         4.8216    9.9274    2.4180 C.ar      1 <0>        -0.1475
     28 C22         4.5652   11.0033    3.2152 C.ar      1 <0>        -0.0186
     29 C23         3.7380   12.0356    2.7823 C.ar      1 <0>        -0.1209
     30 C24         3.1607   11.9993    1.5468 C.ar      1 <0>        -0.0370
     31 C25         3.4039   10.9096    0.7040 C.ar      1 <0>        -0.1948
     32 C26         2.8323   10.8181   -0.5896 C.ar      1 <0>         0.5606
     33 N4          3.1160    9.7554   -1.3282 N.ar      1 <0>        -0.5977
     34 N5          2.0062   11.8119   -1.0692 N.pl3     1 <0>        -0.7694
     35 H1          2.0778   -4.4178   -2.6036 H         1 <0>         0.1319
     36 H2          4.3081   -3.4580   -2.9829 H         1 <0>         0.1328
     37 H3          5.0877   -1.5558   -1.6767 H         1 <0>         0.1313
     38 H4          0.5936   -3.4958   -0.9069 H         1 <0>         0.1342
     39 H5          0.1742   -1.8182    0.8715 H         1 <0>         0.1385
     40 H6          0.9534    0.0849    2.1774 H         1 <0>         0.1364
     41 H7          3.1817    1.0473    1.7952 H         1 <0>         0.1434
     42 H8          5.9106    0.6473   -2.1954 H         1 <0>         0.4207
     43 H9          3.3988    1.7358   -2.0240 H         1 <0>         0.0668
     44 H10         4.4142    2.8611   -1.0907 H         1 <0>         0.0824
     45 H11         4.9714    2.0027   -3.9650 H         1 <0>         0.0867
     46 H12         6.9730    2.6484   -2.6516 H         1 <0>         0.0741
     47 H13         6.6005    3.8706   -3.8908 H         1 <0>         0.0711
     48 H14         5.8030    4.0189   -0.9482 H         1 <0>         0.0792
     49 H15         7.1198    4.9394   -1.7144 H         1 <0>         0.0726
     50 H16         5.4840    6.0090   -3.2404 H         1 <0>         0.0914
     51 H17         3.4319    4.4424   -1.6121 H         1 <0>         0.0729
     52 H18         3.0594    5.6646   -2.8514 H         1 <0>         0.0650
     53 H19         4.2294    4.2941   -4.5547 H         1 <0>         0.0738
     54 H20         2.9127    3.3736   -3.7885 H         1 <0>         0.0731
     55 H21         4.6027    6.1752   -0.3242 H         1 <0>         0.0902
     56 H22         6.0182    7.0156   -1.0013 H         1 <0>         0.0896
     57 H23         3.7641    7.6571   -2.5774 H         1 <0>         0.4405
     58 H24         5.4649    9.1334    2.7674 H         1 <0>         0.1568
     59 H25         5.0104   11.0552    4.1977 H         1 <0>         0.1559
     60 H26         3.5503   12.8765    3.4335 H         1 <0>         0.1526
     61 H27         2.5203   12.8060    1.2219 H         1 <0>         0.1487
     62 H28         1.8096   12.5865   -0.5193 H         1 <0>         0.4311
     63 H29         1.6216   11.7367   -1.9564 H         1 <0>         0.4316
     64 H30         5.0388    8.0933    0.6055 H         1 <0>         0.4384
@<TRIPOS>BOND
     1    1    6 ar
     2    1    2 ar
     3    1   35 1
     4    2    3 ar
     5    2   36 1
     6    3    4 ar
     7    3   37 1
     8    4   10 ar
     9    4    5 ar
    10    5    6 ar
    11    5    7 ar
    12    6   38 1
    13    7    8 ar
    14    7   39 1
    15    8    9 ar
    16    8   40 1
    17    9   10 ar
    18    9   41 1
    19   10   11 1
    20   11   12 2
    21   11   13 2
    22   11   14 1
    23   14   15 1
    24   14   42 1
    25   15   16 1
    26   15   43 1
    27   15   44 1
    28   16   21 1
    29   16   17 1
    30   16   45 1
    31   17   18 1
    32   17   46 1
    33   17   47 1
    34   18   19 1
    35   18   48 1
    36   18   49 1
    37   19   20 1
    38   19   22 1
    39   19   50 1
    40   20   21 1
    41   20   51 1
    42   20   52 1
    43   21   53 1
    44   21   54 1
    45   22   23 1
    46   22   55 1
    47   22   56 1
    48   23   24 1
    49   23   57 1
    50   24   33 ar
    51   24   25 ar
    52   25   26 ar
    53   25   64 1
    54   26   31 ar
    55   26   27 ar
    56   27   28 ar
    57   27   58 1
    58   28   29 ar
    59   28   59 1
    60   29   30 ar
    61   29   60 1
    62   30   31 ar
    63   30   61 1
    64   31   32 ar
    65   32   33 ar
    66   32   34 1
    67   34   62 1
    68   34   63 1
@<TRIPOS>MOLECULE
ZINC03933534
   77    81     0     0     0
SMALL
USER_CHARGES

@<TRIPOS>ATOM
      1 C1         -5.0943   -4.2693    4.0514 C.3       1 <0>        -0.1734
      2 C2         -3.9350   -4.4377    3.1034 C.2       1 <0>         0.5253
      3 O1         -3.0042   -5.1545    3.4049 O.2       1 <0>        -0.5239
      4 N1         -3.9325   -3.7918    1.9205 N.am      1 <0>        -0.5578
      5 C3         -4.9394   -2.8165    1.4939 C.3       1 <0>         0.0979
      6 C4         -4.5002   -2.3710    0.0896 C.3       1 <0>        -0.0910
      7 C5         -3.2353   -3.1547   -0.1807 C.ar      1 <0>        -0.1255
      8 C6         -2.9652   -3.9498    0.9229 C.ar      1 <0>         0.1620
      9 C7         -1.8346   -4.7663    0.9108 C.ar      1 <0>        -0.1353
     10 C8         -0.9932   -4.7763   -0.1897 C.ar      1 <0>         0.1443
     11 C9         -1.2731   -3.9716   -1.2871 C.ar      1 <0>        -0.1374
     12 C10        -2.3975   -3.1693   -1.2799 C.ar      1 <0>        -0.0617
     13 N2          0.1389   -5.5966   -0.1959 N.am      1 <0>        -0.5575
     14 C11        -0.0122   -7.0538   -0.1832 C.3       1 <0>         0.1463
     15 C12         0.5463   -7.6379   -1.4840 C.3       1 <0>        -0.1658
     16 C13         0.4580   -9.1646   -1.4303 C.3       1 <0>         0.0007
     17 N3          1.2398   -9.6639   -0.2927 N.4       1 <0>        -0.3844
     18 C14         0.6660   -9.1653    0.9630 C.3       1 <0>        -0.0032
     19 C15         0.7623   -7.6386    1.0014 C.3       1 <0>        -0.1705
     20 C16         1.2160  -11.1327   -0.2911 C.3       1 <0>        -0.0106
     21 C17         2.1306  -11.6563    0.8181 C.3       1 <0>        -0.1419
     22 C18         2.1058  -13.1861    0.8198 C.3       1 <0>        -0.0893
     23 C19         2.8321  -13.7414   -0.4305 C.3       1 <0>        -0.1270
     24 C20         3.2423  -15.1664    0.0172 C.3       1 <0>        -0.1277
     25 C21         3.6439  -14.9970    1.4970 C.3       1 <0>        -0.1294
     26 C22         2.9213  -13.7380    2.0073 C.3       1 <0>        -0.1207
     27 C23         1.3694   -5.0469   -0.2135 C.2       1 <0>         0.5697
     28 O2          2.3518   -5.7573   -0.3204 O.2       1 <0>        -0.5372
     29 C24         1.5241   -3.5953   -0.1040 C.2       1 <0>        -0.2286
     30 C25         2.7452   -3.0366   -0.2244 C.2       1 <0>         0.0060
     31 C26         2.9184   -1.5914   -0.0036 C.ar      1 <0>        -0.0873
     32 C27         1.8420   -0.8153    0.4409 C.ar      1 <0>        -0.0680
     33 C28         2.0037    0.5392    0.6484 C.ar      1 <0>        -0.1185
     34 C29         3.2266    1.1390    0.4192 C.ar      1 <0>        -0.0520
     35 C30         4.3107    0.3774   -0.0252 C.ar      1 <0>        -0.0230
     36 C31         4.1582   -0.9922   -0.2315 C.ar      1 <0>        -0.0427
     37 C32         5.5771    1.0021   -0.2628 C.1       1 <0>         0.2428
     38 N4          6.5818    1.4977   -0.4513 N.1       1 <0>        -0.3976
     39 H1         -4.9626   -4.9309    4.9075 H         1 <0>         0.1005
     40 H2         -5.1361   -3.2354    4.3942 H         1 <0>         0.0973
     41 H3         -6.0227   -4.5197    3.5381 H         1 <0>         0.0939
     42 H4         -5.9236   -3.2830    1.4520 H         1 <0>         0.0906
     43 H5         -4.9525   -1.9647    2.1739 H         1 <0>         0.0907
     44 H6         -5.2660   -2.6200   -0.6450 H         1 <0>         0.0986
     45 H7         -4.2942   -1.3007    0.0774 H         1 <0>         0.0994
     46 H8         -1.6141   -5.3928    1.7625 H         1 <0>         0.1426
     47 H9         -0.6176   -3.9784   -2.1454 H         1 <0>         0.1325
     48 H10        -2.6164   -2.5423   -2.1315 H         1 <0>         0.1376
     49 H11        -1.0676   -7.3099   -0.0908 H         1 <0>         0.1049
     50 H12        -0.0362   -7.2691   -2.3282 H         1 <0>         0.1130
     51 H13         1.5876   -7.3374   -1.6003 H         1 <0>         0.1111
     52 H14        -0.5836   -9.4640   -1.3142 H         1 <0>         0.1284
     53 H15         0.8547   -9.5837   -2.3551 H         1 <0>         0.1340
     54 H16        -0.3800   -9.4647    1.0281 H         1 <0>         0.1288
     55 H17         1.2162   -9.5849    1.8052 H         1 <0>         0.1355
     56 H18         1.8080   -7.3381    0.9366 H         1 <0>         0.1142
     57 H19         0.3342   -7.2703    1.9337 H         1 <0>         0.1133
     58 H20         0.1975  -11.4794   -0.1161 H         1 <0>         0.1293
     59 H21         1.5652  -11.5028   -1.2550 H         1 <0>         0.1313
     60 H22         3.1491  -11.3096    0.6431 H         1 <0>         0.0884
     61 H23         1.7814  -11.2862    1.7820 H         1 <0>         0.0875
     62 H24         1.0792  -13.5501    0.8601 H         1 <0>         0.0851
     63 H25         2.1548  -13.7845   -1.2834 H         1 <0>         0.0676
     64 H26         3.7118  -13.1418   -0.6643 H         1 <0>         0.0708
     65 H27         2.3998  -15.8520   -0.0734 H         1 <0>         0.0690
     66 H28         4.0893  -15.5217   -0.5697 H         1 <0>         0.0704
     67 H29         3.3278  -15.8677    2.0717 H         1 <0>         0.0683
     68 H30         4.7230  -14.8671    1.5785 H         1 <0>         0.0672
     69 H31         3.6498  -12.9970    2.3364 H         1 <0>         0.0671
     70 H32         2.2546  -13.9975    2.8296 H         1 <0>         0.0691
     71 H33         0.6602   -2.9720    0.0731 H         1 <0>         0.1363
     72 H34         3.5963   -3.6493   -0.4827 H         1 <0>         0.1397
     73 H35         0.8827   -1.2775    0.6214 H         1 <0>         0.1335
     74 H36         1.1697    1.1335    0.9915 H         1 <0>         0.1407
     75 H37         3.3453    2.1998    0.5836 H         1 <0>         0.1397
     76 H38         4.9940   -1.5864   -0.5703 H         1 <0>         0.1402
     77 H39         2.1935   -9.3451   -0.3755 H         1 <0>         0.4258
@<TRIPOS>BOND
     1    1    2 1
     2    1   39 1
     3    1   40 1
     4    1   41 1
     5    2    3 2
     6    2    4 am
     7    4    8 1
     8    4    5 1
     9    5    6 1
    10    5   42 1
    11    5   43 1
    12    6    7 1
    13    6   44 1
    14    6   45 1
    15    7   12 ar
    16    7    8 ar
    17    8    9 ar
    18    9   10 ar
    19    9   46 1
    20   10   11 ar
    21   10   13 1
    22   11   12 ar
    23   11   47 1
    24   12   48 1
    25   13   14 1
    26   13   27 am
    27   14   19 1
    28   14   15 1
    29   14   49 1
    30   15   16 1
    31   15   50 1
    32   15   51 1
    33   16   17 1
    34   16   52 1
    35   16   53 1
    36   17   18 1
    37   17   20 1
    38   17   77 1
    39   18   19 1
    40   18   54 1
    41   18   55 1
    42   19   56 1
    43   19   57 1
    44   20   21 1
    45   20   58 1
    46   20   59 1
    47   21   22 1
    48   21   60 1
    49   21   61 1
    50   22   26 1
    51   22   23 1
    52   22   62 1
    53   23   24 1
    54   23   63 1
    55   23   64 1
    56   24   25 1
    57   24   65 1
    58   24   66 1
    59   25   26 1
    60   25   67 1
    61   25   68 1
    62   26   69 1
    63   26   70 1
    64   27   28 2
    65   27   29 1
    66   29   30 2
    67   29   71 1
    68   30   31 1
    69   30   72 1
    70   31   36 ar
    71   31   32 ar
    72   32   33 ar
    73   32   73 1
    74   33   34 ar
    75   33   74 1
    76   34   35 ar
    77   34   75 1
    78   35   36 ar
    79   35   37 1
    80   36   76 1
    81   37   38 3
@<TRIPOS>MOLECULE
ZINC16080001
   70    74     0     0     0
SMALL
USER_CHARGES
(E)-N-(1-acetylindolin-6-yl)-N-(1-benzyl-4-piperidyl)-3-phenyl-prop-2-enamide
@<TRIPOS>ATOM
      1 C1          1.4520    5.1692    4.1972 C.3       1 <0>        -0.1732
      2 C2          0.6253    4.3653    3.2270 C.2       1 <0>         0.5263
      3 O1         -0.5384    4.1282    3.4732 O.2       1 <0>        -0.5255
      4 N1          1.1790    3.9099    2.0858 N.am      1 <0>        -0.5570
      5 C3          2.5366    4.2191    1.6291 C.3       1 <0>         0.0970
      6 C4          2.6929    3.4735    0.2939 C.3       1 <0>        -0.0905
      7 C5          1.3668    2.7755    0.0897 C.ar      1 <0>        -0.1261
      8 C6          0.5421    3.0730    1.1641 C.ar      1 <0>         0.1612
      9 C7         -0.7453    2.5379    1.2000 C.ar      1 <0>        -0.1354
     10 C8         -1.1878    1.7158    0.1764 C.ar      1 <0>         0.1460
     11 C9         -0.3530    1.4297   -0.8966 C.ar      1 <0>        -0.1367
     12 C10         0.9221    1.9595   -0.9334 C.ar      1 <0>        -0.0621
     13 N2         -2.4774    1.1777    0.2209 N.am      1 <0>        -0.5584
     14 C11        -3.6431    2.0613    0.1390 C.3       1 <0>         0.1465
     15 C12        -4.5507    1.8246    1.3493 C.3       1 <0>        -0.1692
     16 C13        -5.7966    2.7048    1.2264 C.3       1 <0>         0.0010
     17 C14        -5.6730    2.6437   -1.1930 C.3       1 <0>         0.0059
     18 C15        -4.4242    1.7605   -1.1431 C.3       1 <0>        -0.1665
     19 C16        -7.7823    3.1064   -0.0988 C.3       1 <0>         0.0487
     20 C17        -8.5033    3.0105    1.2211 C.ar      1 <0>        -0.1601
     21 C18        -9.3848    1.9713    1.4532 C.ar      1 <0>        -0.0934
     22 C19       -10.0421    1.8804    2.6659 C.ar      1 <0>        -0.1133
     23 C20        -9.8262    2.8347    3.6424 C.ar      1 <0>        -0.0849
     24 C21        -8.9489    3.8770    3.4081 C.ar      1 <0>        -0.1145
     25 C22        -8.2873    3.9648    2.1976 C.ar      1 <0>        -0.0966
     26 C23        -2.6483   -0.1540    0.3390 C.2       1 <0>         0.5705
     27 O2         -3.7658   -0.6321    0.2765 O.2       1 <0>        -0.5390
     28 C24        -1.4897   -1.0253    0.5425 C.2       1 <0>        -0.2369
     29 C25        -1.6477   -2.3642    0.5582 C.2       1 <0>         0.0104
     30 C26        -0.5047   -3.2365    0.8735 C.ar      1 <0>        -0.0923
     31 C27         0.7198   -2.6798    1.2559 C.ar      1 <0>        -0.0943
     32 C28         1.7840   -3.5038    1.5556 C.ar      1 <0>        -0.1229
     33 C29         1.6463   -4.8781    1.4669 C.ar      1 <0>        -0.0982
     34 C30         0.4393   -5.4365    1.0836 C.ar      1 <0>        -0.1223
     35 C31        -0.6360   -4.6260    0.7866 C.ar      1 <0>        -0.0889
     36 H1          2.4644    5.2786    3.8083 H         1 <0>         0.0831
     37 H2          1.0042    6.1545    4.3268 H         1 <0>         0.1033
     38 H3          1.4855    4.6561    5.1583 H         1 <0>         0.1044
     39 H4          3.2695    3.8591    2.3512 H         1 <0>         0.0912
     40 H5          2.6509    5.2926    1.4784 H         1 <0>         0.0907
     41 H6          3.5005    2.7443    0.3579 H         1 <0>         0.0991
     42 H7          2.8798    4.1790   -0.5158 H         1 <0>         0.0986
     43 H8         -1.3980    2.7615    2.0309 H         1 <0>         0.1424
     44 H9         -0.6985    0.7923   -1.6971 H         1 <0>         0.1320
     45 H10         1.5741    1.7349   -1.7646 H         1 <0>         0.1372
     46 H11        -3.3128    3.1000    0.1290 H         1 <0>         0.1043
     47 H12        -4.8484    0.7765    1.3814 H         1 <0>         0.1129
     48 H13        -4.0129    2.0788    2.2627 H         1 <0>         0.1115
     49 H14        -5.4990    3.7533    1.2094 H         1 <0>         0.1283
     50 H15        -6.4522    2.5273    2.0788 H         1 <0>         0.1348
     51 H16        -5.3761    3.6925   -1.1986 H         1 <0>         0.1303
     52 H17        -6.2389    2.4218   -2.0977 H         1 <0>         0.1330
     53 H18        -3.7962    1.9689   -2.0093 H         1 <0>         0.1129
     54 H19        -4.7200    0.7114   -1.1514 H         1 <0>         0.1104
     55 H20        -7.5875    4.1534   -0.3312 H         1 <0>         0.1361
     56 H21        -8.4003    2.6690   -0.8830 H         1 <0>         0.1346
     57 H22        -9.5569    1.2282    0.6886 H         1 <0>         0.1311
     58 H23       -10.7272    1.0658    2.8490 H         1 <0>         0.1357
     59 H24       -10.3425    2.7657    4.5884 H         1 <0>         0.1353
     60 H25        -8.7802    4.6226    4.1710 H         1 <0>         0.1356
     61 H26        -7.6019    4.7791    2.0146 H         1 <0>         0.1302
     62 H27        -0.5085   -0.5957    0.6801 H         1 <0>         0.1343
     63 H28        -2.6128   -2.7967    0.3394 H         1 <0>         0.1358
     64 H29         0.8303   -1.6074    1.3206 H         1 <0>         0.1245
     65 H30         2.7290   -3.0755    1.8557 H         1 <0>         0.1278
     66 H31         2.4849   -5.5181    1.6982 H         1 <0>         0.1284
     67 H32         0.3395   -6.5098    1.0166 H         1 <0>         0.1299
     68 H33        -1.5774   -5.0633    0.4880 H         1 <0>         0.1289
     69 N3         -6.5164    2.3491   -0.0151 N.4       1 <0>        -0.3933
     70 H34        -6.7291    1.3448   -0.0007 H         1 <0>         0.4296
@<TRIPOS>BOND
     1    1    2 1
     2    1   36 1
     3    1   37 1
     4    1   38 1
     5    2    3 2
     6    2    4 am
     7    4    8 1
     8    4    5 1
     9    5    6 1
    10    5   39 1
    11    5   40 1
    12    6    7 1
    13    6   41 1
    14    6   42 1
    15    7   12 ar
    16    7    8 ar
    17    8    9 ar
    18    9   10 ar
    19    9   43 1
    20   10   11 ar
    21   10   13 1
    22   11   12 ar
    23   11   44 1
    24   12   45 1
    25   13   14 1
    26   13   26 am
    27   14   18 1
    28   14   15 1
    29   14   46 1
    30   15   16 1
    31   15   47 1
    32   15   48 1
    33   16   49 1
    34   16   50 1
    35   16   69 1
    36   17   18 1
    37   17   51 1
    38   17   52 1
    39   17   69 1
    40   18   53 1
    41   18   54 1
    42   19   20 1
    43   19   55 1
    44   19   56 1
    45   19   69 1
    46   20   25 ar
    47   20   21 ar
    48   21   22 ar
    49   21   57 1
    50   22   23 ar
    51   22   58 1
    52   23   24 ar
    53   23   59 1
    54   24   25 ar
    55   24   60 1
    56   25   61 1
    57   26   27 2
    58   26   28 1
    59   28   29 2
    60   28   62 1
    61   29   30 1
    62   29   63 1
    63   30   35 ar
    64   30   31 ar
    65   31   32 ar
    66   31   64 1
    67   32   33 ar
    68   32   65 1
    69   33   34 ar
    70   33   66 1
    71   34   35 ar
    72   34   67 1
    73   35   68 1
    74   69   70 1
