@<TRIPOS>MOLECULE
ZINC00598852
   51    53     0     0     0
SMALL
USER_CHARGES

@<TRIPOS>ATOM
      1 C1          0.5429    1.5070    0.0182 C.3       1 <0>        -0.1671
      2 C2          0.5454    0.0000    0.0096 C.ar      1 <0>         0.0307
      3 C3          0.6980   -0.6802   -1.1634 C.ar      1 <0>        -0.1172
      4 C4          0.7027   -2.0714   -1.1869 C.ar      1 <0>         0.0047
      5 C5          0.5547   -2.7939   -0.0399 C.ar      1 <0>        -0.1547
      6 C6          0.3958   -2.1272    1.1822 C.ar      1 <0>         0.2100
      7 C7          0.3970   -0.7113    1.2046 C.ar      1 <0>        -0.1916
      8 C8          0.2398   -0.0587    2.4533 C.ar      1 <0>         0.5718
      9 N1          0.1047   -0.8049    3.5395 N.ar      1 <0>        -0.5815
     10 C9          0.1146   -2.1336    3.4740 C.ar      1 <0>         0.6862
     11 N2          0.2462   -2.7915    2.3381 N.ar      1 <0>        -0.5785
     12 N3         -0.0306   -2.8556    4.6447 N.pl3     1 <0>        -0.7851
     13 N4          0.2283    1.3172    2.5352 N.pl3     1 <0>        -0.8075
     14 C10         0.8631    0.0856   -2.4507 C.3       1 <0>         0.1601
     15 N5          2.2497    0.5425   -2.5728 N.pl3     1 <0>        -0.7426
     16 C11         2.6471    1.2801   -3.6932 C.ar      1 <0>         0.2787
     17 C12         1.7259    1.5838   -4.6864 C.ar      1 <0>        -0.3075
     18 C13         2.1190    2.3146   -5.7968 C.ar      1 <0>         0.1942
     19 C14         3.4355    2.7433   -5.9156 C.ar      1 <0>        -0.0188
     20 C15         4.3571    2.4389   -4.9210 C.ar      1 <0>         0.1949
     21 C16         3.9612    1.7128   -3.8085 C.ar      1 <0>        -0.3034
     22 O1          5.6456    2.8580   -5.0364 O.3       1 <0>        -0.2978
     23 C17         6.5387    2.5092   -3.9768 C.3       1 <0>         0.0256
     24 O2          3.8225    3.4609   -7.0064 O.3       1 <0>        -0.3094
     25 C18         3.7098    4.8829   -6.9209 C.3       1 <0>         0.0337
     26 O3          1.2165    2.6116   -6.7698 O.3       1 <0>        -0.2977
     27 C19        -0.1189    2.1387   -6.5823 C.3       1 <0>         0.0256
     28 H1          1.5373    1.8705    0.2774 H         1 <0>         0.0979
     29 H2          0.2676    1.8755   -0.9700 H         1 <0>         0.0999
     30 H3         -0.1779    1.8650    0.7533 H         1 <0>         0.1021
     31 H4          0.8251   -2.5869   -2.1281 H         1 <0>         0.1583
     32 H5          0.5597   -3.8734   -0.0733 H         1 <0>         0.1603
     33 H6         -0.1367   -2.3923    5.4903 H         1 <0>         0.4460
     34 H7         -0.0263   -3.8253    4.6202 H         1 <0>         0.4316
     35 H8         -0.4142    1.7635    3.1087 H         1 <0>         0.4288
     36 H9          0.8626    1.8391    2.0193 H         1 <0>         0.4358
     37 H10         0.6185   -0.5620   -3.2927 H         1 <0>         0.0808
     38 H11         0.1955    0.9472   -2.4491 H         1 <0>         0.0823
     39 H12         2.8922    0.3335   -1.8768 H         1 <0>         0.4012
     40 H13         0.7028    1.2503   -4.5941 H         1 <0>         0.1330
     41 H14         4.6763    1.4800   -3.0333 H         1 <0>         0.1322
     42 H15         7.5314    2.9038   -4.1935 H         1 <0>         0.1049
     43 H16         6.1753    2.9338   -3.0409 H         1 <0>         0.0557
     44 H17         6.5905    1.4241   -3.8876 H         1 <0>         0.0576
     45 H18         4.3243    5.2472   -6.0976 H         1 <0>         0.0423
     46 H19         4.0502    5.3312   -7.8543 H         1 <0>         0.0924
     47 H20         2.6690    5.1550   -6.7455 H         1 <0>         0.0423
     48 H21        -0.5282    2.5607   -5.6645 H         1 <0>         0.0553
     49 H22        -0.7344    2.4437   -7.4286 H         1 <0>         0.1049
     50 H23        -0.1125    1.0511   -6.5109 H         1 <0>         0.0571
     51 H24         0.2468   -3.7615    2.3402 H         1 <0>         0.4417
@<TRIPOS>BOND
     1    1    2 1
     2    1   28 1
     3    1   29 1
     4    1   30 1
     5    2    7 ar
     6    2    3 ar
     7    3    4 ar
     8    3   14 1
     9    4    5 ar
    10    4   31 1
    11    5    6 ar
    12    5   32 1
    13    6   11 ar
    14    6    7 ar
    15    7    8 ar
    16    8    9 ar
    17    8   13 1
    18    9   10 ar
    19   10   11 ar
    20   10   12 1
    21   11   51 1
    22   12   33 1
    23   12   34 1
    24   13   35 1
    25   13   36 1
    26   14   15 1
    27   14   37 1
    28   14   38 1
    29   15   16 1
    30   15   39 1
    31   16   21 ar
    32   16   17 ar
    33   17   18 ar
    34   17   40 1
    35   18   19 ar
    36   18   26 1
    37   19   20 ar
    38   19   24 1
    39   20   21 ar
    40   20   22 1
    41   21   41 1
    42   22   23 1
    43   23   42 1
    44   23   43 1
    45   23   44 1
    46   24   25 1
    47   25   45 1
    48   25   46 1
    49   25   47 1
    50   26   27 1
    51   27   48 1
    52   27   49 1
    53   27   50 1
@<TRIPOS>MOLECULE
ZINC06627681
   39    40     0     0     0
SMALL
USER_CHARGES

@<TRIPOS>ATOM
      1 C1         -0.0173    1.4248    0.0099 C.3       1 <0>         0.0239
      2 O1          0.0021   -0.0041    0.0020 O.3       1 <0>        -0.3021
      3 C2         -1.2011   -0.6379    0.0101 C.ar      1 <0>         0.1549
      4 C3         -2.3748    0.1005    0.0195 C.ar      1 <0>        -0.2271
      5 C4         -3.5982   -0.5428    0.0277 C.ar      1 <0>        -0.0020
      6 C5         -3.6572   -1.9238    0.0266 C.ar      1 <0>        -0.2327
      7 C6         -2.4882   -2.6696    0.0172 C.ar      1 <0>         0.1543
      8 C7         -1.2561   -2.0266    0.0032 C.ar      1 <0>         0.0227
      9 O2         -0.1065   -2.7549   -0.0117 O.3       1 <0>        -0.3126
     10 C8          0.4536   -3.1089    1.2544 C.3       1 <0>         0.0351
     11 O3         -2.5472   -4.0282    0.0166 O.3       1 <0>        -0.3013
     12 C9         -3.8474   -4.6211    0.0259 C.3       1 <0>         0.0236
     13 C10        -4.8712    0.2637    0.0384 C.3       1 <0>        -0.0163
     14 C11        -5.3062    0.5346   -1.3789 C.ar      1 <0>        -0.3083
     15 C12        -4.9545    1.7101   -2.0132 C.ar      1 <0>         0.2250
     16 N1         -5.3522    1.9181   -3.2597 N.ar      1 <0>        -0.6043
     17 C13        -6.0798    1.0161   -3.9019 C.ar      1 <0>         0.6032
     18 N2         -6.4382   -0.1231   -3.3293 N.ar      1 <0>        -0.6263
     19 C14        -6.0690   -0.3996   -2.0826 C.ar      1 <0>         0.4894
     20 N3         -6.4404   -1.5946   -1.4883 N.pl3     1 <0>        -0.8360
     21 N4         -6.4756    1.2708   -5.2034 N.pl3     1 <0>        -0.8207
     22 H1          1.0053    1.8021    0.0021 H         1 <0>         0.1035
     23 H2         -0.5445    1.7859   -0.8732 H         1 <0>         0.0589
     24 H3         -0.5275    1.7763    0.9067 H         1 <0>         0.0581
     25 H4         -2.3329    1.1797    0.0207 H         1 <0>         0.1363
     26 H5         -4.6151   -2.4227    0.0334 H         1 <0>         0.1280
     27 H6         -0.2648   -3.7070    1.8151 H         1 <0>         0.0438
     28 H7          1.3650   -3.6864    1.0998 H         1 <0>         0.0924
     29 H8          0.6878   -2.2033    1.8141 H         1 <0>         0.0441
     30 H9         -4.3845   -4.3050    0.9202 H         1 <0>         0.0570
     31 H10        -4.3978   -4.3036   -0.8597 H         1 <0>         0.0568
     32 H11        -3.7517   -5.7069    0.0243 H         1 <0>         0.1041
     33 H12        -5.6506   -0.2944    0.5572 H         1 <0>         0.0773
     34 H13        -4.6980    1.2092    0.5523 H         1 <0>         0.0904
     35 H14        -4.3619    2.4519   -1.4984 H         1 <0>         0.1633
     36 H15        -6.1706   -1.7873   -0.5767 H         1 <0>         0.4079
     37 H16        -6.2200    2.1014   -5.6342 H         1 <0>         0.4156
     38 H17        -7.0085    0.6187   -5.6847 H         1 <0>         0.4133
     39 H18        -6.9704   -2.2385   -1.9837 H         1 <0>         0.4067
@<TRIPOS>BOND
     1    1    2 1
     2    1   22 1
     3    1   23 1
     4    1   24 1
     5    2    3 1
     6    3    8 ar
     7    3    4 ar
     8    4    5 ar
     9    4   25 1
    10    5    6 ar
    11    5   13 1
    12    6    7 ar
    13    6   26 1
    14    7    8 ar
    15    7   11 1
    16    8    9 1
    17    9   10 1
    18   10   27 1
    19   10   28 1
    20   10   29 1
    21   11   12 1
    22   12   30 1
    23   12   31 1
    24   12   32 1
    25   13   14 1
    26   13   33 1
    27   13   34 1
    28   14   19 ar
    29   14   15 ar
    30   15   16 ar
    31   15   35 1
    32   16   17 ar
    33   17   18 ar
    34   17   21 1
    35   18   19 ar
    36   19   20 1
    37   20   36 1
    38   20   39 1
    39   21   37 1
    40   21   38 1
@<TRIPOS>MOLECULE
ZINC06627681
   40    41     0     0     0
SMALL
USER_CHARGES

@<TRIPOS>ATOM
      1 C1         -0.0173    1.4248    0.0099 C.3       1 <0>         0.0236
      2 O1          0.0021   -0.0041    0.0020 O.3       1 <0>        -0.2966
      3 C2          0.6062   -0.6075   -1.0565 C.ar      1 <0>         0.1590
      4 C3          1.1731    0.1601   -2.0626 C.ar      1 <0>        -0.2276
      5 C4          1.7874   -0.4523   -3.1388 C.ar      1 <0>        -0.0278
      6 C5          1.8393   -1.8314   -3.2169 C.ar      1 <0>        -0.2351
      7 C6          1.2749   -2.6062   -2.2150 C.ar      1 <0>         0.1601
      8 C7          0.6613   -1.9944   -1.1284 C.ar      1 <0>         0.0371
      9 O2          0.1111   -2.7512   -0.1402 O.3       1 <0>        -0.3127
     10 C8         -1.2598   -3.1236   -0.2953 C.3       1 <0>         0.0346
     11 O3          1.3261   -3.9630   -2.2930 O.3       1 <0>        -0.2955
     12 C9          1.9770   -4.5231   -3.4352 C.3       1 <0>         0.0221
     13 C10         2.4017    0.3858   -4.2302 C.3       1 <0>        -0.0295
     14 C11         3.8422    0.6725   -3.8928 C.ar      1 <0>        -0.2227
     15 C12         4.1975    1.8410   -3.2477 C.ar      1 <0>         0.2105
     16 N1          5.4726    2.0633   -2.9647 N.ar      1 <0>        -0.5697
     17 C13         6.4065    1.1822   -3.2920 C.ar      1 <0>         0.6625
     18 N2          6.1075    0.0504   -3.9114 N.ar      1 <0>        -0.5720
     19 C14         4.8475   -0.2398   -4.2201 C.ar      1 <0>         0.5372
     20 N3          4.5370   -1.4272   -4.8628 N.pl3     1 <0>        -0.7792
     21 N4          7.7275    1.4516   -2.9793 N.pl3     1 <0>        -0.7906
     22 H1          1.0053    1.8021    0.0021 H         1 <0>         0.0555
     23 H2         -0.5445    1.7859   -0.8732 H         1 <0>         0.0607
     24 H3         -0.5275    1.7763    0.9067 H         1 <0>         0.1087
     25 H4          1.1343    1.2379   -2.0054 H         1 <0>         0.1378
     26 H5          2.3199   -2.3061   -4.0596 H         1 <0>         0.1268
     27 H6         -1.3771   -3.7054   -1.2095 H         1 <0>         0.0473
     28 H7         -1.5724   -3.7233    0.5596 H         1 <0>         0.0987
     29 H8         -1.8756   -2.2262   -0.3542 H         1 <0>         0.0474
     30 H9          1.4660   -4.1967   -4.3410 H         1 <0>         0.0599
     31 H10         3.0141   -4.1888   -3.4626 H         1 <0>         0.0544
     32 H11         1.9474   -5.6109   -3.3732 H         1 <0>         0.1103
     33 H12         2.3506   -0.1544   -5.1756 H         1 <0>         0.0994
     34 H13         1.8554    1.3249   -4.3183 H         1 <0>         0.1128
     35 H14         3.4440    2.5659   -2.9772 H         1 <0>         0.2147
     36 H15         3.6157   -1.6298   -5.0887 H         1 <0>         0.4275
     37 H16         7.9600    2.2771   -2.5260 H         1 <0>         0.4311
     38 H17         8.4208    0.8149   -3.2134 H         1 <0>         0.4453
     39 H18         5.2409   -2.0558   -5.0868 H         1 <0>         0.4288
     40 H19         5.7260    2.8827   -2.5117 H         1 <0>         0.4452
@<TRIPOS>BOND
     1    1    2 1
     2    1   22 1
     3    1   23 1
     4    1   24 1
     5    2    3 1
     6    3    8 ar
     7    3    4 ar
     8    4    5 ar
     9    4   25 1
    10    5    6 ar
    11    5   13 1
    12    6    7 ar
    13    6   26 1
    14    7    8 ar
    15    7   11 1
    16    8    9 1
    17    9   10 1
    18   10   27 1
    19   10   28 1
    20   10   29 1
    21   11   12 1
    22   12   30 1
    23   12   31 1
    24   12   32 1
    25   13   14 1
    26   13   33 1
    27   13   34 1
    28   14   19 ar
    29   14   15 ar
    30   15   16 ar
    31   15   35 1
    32   16   17 ar
    33   16   40 1
    34   17   18 ar
    35   17   21 1
    36   18   19 ar
    37   19   20 1
    38   20   36 1
    39   20   39 1
    40   21   37 1
    41   21   38 1
@<TRIPOS>MOLECULE
ZINC00000640
   43    45     0     0     0
SMALL
USER_CHARGES
8-[(2,5-dimethoxyphenyl)methyl]-7-methyl-2,4,10-triazabicyclo[4.4.0]deca-2,4,6,8,10-pentaene-3,5-diamine
@<TRIPOS>ATOM
      1 C1          3.5065    8.2770   -0.3471 C.3       1 <0>        -0.1506
      2 C2          3.5106    7.2923   -1.4879 C.ar      1 <0>         0.0340
      3 C3          3.5305    5.9421   -1.2542 C.ar      1 <0>        -0.1724
      4 C4          3.5392    5.0549   -2.3234 C.ar      1 <0>         0.2009
      5 N1          3.5174    5.4726   -3.5696 N.ar      1 <0>        -0.4888
      6 C5          3.4976    6.7731   -3.8623 C.ar      1 <0>         0.4050
      7 C6          3.4936    7.7296   -2.8172 C.ar      1 <0>        -0.2731
      8 C7          3.4719    9.1049   -3.1575 C.ar      1 <0>         0.5206
      9 N2          3.4563    9.4333   -4.4415 N.ar      1 <0>        -0.6171
     10 C8          3.4607    8.5036   -5.3924 C.ar      1 <0>         0.6192
     11 N3          3.4806    7.2104   -5.1296 N.ar      1 <0>        -0.5903
     12 N4          3.4432    8.9092   -6.7132 N.pl3     1 <0>        -0.8137
     13 N5          3.4667   10.0751   -2.1796 N.pl3     1 <0>        -0.8468
     14 C9          3.5493    5.4207    0.1596 C.3       1 <0>        -0.0189
     15 C10         3.7139    3.9228    0.1405 C.ar      1 <0>        -0.0822
     16 C11         2.6074    3.1047    0.2626 C.ar      1 <0>        -0.1082
     17 C12         2.7589    1.7263    0.2455 C.ar      1 <0>         0.0958
     18 C13         4.0221    1.1690    0.1115 C.ar      1 <0>        -0.1673
     19 C14         5.1277    1.9869   -0.0164 C.ar      1 <0>        -0.1656
     20 C15         4.9761    3.3657    0.0008 C.ar      1 <0>         0.0984
     21 O1          6.0652    4.1710   -0.1199 O.3       1 <0>        -0.3104
     22 C16         7.3342    3.5292   -0.2604 C.3       1 <0>         0.0264
     23 O2          1.6698    0.9210    0.3657 O.3       1 <0>        -0.3164
     24 C17         1.8996   -0.4891    0.3399 C.3       1 <0>         0.0270
     25 H1          4.5237    8.6214   -0.1608 H         1 <0>         0.0854
     26 H2          2.8761    9.1282   -0.6042 H         1 <0>         0.0984
     27 H3          3.1167    7.7937    0.5487 H         1 <0>         0.0825
     28 H4          3.5599    3.9935   -2.1253 H         1 <0>         0.1602
     29 H5          3.4458    8.2486   -7.4235 H         1 <0>         0.4176
     30 H6          3.4285    9.8546   -6.9301 H         1 <0>         0.4150
     31 H7          4.0336    9.9793   -1.3984 H         1 <0>         0.4180
     32 H8          2.8962   10.8541   -2.2722 H         1 <0>         0.4095
     33 H9          2.6122    5.6769    0.6538 H         1 <0>         0.0894
     34 H10         4.3809    5.8707    0.7018 H         1 <0>         0.0937
     35 H11         1.6244    3.5386    0.3718 H         1 <0>         0.1400
     36 H12         4.1407    0.0956    0.1029 H         1 <0>         0.1317
     37 H13         6.1107    1.5530   -0.1252 H         1 <0>         0.1325
     38 H14         7.3295    2.9068   -1.1552 H         1 <0>         0.0552
     39 H15         8.1156    4.2842   -0.3470 H         1 <0>         0.0995
     40 H16         7.5254    2.9070    0.6139 H         1 <0>         0.0549
     41 H17         0.9500   -1.0140    0.4447 H         1 <0>         0.1009
     42 H18         2.3642   -0.7643   -0.6070 H         1 <0>         0.0555
     43 H19         2.5598   -0.7648    1.1622 H         1 <0>         0.0547
@<TRIPOS>BOND
     1    1    2 1
     2    1   25 1
     3    1   26 1
     4    1   27 1
     5    2    7 ar
     6    2    3 ar
     7    3    4 ar
     8    3   14 1
     9    4    5 ar
    10    4   28 1
    11    5    6 ar
    12    6   11 ar
    13    6    7 ar
    14    7    8 ar
    15    8    9 ar
    16    8   13 1
    17    9   10 ar
    18   10   11 ar
    19   10   12 1
    20   12   29 1
    21   12   30 1
    22   13   31 1
    23   13   32 1
    24   14   15 1
    25   14   33 1
    26   14   34 1
    27   15   20 ar
    28   15   16 ar
    29   16   17 ar
    30   16   35 1
    31   17   18 ar
    32   17   23 1
    33   18   19 ar
    34   18   36 1
    35   19   20 ar
    36   19   37 1
    37   20   21 1
    38   21   22 1
    39   22   38 1
    40   22   39 1
    41   22   40 1
    42   23   24 1
    43   24   41 1
    44   24   42 1
    45   24   43 1
@<TRIPOS>MOLECULE
ZINC00000640
   44    46     0     0     0
SMALL
USER_CHARGES
6-[(2,5-dimethoxyphenyl)methyl]-5-methyl-pyrido[3,2-e]pyrimidine-2,4-diamine
@<TRIPOS>ATOM
      1 C1          3.5026    8.2770   -0.3471 C.3       1 <0>        -0.1623
      2 C2          3.5068    7.2922   -1.4879 C.ar      1 <0>         0.0415
      3 C3          3.5339    5.9421   -1.2542 C.ar      1 <0>        -0.1364
      4 C4          3.5435    5.0550   -2.3234 C.ar      1 <0>         0.2418
      5 N1          3.5212    5.4727   -3.5696 N.ar      1 <0>        -0.4732
      6 C5          3.4882    6.7729   -3.8622 C.ar      1 <0>         0.3969
      7 C6          3.4834    7.7294   -2.8171 C.ar      1 <0>        -0.2387
      8 C7          3.4615    9.1047   -3.1576 C.ar      1 <0>         0.5725
      9 N2          3.4329    9.4328   -4.4414 N.ar      1 <0>        -0.5726
     10 C8          3.4322    8.5030   -5.3922 C.ar      1 <0>         0.6045
     11 N3          3.4026    8.9083   -6.7128 N.pl3     1 <0>        -0.7947
     12 N4          3.4624   10.0751   -2.1798 N.pl3     1 <0>        -0.8206
     13 C9          3.5533    5.4208    0.1596 C.3       1 <0>        -0.0266
     14 C10         3.7195    3.9230    0.1404 C.ar      1 <0>        -0.1017
     15 C11         2.6139    3.1038    0.2626 C.ar      1 <0>        -0.1085
     16 C12         2.7669    1.7255    0.2455 C.ar      1 <0>         0.1008
     17 C13         4.0306    1.1696    0.1114 C.ar      1 <0>        -0.1595
     18 C14         5.1354    1.9886   -0.0165 C.ar      1 <0>        -0.1615
     19 C15         4.9823    3.3673    0.0007 C.ar      1 <0>         0.0962
     20 O1          6.0706    4.1737   -0.1201 O.3       1 <0>        -0.3165
     21 C16         7.3402    3.5333   -0.2606 C.3       1 <0>         0.0247
     22 O2          1.6786    0.9191    0.3657 O.3       1 <0>        -0.3147
     23 C17         1.9099   -0.4908    0.3399 C.3       1 <0>         0.0249
     24 H1          4.5190    8.6255   -0.1643 H         1 <0>         0.1026
     25 H2          2.8678    9.1256   -0.6021 H         1 <0>         0.0980
     26 H3          3.1178    7.7921    0.5500 H         1 <0>         0.1045
     27 H4          3.5700    3.9937   -2.1254 H         1 <0>         0.1833
     28 H5          3.4016    8.2476   -7.4231 H         1 <0>         0.4471
     29 H6          3.3829    9.8536   -6.9297 H         1 <0>         0.4240
     30 H7          4.0364    9.9808   -1.4036 H         1 <0>         0.4469
     31 H8          2.8892   10.8526   -2.2675 H         1 <0>         0.4310
     32 H9          2.6160    5.6760    0.6538 H         1 <0>         0.1032
     33 H10         4.3845    5.8716    0.7017 H         1 <0>         0.1063
     34 H11         1.6305    3.5366    0.3719 H         1 <0>         0.1418
     35 H12         4.1504    0.0963    0.1028 H         1 <0>         0.1363
     36 H13         6.1188    1.5558   -0.1254 H         1 <0>         0.1363
     37 H14         7.3361    2.9109   -1.1555 H         1 <0>         0.0572
     38 H15         8.1208    4.2891   -0.3473 H         1 <0>         0.1016
     39 H16         7.5321    2.9113    0.6136 H         1 <0>         0.0593
     40 H17         0.9609   -1.0167    0.4447 H         1 <0>         0.1049
     41 H18         2.3748   -0.7655   -0.6070 H         1 <0>         0.0575
     42 H19         2.5705   -0.7658    1.1622 H         1 <0>         0.0577
     43 N5          3.4593    7.1626   -5.1838 N.ar      1 <0>        -0.4652
     44 H20         3.4117   10.3956   -4.7111 H         1 <0>         0.4493
@<TRIPOS>BOND
     1    1    2 1
     2    1   24 1
     3    1   25 1
     4    1   26 1
     5    2    7 ar
     6    2    3 ar
     7    3   13 1
     8    3    4 ar
     9    4   27 1
    10    4    5 ar
    11    5    6 ar
    12    6    7 ar
    13    6   43 ar
    14    7    8 ar
    15    8   12 1
    16    8    9 ar
    17    9   10 ar
    18    9   44 1
    19   10   11 1
    20   10   43 ar
    21   11   28 1
    22   11   29 1
    23   12   30 1
    24   12   31 1
    25   13   14 1
    26   13   32 1
    27   13   33 1
    28   14   19 ar
    29   14   15 ar
    30   15   16 ar
    31   15   34 1
    32   16   17 ar
    33   16   22 1
    34   17   18 ar
    35   17   35 1
    36   18   19 ar
    37   18   36 1
    38   19   20 1
    39   20   21 1
    40   21   37 1
    41   21   38 1
    42   21   39 1
    43   22   23 1
    44   23   40 1
    45   23   41 1
    46   23   42 1
@<TRIPOS>MOLECULE
ZINC00000640
   44    46     0     0     0
SMALL
USER_CHARGES
8-[(2,5-dimethoxyphenyl)methyl]-7-methyl-2,4,10-triazabicyclo[4.4.0]deca-2,4,6,8,10-pentaene-3,5-diamine
@<TRIPOS>ATOM
      1 C1          3.5065    8.2770   -0.3471 C.3       1 <0>        -0.1639
      2 C2          3.5106    7.2923   -1.4879 C.ar      1 <0>         0.0541
      3 C3          3.5305    5.9421   -1.2542 C.ar      1 <0>        -0.1302
      4 C4          3.5392    5.0549   -2.3234 C.ar      1 <0>         0.2243
      5 N1          3.5174    5.4726   -3.5696 N.ar      1 <0>        -0.4980
      6 C5          3.4976    6.7731   -3.8623 C.ar      1 <0>         0.3907
      7 C6          3.4936    7.7296   -2.8172 C.ar      1 <0>        -0.2267
      8 C7          3.4719    9.1049   -3.1575 C.ar      1 <0>         0.5800
      9 N2          3.4563    9.4333   -4.4415 N.ar      1 <0>        -0.5730
     10 C8          3.4607    8.5036   -5.3924 C.ar      1 <0>         0.6920
     11 N3          3.4432    8.9092   -6.7132 N.pl3     1 <0>        -0.7812
     12 N4          3.4667   10.0751   -2.1796 N.pl3     1 <0>        -0.8037
     13 C9          3.5493    5.4207    0.1596 C.3       1 <0>        -0.0285
     14 C10         3.7139    3.9228    0.1405 C.ar      1 <0>        -0.1017
     15 C11         2.6074    3.1047    0.2626 C.ar      1 <0>        -0.1086
     16 C12         2.7589    1.7263    0.2455 C.ar      1 <0>         0.1007
     17 C13         4.0221    1.1690    0.1115 C.ar      1 <0>        -0.1597
     18 C14         5.1277    1.9869   -0.0164 C.ar      1 <0>        -0.1619
     19 C15         4.9761    3.3657    0.0008 C.ar      1 <0>         0.0960
     20 O1          6.0652    4.1710   -0.1199 O.3       1 <0>        -0.3162
     21 C16         7.3342    3.5292   -0.2604 C.3       1 <0>         0.0247
     22 O2          1.6698    0.9210    0.3657 O.3       1 <0>        -0.3147
     23 C17         1.8996   -0.4891    0.3399 C.3       1 <0>         0.0249
     24 H1          4.5237    8.6214   -0.1608 H         1 <0>         0.1055
     25 H2          2.8761    9.1282   -0.6042 H         1 <0>         0.1044
     26 H3          3.1167    7.7937    0.5487 H         1 <0>         0.1039
     27 H4          3.5599    3.9935   -2.1253 H         1 <0>         0.1849
     28 H5          3.4458    8.2486   -7.4235 H         1 <0>         0.4324
     29 H6          3.4285    9.8546   -6.9301 H         1 <0>         0.4450
     30 H7          4.0336    9.9793   -1.3984 H         1 <0>         0.4363
     31 H8          2.8962   10.8541   -2.2722 H         1 <0>         0.4301
     32 H9          2.6122    5.6769    0.6538 H         1 <0>         0.1050
     33 H10         4.3809    5.8707    0.7018 H         1 <0>         0.1083
     34 H11         1.6244    3.5386    0.3718 H         1 <0>         0.1421
     35 H12         4.1407    0.0956    0.1029 H         1 <0>         0.1364
     36 H13         6.1107    1.5530   -0.1252 H         1 <0>         0.1362
     37 H14         7.3295    2.9068   -1.1552 H         1 <0>         0.0562
     38 H15         8.1156    4.2842   -0.3470 H         1 <0>         0.1022
     39 H16         7.5254    2.9070    0.6139 H         1 <0>         0.0598
     40 H17         0.9500   -1.0140    0.4447 H         1 <0>         0.1052
     41 H18         2.3642   -0.7643   -0.6070 H         1 <0>         0.0570
     42 H19         2.5598   -0.7648    1.1622 H         1 <0>         0.0581
     43 N5          3.4808    7.1631   -5.1841 N.ar      1 <0>        -0.5882
     44 H20         3.4825    6.5360   -5.9630 H         1 <0>         0.4597
@<TRIPOS>BOND
     1    1    2 1
     2    1   24 1
     3    1   25 1
     4    1   26 1
     5    2    7 ar
     6    2    3 ar
     7    3    4 ar
     8    3   13 1
     9    4    5 ar
    10    4   27 1
    11    5    6 ar
    12    6    7 ar
    13    6   43 ar
    14    7    8 ar
    15    8    9 ar
    16    8   12 1
    17    9   10 ar
    18   10   11 1
    19   10   43 ar
    20   11   28 1
    21   11   29 1
    22   12   30 1
    23   12   31 1
    24   13   14 1
    25   13   32 1
    26   13   33 1
    27   14   19 ar
    28   14   15 ar
    29   15   16 ar
    30   15   34 1
    31   16   17 ar
    32   16   22 1
    33   17   18 ar
    34   17   35 1
    35   18   19 ar
    36   18   36 1
    37   19   20 1
    38   20   21 1
    39   21   37 1
    40   21   38 1
    41   21   39 1
    42   22   23 1
    43   23   40 1
    44   23   41 1
    45   23   42 1
    46   43   44 1
