@<TRIPOS>MOLECULE
ZINC00000596
   49    51     0     0     0
SMALL
USER_CHARGES
dimethyl-(3-methylbut-2-enyl)BLAHol
@<TRIPOS>ATOM
      1 C1          1.1810    0.6734   -0.4602 C.3       1 <0>        -0.1552
      2 C2         -0.3103    0.3734   -0.2964 C.3       1 <0>        -0.0889
      3 H1         -0.4566   -0.6974   -0.1546 H         1 <0>         0.1007
      4 C3         -0.8596    1.1333    0.9106 C.3       1 <0>         0.0339
      5 H2         -0.3716    0.7400    1.8024 H         1 <0>         0.1315
      6 C4         -0.4886    2.6026    0.8088 C.3       1 <0>        -0.0890
      7 C5         -0.7124    3.1461   -0.5773 C.ar      1 <0>        -0.1105
      8 C6         -0.6417    4.5245   -0.7476 C.ar      1 <0>        -0.0947
      9 C7         -0.8037    5.0868   -1.9953 C.ar      1 <0>        -0.1368
     10 C8         -1.0399    4.2730   -3.0941 C.ar      1 <0>         0.1240
     11 C9         -1.1181    2.9007   -2.9238 C.ar      1 <0>        -0.1397
     12 C10        -0.9596    2.3404   -1.6653 C.ar      1 <0>        -0.0583
     13 C11        -1.0712    0.8387   -1.5424 C.3       1 <0>        -0.0213
     14 C12        -2.5604    0.5047   -1.3358 C.3       1 <0>        -0.1334
     15 C13        -3.0578    1.3124   -0.1317 C.3       1 <0>        -0.0053
     16 C14        -2.8018    1.6243    2.2533 C.3       1 <0>         0.0259
     17 C15        -4.2991    1.4695    2.3258 C.2       1 <0>        -0.2563
     18 C16        -5.0630    2.5289    2.4263 C.2       1 <0>        -0.0381
     19 C17        -4.4429    3.8911    2.6019 C.3       1 <0>        -0.1488
     20 C18        -6.5620    2.3854    2.3663 C.3       1 <0>        -0.1379
     21 C19        -0.5306    0.1432   -2.7933 C.3       1 <0>        -0.1469
     22 O1         -1.1938    4.8189   -4.3291 O.3       1 <0>        -0.4948
     23 H3          1.7168    0.3508    0.4325 H         1 <0>         0.0686
     24 H4          1.5661    0.1382   -1.3282 H         1 <0>         0.0801
     25 H5          1.3227    1.7449   -0.6017 H         1 <0>         0.0720
     26 H6         -1.0945    3.1709    1.5146 H         1 <0>         0.0928
     27 H7          0.5628    2.7216    1.0708 H         1 <0>         0.1221
     28 H8         -0.4582    5.1602    0.1059 H         1 <0>         0.1313
     29 H9         -0.7465    6.1583   -2.1177 H         1 <0>         0.1363
     30 H10        -1.3033    2.2635   -3.7759 H         1 <0>         0.1374
     31 H11        -2.6758   -0.5611   -1.1388 H         1 <0>         0.0935
     32 H12        -3.1280    0.7795   -2.2249 H         1 <0>         0.1121
     33 H13        -4.1155    1.1061    0.0322 H         1 <0>         0.1284
     34 H14        -2.9211    2.3761   -0.3263 H         1 <0>         0.1309
     35 H15        -2.3482    1.1918    3.1451 H         1 <0>         0.1302
     36 H16        -2.5484    2.6828    2.1938 H         1 <0>         0.1348
     37 H17        -4.7423    0.4851    2.2948 H         1 <0>         0.1345
     38 H18        -4.1823    4.3003    1.6258 H         1 <0>         0.0808
     39 H19        -5.1543    4.5533    3.0953 H         1 <0>         0.0842
     40 H20        -3.5435    3.8050    3.2116 H         1 <0>         0.0726
     41 H21        -6.8215    1.3347    2.2372 H         1 <0>         0.0712
     42 H22        -6.9998    2.7566    3.2929 H         1 <0>         0.0829
     43 H23        -6.9487    2.9612    1.5255 H         1 <0>         0.0838
     44 H24        -0.6488   -0.9354   -2.6891 H         1 <0>         0.0700
     45 H25        -1.0835    0.4866   -3.6676 H         1 <0>         0.0708
     46 H26         0.5259    0.3828   -2.9143 H         1 <0>         0.0738
     47 H27        -2.1084    5.0436   -4.5486 H         1 <0>         0.3984
     48 N1         -2.3079    0.8926    1.0783 N.4       1 <0>        -0.3801
     49 H28        -2.4589   -0.1122    1.2258 H         1 <0>         0.4267
@<TRIPOS>BOND
     1    1    2 1
     2    1   23 1
     3    1   24 1
     4    1   25 1
     5    2    3 1
     6    2   13 1
     7    2    4 1
     8    4    5 1
     9    4    6 1
    10    4   48 1
    11    6    7 1
    12    6   26 1
    13    6   27 1
    14    7   12 ar
    15    7    8 ar
    16    8    9 ar
    17    8   28 1
    18    9   10 ar
    19    9   29 1
    20   10   11 ar
    21   10   22 1
    22   11   12 ar
    23   11   30 1
    24   12   13 1
    25   13   14 1
    26   13   21 1
    27   14   15 1
    28   14   31 1
    29   14   32 1
    30   15   33 1
    31   15   34 1
    32   15   48 1
    33   16   17 1
    34   16   35 1
    35   16   36 1
    36   16   48 1
    37   17   18 2
    38   17   37 1
    39   18   19 1
    40   18   20 1
    41   19   38 1
    42   19   39 1
    43   19   40 1
    44   20   41 1
    45   20   42 1
    46   20   43 1
    47   21   44 1
    48   21   45 1
    49   21   46 1
    50   22   47 1
    51   48   49 1
@<TRIPOS>MOLECULE
ZINC00020242
   49    51     0     0     0
SMALL
USER_CHARGES
dimethyl-(3-methylbut-2-enyl)BLAHol
@<TRIPOS>ATOM
      1 C1          2.8748   -2.7998    3.4003 C.3       1 <0>        -0.1737
      2 C2          2.5408   -3.5945    2.1363 C.3       1 <0>        -0.0925
      3 H1          3.3163   -4.3382    1.9531 H         1 <0>         0.1211
      4 C3          2.4432   -2.6461    0.9416 C.3       1 <0>         0.0366
      5 H2          3.3814   -2.0951    0.8759 H         1 <0>         0.1324
      6 C4          2.2913   -3.4593   -0.3321 C.3       1 <0>        -0.0887
      7 C5          1.3040   -4.5835   -0.1696 C.ar      1 <0>        -0.1114
      8 C6          0.8805   -5.2403   -1.3201 C.ar      1 <0>        -0.0941
      9 C7         -0.0116   -6.2878   -1.2424 C.ar      1 <0>        -0.1365
     10 C8         -0.4923   -6.6949   -0.0060 C.ar      1 <0>         0.1235
     11 C9         -0.0749   -6.0379    1.1396 C.ar      1 <0>        -0.1393
     12 C10         0.8163   -4.9790    1.0549 C.ar      1 <0>        -0.0634
     13 C11         1.2029   -4.2779    2.3364 C.3       1 <0>        -0.0189
     14 C12         0.1456   -3.1917    2.6027 C.3       1 <0>        -0.1361
     15 C13         0.0605   -2.3041    1.3361 C.3       1 <0>        -0.0094
     16 C14         1.3172   -0.7397   -0.0145 C.3       1 <0>         0.0286
     17 C15         0.1425    0.1888    0.1560 C.2       1 <0>        -0.2623
     18 C16         0.3257    1.4858    0.1437 C.2       1 <0>        -0.0336
     19 C17         1.7110    2.0495   -0.0411 C.3       1 <0>        -0.1494
     20 C18        -0.8499    2.4144    0.3080 C.3       1 <0>        -0.1391
     21 C19         1.2570   -5.2724    3.4979 C.3       1 <0>        -0.1466
     22 O1         -1.3672   -7.7313    0.0802 O.3       1 <0>        -0.4949
     23 H3          2.0911   -2.0653    3.5854 H         1 <0>         0.0560
     24 H4          2.9434   -3.4798    4.2494 H         1 <0>         0.0886
     25 H5          3.8280   -2.2883    3.2666 H         1 <0>         0.0738
     26 H6          1.9520   -2.8027   -1.1333 H         1 <0>         0.0954
     27 H7          3.2608   -3.8771   -0.6035 H         1 <0>         0.1212
     28 H8          1.2539   -4.9261   -2.2835 H         1 <0>         0.1318
     29 H9         -0.3361   -6.7904   -2.1416 H         1 <0>         0.1365
     30 H10        -0.4454   -6.3523    2.1042 H         1 <0>         0.1376
     31 H11        -0.8225   -3.6565    2.7893 H         1 <0>         0.1108
     32 H12         0.4406   -2.5925    3.4641 H         1 <0>         0.0984
     33 H13        -0.6913   -1.5303    1.4912 H         1 <0>         0.1285
     34 H14        -0.2082   -2.9023    0.4654 H         1 <0>         0.1342
     35 H15         1.2081   -1.2965   -0.9452 H         1 <0>         0.1358
     36 H16         2.2386   -0.1582   -0.0449 H         1 <0>         0.1290
     37 H17        -0.8503   -0.2152    0.2884 H         1 <0>         0.1344
     38 H18         2.1137    1.7176   -0.9981 H         1 <0>         0.0817
     39 H19         1.6655    3.1384   -0.0241 H         1 <0>         0.0817
     40 H20         2.3559    1.7002    0.7652 H         1 <0>         0.0757
     41 H21        -0.9983    2.6289    1.3663 H         1 <0>         0.0852
     42 H22        -0.6563    3.3439   -0.2275 H         1 <0>         0.0794
     43 H23        -1.7453    1.9420   -0.0961 H         1 <0>         0.0751
     44 H24         1.9950   -6.0446    3.2810 H         1 <0>         0.0711
     45 H25         1.5370   -4.7486    4.4119 H         1 <0>         0.0722
     46 H26         0.2774   -5.7323    3.6283 H         1 <0>         0.0715
     47 H27        -2.2959   -7.4673    0.0279 H         1 <0>         0.3984
     48 N1          1.3757   -1.6443    1.1423 N.4       1 <0>        -0.3817
     49 H28         1.5942   -1.0952    1.9820 H         1 <0>         0.4253
@<TRIPOS>BOND
     1    1    2 1
     2    1   23 1
     3    1   24 1
     4    1   25 1
     5    2    3 1
     6    2   13 1
     7    2    4 1
     8    4    5 1
     9    4    6 1
    10    4   48 1
    11    6    7 1
    12    6   26 1
    13    6   27 1
    14    7   12 ar
    15    7    8 ar
    16    8    9 ar
    17    8   28 1
    18    9   10 ar
    19    9   29 1
    20   10   11 ar
    21   10   22 1
    22   11   12 ar
    23   11   30 1
    24   12   13 1
    25   13   14 1
    26   13   21 1
    27   14   15 1
    28   14   31 1
    29   14   32 1
    30   15   33 1
    31   15   34 1
    32   15   48 1
    33   16   17 1
    34   16   35 1
    35   16   36 1
    36   16   48 1
    37   17   18 2
    38   17   37 1
    39   18   19 1
    40   18   20 1
    41   19   38 1
    42   19   39 1
    43   19   40 1
    44   20   41 1
    45   20   42 1
    46   20   43 1
    47   21   44 1
    48   21   45 1
    49   21   46 1
    50   22   47 1
    51   48   49 1
@<TRIPOS>MOLECULE
ZINC03806721
   44    48     0     0     0
SMALL
USER_CHARGES
methoxy-methyl-BLAHol
@<TRIPOS>ATOM
      1 C1         -0.8103    1.9703    1.1371 C.3       1 <0>        -0.0519
      2 C2          0.0021   -0.0041    0.0020 C.3       1 <0>        -0.0053
      3 C3          0.7830   -0.5498    1.2073 C.3       1 <0>        -0.1198
      4 C4          2.1880    0.0553    1.1444 C.3       1 <0>        -0.0562
      5 C5          2.7934   -0.2869   -0.1938 C.ar      1 <0>        -0.1617
      6 C6          2.7205    0.4513   -1.3504 C.ar      1 <0>        -0.0883
      7 C7          3.3525   -0.0962   -2.4523 C.ar      1 <0>        -0.0979
      8 C8          4.0417   -1.2931   -2.3362 C.ar      1 <0>        -0.1669
      9 C9          4.1591   -1.9981   -1.1400 C.ar      1 <0>         0.1331
     10 C10         3.5186   -1.4592   -0.0199 C.ar      1 <0>         0.1444
     11 O1          3.4796   -1.8367    1.2788 O.3       1 <0>        -0.2728
     12 C11         3.1798   -0.6327    2.0762 C.3       1 <0>         0.1100
     13 H1          2.7725   -0.8462    3.0644 H         1 <0>         0.1492
     14 C12         4.5186    0.1135    2.0967 C.3       1 <0>         0.1115
     15 H2          4.9949   -0.0609    3.0615 H         1 <0>         0.0799
     16 C13         4.4208    1.5795    1.8805 C.2       1 <0>        -0.1553
     17 C14         3.3759    2.2287    1.4750 C.2       1 <0>        -0.1333
     18 C15         2.0744    1.5590    1.2318 C.3       1 <0>        -0.0459
     19 H3          1.4367    1.7792    2.0879 H         1 <0>         0.1000
     20 C16         1.3294    2.0558    0.0004 C.3       1 <0>         0.0567
     21 H4          1.2195    3.1369    0.0858 H         1 <0>         0.1381
     22 C17         2.0183    1.7703   -1.3238 C.3       1 <0>        -0.0821
     23 O2          5.3577   -0.4374    1.0796 O.3       1 <0>        -0.5362
     24 O3          4.8646   -3.1583   -1.0654 O.3       1 <0>        -0.3013
     25 C18         5.4800   -3.6219   -2.2689 C.3       1 <0>         0.0240
     26 H5         -0.3364    1.6805    2.0750 H         1 <0>         0.1238
     27 H6         -0.8670    3.0573    1.0794 H         1 <0>         0.1230
     28 H7         -1.8155    1.5512    1.0933 H         1 <0>         0.1253
     29 H8         -1.0217   -0.3763    0.0403 H         1 <0>         0.1309
     30 H9          0.4741   -0.3508   -0.9173 H         1 <0>         0.1319
     31 H10         0.2916   -0.2527    2.1338 H         1 <0>         0.0967
     32 H11         0.8436   -1.6366    1.1497 H         1 <0>         0.1203
     33 H12         3.3091    0.4103   -3.4052 H         1 <0>         0.1308
     34 H13         4.5127   -1.7003   -3.2186 H         1 <0>         0.1340
     35 H14         5.3081    2.1616    2.0814 H         1 <0>         0.1225
     36 H15         3.4547    3.2928    1.3080 H         1 <0>         0.1288
     37 H16         2.7462    2.5584   -1.5167 H         1 <0>         0.1192
     38 H17         1.2713    1.7853   -2.1174 H         1 <0>         0.0957
     39 H18         6.2292   -0.0226    1.0213 H         1 <0>         0.3842
     40 H19         6.0093   -4.5539   -2.0706 H         1 <0>         0.1070
     41 H20         4.7146   -3.7927   -3.0259 H         1 <0>         0.0577
     42 H21         6.1856   -2.8727   -2.6281 H         1 <0>         0.0589
     43 N1         -0.0435    1.4784   -0.0201 N.4       1 <0>        -0.3952
     44 H22        -0.5132    1.7795   -0.8821 H         1 <0>         0.4329
@<TRIPOS>BOND
     1    1   26 1
     2    1   27 1
     3    1   28 1
     4    1   43 1
     5    2    3 1
     6    2   29 1
     7    2   30 1
     8    2   43 1
     9    3    4 1
    10    3   31 1
    11    3   32 1
    12    4   12 1
    13    4   18 1
    14    4    5 1
    15    5   10 ar
    16    5    6 ar
    17    6   22 1
    18    6    7 ar
    19    7    8 ar
    20    7   33 1
    21    8    9 ar
    22    8   34 1
    23    9   10 ar
    24    9   24 1
    25   10   11 1
    26   11   12 1
    27   12   13 1
    28   12   14 1
    29   14   15 1
    30   14   16 1
    31   14   23 1
    32   16   17 2
    33   16   35 1
    34   17   18 1
    35   17   36 1
    36   18   19 1
    37   18   20 1
    38   20   21 1
    39   20   22 1
    40   20   43 1
    41   22   37 1
    42   22   38 1
    43   23   39 1
    44   24   25 1
    45   25   40 1
    46   25   41 1
    47   25   42 1
    48   43   44 1
@<TRIPOS>MOLECULE
ZINC00537822
   50    52     0     0     0
SMALL
USER_CHARGES

@<TRIPOS>ATOM
      1 C1         -0.0169    1.3952    0.0097 C.ar      1 <0>        -0.0260
      2 C2          1.1683    2.0970    0.0022 C.ar      1 <0>        -0.1650
      3 C3          2.3789    1.4198   -0.0130 C.ar      1 <0>         0.1439
      4 C4          2.4047    0.0329   -0.0212 C.ar      1 <0>        -0.1670
      5 C5          1.2267   -0.6810   -0.0142 C.ar      1 <0>        -0.0432
      6 C6          0.0021   -0.0041    0.0020 C.ar      1 <0>        -0.1967
      7 C7         -1.2591   -0.7596    0.0105 C.2       1 <0>         0.4038
      8 O1         -2.3189   -0.1702    0.0242 O.2       1 <0>        -0.4483
      9 C8         -1.2348   -2.2664    0.0022 C.3       1 <0>        -0.1653
     10 C9         -2.6689   -2.7996    0.0135 C.3       1 <0>        -0.1429
     11 C10        -2.6443   -4.3293    0.0051 C.3       1 <0>        -0.0092
     12 N1         -4.0211   -4.8413    0.0160 N.4       1 <0>        -0.3830
     13 C11        -4.6726   -4.4620    1.2755 C.3       1 <0>        -0.0093
     14 C12        -6.1318   -4.9225    1.2582 C.3       1 <0>        -0.1330
     15 C13        -6.1791   -6.4445    1.0954 C.3       1 <0>         0.1746
     16 C14        -5.4322   -6.8346   -0.1834 C.3       1 <0>        -0.1706
     17 C15        -3.9990   -6.3033   -0.1127 C.3       1 <0>        -0.0017
     18 C16        -7.6135   -6.8966    0.9991 C.ar      1 <0>        -0.1262
     19 C17        -8.5661   -6.0599    0.4482 C.ar      1 <0>        -0.1006
     20 C18        -9.8818   -6.4740    0.3596 C.ar      1 <0>        -0.1039
     21 C19       -10.2453   -7.7262    0.8224 C.ar      1 <0>        -0.0247
     22 C20        -9.2914   -8.5631    1.3735 C.ar      1 <0>        -0.1016
     23 C21        -7.9750   -8.1501    1.4564 C.ar      1 <0>        -0.0934
     24 Cl1       -11.8977   -8.2468    0.7119 Cl        1 <0>        -0.0500
     25 O2         -5.5554   -7.0652    2.2213 O.3       1 <0>        -0.5474
     26 F1          3.5378    2.1141   -0.0204 F         1 <0>        -0.1258
     27 H1         -0.9587    1.9236    0.0260 H         1 <0>         0.1459
     28 H2          1.1551    3.1769    0.0077 H         1 <0>         0.1477
     29 H3          3.3506   -0.4883   -0.0334 H         1 <0>         0.1469
     30 H4          1.2482   -1.7608   -0.0213 H         1 <0>         0.1412
     31 H5         -0.7241   -2.6166   -0.8948 H         1 <0>         0.1127
     32 H6         -0.7064   -2.6261    0.8850 H         1 <0>         0.1127
     33 H7         -3.1796   -2.4493    0.9105 H         1 <0>         0.0952
     34 H8         -3.1973   -2.4398   -0.8693 H         1 <0>         0.0947
     35 H9         -2.1335   -4.6796   -0.8919 H         1 <0>         0.1333
     36 H10        -2.1158   -4.6891    0.8880 H         1 <0>         0.1327
     37 H11        -4.1530   -4.9339    2.1093 H         1 <0>         0.1388
     38 H12        -4.6353   -3.3788    1.3915 H         1 <0>         0.1356
     39 H13        -6.6132   -4.6415    2.1949 H         1 <0>         0.1238
     40 H14        -6.6524   -4.4509    0.4248 H         1 <0>         0.1045
     41 H15        -5.4137   -7.9204   -0.2771 H         1 <0>         0.1175
     42 H16        -5.9384   -6.4027   -1.0467 H         1 <0>         0.1009
     43 H17        -3.4644   -6.5795   -1.0215 H         1 <0>         0.1329
     44 H18        -3.4937   -6.7360    0.7507 H         1 <0>         0.1354
     45 H19        -8.2824   -5.0823    0.0874 H         1 <0>         0.1334
     46 H20       -10.6260   -5.8201   -0.0704 H         1 <0>         0.1408
     47 H21        -9.5746   -9.5405    1.7352 H         1 <0>         0.1414
     48 H22        -7.2294   -8.8051    1.8823 H         1 <0>         0.1323
     49 H23        -5.5495   -8.0314    2.1846 H         1 <0>         0.3907
     50 H24        -4.5327   -4.4442   -0.7578 H         1 <0>         0.4215
@<TRIPOS>BOND
     1    1    6 ar
     2    1    2 ar
     3    1   27 1
     4    2    3 ar
     5    2   28 1
     6    3    4 ar
     7    3   26 1
     8    4    5 ar
     9    4   29 1
    10    5    6 ar
    11    5   30 1
    12    6    7 1
    13    7    8 2
    14    7    9 1
    15    9   10 1
    16    9   31 1
    17    9   32 1
    18   10   11 1
    19   10   33 1
    20   10   34 1
    21   11   12 1
    22   11   35 1
    23   11   36 1
    24   12   17 1
    25   12   13 1
    26   12   50 1
    27   13   14 1
    28   13   37 1
    29   13   38 1
    30   14   15 1
    31   14   39 1
    32   14   40 1
    33   15   16 1
    34   15   18 1
    35   15   25 1
    36   16   17 1
    37   16   41 1
    38   16   42 1
    39   17   43 1
    40   17   44 1
    41   18   23 ar
    42   18   19 ar
    43   19   20 ar
    44   19   45 1
    45   20   21 ar
    46   20   46 1
    47   21   22 ar
    48   21   24 1
    49   22   23 ar
    50   22   47 1
    51   23   48 1
    52   25   49 1
@<TRIPOS>MOLECULE
ZINC03812984
   43    46     0     0     0
SMALL
USER_CHARGES
methylBLAHol
@<TRIPOS>ATOM
      1 C1         -2.7983    1.5746    2.5117 C.3       1 <0>        -0.0492
      2 C2         -2.8836    1.5590    0.0946 C.3       1 <0>        -0.0137
      3 C3         -2.1794    1.0201   -1.2058 C.3       1 <0>        -0.1260
      4 C4         -0.7576    1.5994   -1.2263 C.3       1 <0>        -0.0184
      5 C5         -0.0471    1.1494   -2.4971 C.3       1 <0>        -0.1096
      6 C6          1.3879    1.6819   -2.5009 C.3       1 <0>        -0.1248
      7 C7          2.1311    1.1511   -1.2732 C.3       1 <0>        -0.1197
      8 C8          1.4200    1.6218   -0.0028 C.3       1 <0>        -0.1140
      9 C9         -0.0127    1.0858    0.0080 C.3       1 <0>        -0.0868
     10 H1          0.0021   -0.0041    0.0020 H         1 <0>         0.1005
     11 C10        -0.7376    1.5857    1.2587 C.3       1 <0>         0.0368
     12 H2         -0.2470    1.1454    2.1268 H         1 <0>         0.1322
     13 C11        -0.6296    3.0942    1.3559 C.3       1 <0>        -0.0906
     14 C12        -0.8275    3.7825    0.0324 C.ar      1 <0>        -0.1118
     15 C13        -0.8645    3.1019   -1.1649 C.ar      1 <0>        -0.0525
     16 C14        -1.0059    3.7971   -2.3554 C.ar      1 <0>        -0.1389
     17 C15        -1.1227    5.1776   -2.3507 C.ar      1 <0>         0.1246
     18 C16        -1.1001    5.8624   -1.1445 C.ar      1 <0>        -0.1373
     19 C17        -0.9542    5.1667    0.0366 C.ar      1 <0>        -0.0934
     20 O1         -1.2582    5.8565   -3.5201 O.3       1 <0>        -0.4965
     21 H3         -2.7772    2.6625    2.5756 H         1 <0>         0.1254
     22 H4         -3.8328    1.2313    2.5006 H         1 <0>         0.1236
     23 H5         -2.2838    1.1498    3.3736 H         1 <0>         0.1231
     24 H6         -3.8977    1.1640    0.1553 H         1 <0>         0.1274
     25 H7         -2.9199    2.6475    0.0505 H         1 <0>         0.1324
     26 H8         -2.7194    1.3346   -2.0989 H         1 <0>         0.1139
     27 H9         -2.1344   -0.0682   -1.1643 H         1 <0>         0.0929
     28 H10        -0.5796    1.5352   -3.3664 H         1 <0>         0.0775
     29 H11        -0.0300    0.0602   -2.5361 H         1 <0>         0.0764
     30 H12         1.3713    2.7714   -2.4727 H         1 <0>         0.0675
     31 H13         1.8966    1.3495   -3.4057 H         1 <0>         0.0729
     32 H14         3.1542    1.5269   -1.2774 H         1 <0>         0.0739
     33 H15         2.1443    0.0615   -1.2996 H         1 <0>         0.0675
     34 H16         1.4005    2.7114    0.0201 H         1 <0>         0.0786
     35 H17         1.9539    1.2495    0.8716 H         1 <0>         0.0744
     36 H18         0.3629    3.3369    1.7355 H         1 <0>         0.1193
     37 H19        -1.3763    3.4612    2.0602 H         1 <0>         0.0962
     38 H20        -1.0247    3.2597   -3.2921 H         1 <0>         0.1368
     39 H21        -1.1963    6.9380   -1.1308 H         1 <0>         0.1364
     40 H22        -0.9386    5.7022    0.9743 H         1 <0>         0.1313
     41 H23        -0.4191    6.1273   -3.9172 H         1 <0>         0.4003
     42 N1         -2.1333    1.0997    1.2905 N.4       1 <0>        -0.3877
     43 H24        -2.1230    0.0730    1.2965 H         1 <0>         0.4294
@<TRIPOS>BOND
     1    1   21 1
     2    1   22 1
     3    1   23 1
     4    1   42 1
     5    2    3 1
     6    2   24 1
     7    2   25 1
     8    2   42 1
     9    3    4 1
    10    3   26 1
    11    3   27 1
    12    4    9 1
    13    4   15 1
    14    4    5 1
    15    5    6 1
    16    5   28 1
    17    5   29 1
    18    6    7 1
    19    6   30 1
    20    6   31 1
    21    7    8 1
    22    7   32 1
    23    7   33 1
    24    8    9 1
    25    8   34 1
    26    8   35 1
    27    9   10 1
    28    9   11 1
    29   11   12 1
    30   11   13 1
    31   11   42 1
    32   13   14 1
    33   13   36 1
    34   13   37 1
    35   14   19 ar
    36   14   15 ar
    37   15   16 ar
    38   16   17 ar
    39   16   38 1
    40   17   18 ar
    41   17   20 1
    42   18   19 ar
    43   18   39 1
    44   19   40 1
    45   20   41 1
    46   42   43 1
@<TRIPOS>MOLECULE
ZINC38321402
   76    82     0     0     0
SMALL
USER_CHARGES

@<TRIPOS>ATOM
      1 C1          0.4310    1.5076   -1.3639 C.3       1 <0>        -0.1699
      2 C2         -0.0188    0.3493   -0.4713 C.3       1 <0>         0.1576
      3 C3          0.8533    0.3050    0.7849 C.3       1 <0>        -0.1001
      4 H1          0.9533   -0.7284    1.1169 H         1 <0>         0.0974
      5 C4          2.2417    0.8672    0.4567 C.3       1 <0>        -0.1345
      6 C5          2.5263    2.0512    1.3689 C.3       1 <0>        -0.0586
      7 C6          1.4722    3.1390    1.1281 C.3       1 <0>        -0.1114
      8 C7          0.0822    2.5870    1.4447 C.3       1 <0>        -0.1498
      9 C8          0.1872    1.1290    1.8917 C.3       1 <0>         0.1392
     10 C9          1.0327    1.0439    3.1653 C.3       1 <0>         0.0737
     11 H2          1.0947    0.0154    3.5210 H         1 <0>         0.1169
     12 C10         2.4211    1.5903    2.8308 C.3       1 <0>        -0.0454
     13 C11         3.5334    0.6459    3.2104 C.3       1 <0>        -0.1211
     14 C12         4.8977    1.2224    2.8250 C.3       1 <0>        -0.0107
     15 N1          4.9039    1.5632    1.3942 N.4       1 <0>        -0.3880
     16 C13         3.9169    2.6439    1.1753 C.3       1 <0>         0.0573
     17 H3          4.0109    3.0155    0.1550 H         1 <0>         0.1466
     18 C14         4.2611    3.7755    2.1430 C.3       1 <0>        -0.0941
     19 C15         3.3087    3.9382    3.2785 C.ar      1 <0>        -0.0530
     20 C16         2.4464    2.8973    3.5666 C.ar      1 <0>        -0.1746
     21 C17         1.3619    2.9528    4.4179 C.ar      1 <0>         0.1067
     22 C18         1.2530    4.0777    5.2475 C.ar      1 <0>         0.1057
     23 C19         2.1993    5.0849    5.0689 C.ar      1 <0>        -0.1016
     24 C20         3.1915    5.0414    4.1010 C.ar      1 <0>        -0.1156
     25 O1          0.2703    4.1813    6.1819 O.3       1 <0>        -0.4801
     26 O2          0.5194    1.9113    4.1927 O.3       1 <0>        -0.2684
     27 C21         6.2414    2.0255    1.0000 C.3       1 <0>         0.0212
     28 C22         7.2410    0.8761    1.1433 C.3       1 <0>        -0.2106
     29 C23         8.3675    1.0428    2.1650 C.3       1 <0>        -0.1682
     30 C24         8.6743    1.1230    0.6683 C.3       1 <0>        -0.1475
     31 O3         -1.1209    0.6142    2.1484 O.3       1 <0>        -0.3618
     32 C25        -1.8316    1.3163    3.1702 C.3       1 <0>         0.0249
     33 C26         0.1216   -0.9683   -1.2363 C.3       1 <0>        -0.0923
     34 C27         1.5655   -1.1278   -1.7166 C.3       1 <0>        -0.1503
     35 C28        -0.2410   -2.1344   -0.3145 C.3       1 <0>        -0.1511
     36 C29        -0.8193   -0.9603   -2.4428 C.3       1 <0>        -0.1409
     37 O4         -1.3846    0.5392   -0.0965 O.3       1 <0>        -0.5375
     38 H4          1.4583    1.3396   -1.6870 H         1 <0>         0.0768
     39 H5         -0.2192    1.5675   -2.2367 H         1 <0>         0.0727
     40 H6          0.3742    2.4411   -0.8040 H         1 <0>         0.0769
     41 H7          2.9945    0.0951    0.6157 H         1 <0>         0.0626
     42 H8          2.2663    1.1937   -0.5830 H         1 <0>         0.1156
     43 H9          1.6787    3.9934    1.7726 H         1 <0>         0.0852
     44 H10         1.5083    3.4547    0.0854 H         1 <0>         0.0824
     45 H11        -0.3688    3.1782    2.2417 H         1 <0>         0.0742
     46 H12        -0.5427    2.6480    0.5537 H         1 <0>         0.1053
     47 H13         3.5075    0.4765    4.2868 H         1 <0>         0.1160
     48 H14         3.3878   -0.3039    2.6958 H         1 <0>         0.0964
     49 H15         5.0916    2.1197    3.4126 H         1 <0>         0.1353
     50 H16         5.6736    0.4834    3.0253 H         1 <0>         0.1376
     51 H17         5.2547    3.5897    2.5508 H         1 <0>         0.1003
     52 H18         4.2922    4.7101    1.5830 H         1 <0>         0.1186
     53 H19         2.1577    5.9460    5.7194 H         1 <0>         0.1408
     54 H20         3.8735    5.8714    3.9904 H         1 <0>         0.1369
     55 H21         0.5111    3.8231    7.0472 H         1 <0>         0.3974
     56 H22         6.2190    2.3604   -0.0370 H         1 <0>         0.1355
     57 H23         6.5440    2.8524    1.6425 H         1 <0>         0.1310
     58 H24         6.8303   -0.1241    1.0052 H         1 <0>         0.1241
     59 H25         8.3965    1.9714    2.7352 H         1 <0>         0.1057
     60 H26         8.6981    0.1522    2.6995 H         1 <0>         0.1101
     61 H27         9.2067    0.2852    0.2180 H         1 <0>         0.1125
     62 H28         8.9051    2.1044    0.2537 H         1 <0>         0.1080
     63 H29        -2.8145    0.8648    3.3049 H         1 <0>         0.0882
     64 H30        -1.2743    1.2592    4.1052 H         1 <0>         0.0627
     65 H31        -1.9481    2.3605    2.8799 H         1 <0>         0.0458
     66 H32         2.1889   -1.4642   -0.8881 H         1 <0>         0.0512
     67 H33         1.6018   -1.8631   -2.5205 H         1 <0>         0.0620
     68 H34         1.9343   -0.1699   -2.0833 H         1 <0>         0.0601
     69 H35        -1.2697   -2.0207    0.0277 H         1 <0>         0.0606
     70 H36        -0.1410   -3.0730   -0.8595 H         1 <0>         0.0624
     71 H37         0.4292   -2.1401    0.5450 H         1 <0>         0.0560
     72 H38        -0.5609   -0.1296   -3.0995 H         1 <0>         0.0572
     73 H39        -0.7193   -1.8990   -2.9878 H         1 <0>         0.0552
     74 H40        -1.8479   -0.8467   -2.1006 H         1 <0>         0.0645
     75 H41        -1.7375   -0.1594    0.4713 H         1 <0>         0.3835
     76 H42         4.6485    0.7530    0.8497 H         1 <0>         0.4222
@<TRIPOS>BOND
     1    1    2 1
     2    1   38 1
     3    1   39 1
     4    1   40 1
     5    2    3 1
     6    2   33 1
     7    2   37 1
     8    3    4 1
     9    3    9 1
    10    3    5 1
    11    5    6 1
    12    5   41 1
    13    5   42 1
    14    6   12 1
    15    6   16 1
    16    6    7 1
    17    7    8 1
    18    7   43 1
    19    7   44 1
    20    8    9 1
    21    8   45 1
    22    8   46 1
    23    9   10 1
    24    9   31 1
    25   10   11 1
    26   10   26 1
    27   10   12 1
    28   12   20 1
    29   12   13 1
    30   13   14 1
    31   13   47 1
    32   13   48 1
    33   14   15 1
    34   14   49 1
    35   14   50 1
    36   15   16 1
    37   15   27 1
    38   15   76 1
    39   16   17 1
    40   16   18 1
    41   18   19 1
    42   18   51 1
    43   18   52 1
    44   19   24 ar
    45   19   20 ar
    46   20   21 ar
    47   21   22 ar
    48   21   26 1
    49   22   23 ar
    50   22   25 1
    51   23   24 ar
    52   23   53 1
    53   24   54 1
    54   25   55 1
    55   27   28 1
    56   27   56 1
    57   27   57 1
    58   28   30 1
    59   28   29 1
    60   28   58 1
    61   29   30 1
    62   29   59 1
    63   29   60 1
    64   30   61 1
    65   30   62 1
    66   31   32 1
    67   32   63 1
    68   32   64 1
    69   32   65 1
    70   33   34 1
    71   33   35 1
    72   33   36 1
    73   34   66 1
    74   34   67 1
    75   34   68 1
    76   35   69 1
    77   35   70 1
    78   35   71 1
    79   36   72 1
    80   36   73 1
    81   36   74 1
    82   37   75 1
@<TRIPOS>MOLECULE
ZINC00001614
   46    49     0     0     0
SMALL
USER_CHARGES

@<TRIPOS>ATOM
      1 C1         -0.0178    1.4648    0.0101 C.3       1 <0>        -0.0546
      2 N1          0.0021   -0.0041    0.0020 N.4       1 <0>        -0.3711
      3 C2          0.5276   -0.4665   -1.2851 C.3       1 <0>        -0.0157
      4 C3          0.5582   -1.9993   -1.3067 C.3       1 <0>        -0.1372
      5 C4          1.4914   -2.4626   -0.1781 C.3       1 <0>        -0.0146
      6 C5          1.6112   -3.9813   -0.1907 C.3       1 <0>        -0.1097
      7 C6          0.2224   -4.6007   -0.0089 C.3       1 <0>        -0.1264
      8 C7         -0.3806   -4.1326    1.3165 C.3       1 <0>        -0.1213
      9 C8         -0.4944   -2.6061    1.3228 C.3       1 <0>        -0.1282
     10 C9          0.8981   -1.9972    1.1546 C.3       1 <0>        -0.0879
     11 H1          1.5404   -2.3187    1.9744 H         1 <0>         0.1208
     12 C10         0.8087   -0.4729    1.1195 C.3       1 <0>         0.0288
     13 H2          0.3213   -0.1491    2.0391 H         1 <0>         0.1350
     14 C11         2.2047    0.1253    1.1251 C.3       1 <0>        -0.0874
     15 C12         3.1489   -0.6083    0.2114 C.ar      1 <0>        -0.1435
     16 C13         2.8331   -1.8104   -0.3852 C.ar      1 <0>        -0.0384
     17 C14         3.7550   -2.4459   -1.2010 C.ar      1 <0>        -0.1466
     18 C15         4.9960   -1.8749   -1.4327 C.ar      1 <0>         0.1453
     19 C16         5.3106   -0.6594   -0.8431 C.ar      1 <0>        -0.1990
     20 C17         4.3921   -0.0338   -0.0277 C.ar      1 <0>        -0.0688
     21 O1          5.8990   -2.5017   -2.2318 O.3       1 <0>        -0.3119
     22 C18         7.1570   -1.8515   -2.4236 C.3       1 <0>         0.0235
     23 H3          0.9779    1.8429   -0.2216 H         1 <0>         0.1240
     24 H4         -0.7255    1.8227   -0.7377 H         1 <0>         0.1264
     25 H5         -0.3206    1.8186    0.9956 H         1 <0>         0.1256
     26 H6         -0.1126   -0.1049   -2.0897 H         1 <0>         0.1311
     27 H7          1.5377   -0.0812   -1.4243 H         1 <0>         0.1326
     28 H8         -0.4452   -2.3915   -1.1410 H         1 <0>         0.1000
     29 H9          0.9382   -2.3480   -2.2670 H         1 <0>         0.1138
     30 H10         2.0322   -4.3050   -1.1426 H         1 <0>         0.0792
     31 H11         2.2619   -4.3016    0.6230 H         1 <0>         0.0774
     32 H12        -0.4233   -4.2910   -0.8306 H         1 <0>         0.0666
     33 H13         0.3076   -5.6873   -0.0050 H         1 <0>         0.0762
     34 H14        -1.3713   -4.5705    1.4387 H         1 <0>         0.0751
     35 H15         0.2597   -4.4518    2.1388 H         1 <0>         0.0723
     36 H16        -1.1340   -2.2852    0.5005 H         1 <0>         0.0612
     37 H17        -0.9239   -2.2769    2.2690 H         1 <0>         0.0808
     38 H18         2.1437    1.1661    0.8072 H         1 <0>         0.0949
     39 H19         2.5989    0.0912    2.1407 H         1 <0>         0.1164
     40 H20         3.5052   -3.3918   -1.6585 H         1 <0>         0.1387
     41 H21         6.2735   -0.2042   -1.0223 H         1 <0>         0.1357
     42 H22         4.6406    0.9122    0.4301 H         1 <0>         0.1296
     43 H23         6.9951   -0.8731   -2.8759 H         1 <0>         0.0595
     44 H24         7.6532   -1.7291   -1.4608 H         1 <0>         0.0604
     45 H25         7.7822   -2.4564   -3.0803 H         1 <0>         0.1085
     46 H26        -0.9410   -0.3455    0.1120 H         1 <0>         0.4229
@<TRIPOS>BOND
     1    1    2 1
     2    1   23 1
     3    1   24 1
     4    1   25 1
     5    2   12 1
     6    2    3 1
     7    2   46 1
     8    3    4 1
     9    3   26 1
    10    3   27 1
    11    4    5 1
    12    4   28 1
    13    4   29 1
    14    5   10 1
    15    5   16 1
    16    5    6 1
    17    6    7 1
    18    6   30 1
    19    6   31 1
    20    7    8 1
    21    7   32 1
    22    7   33 1
    23    8    9 1
    24    8   34 1
    25    8   35 1
    26    9   10 1
    27    9   36 1
    28    9   37 1
    29   10   11 1
    30   10   12 1
    31   12   13 1
    32   12   14 1
    33   14   15 1
    34   14   38 1
    35   14   39 1
    36   15   20 ar
    37   15   16 ar
    38   16   17 ar
    39   17   18 ar
    40   17   40 1
    41   18   19 ar
    42   18   21 1
    43   19   20 ar
    44   19   41 1
    45   20   42 1
    46   21   22 1
    47   22   43 1
    48   22   44 1
    49   22   45 1
@<TRIPOS>MOLECULE
ZINC00402848
   46    49     0     0     0
SMALL
USER_CHARGES

@<TRIPOS>ATOM
      1 C1         -0.0178    1.4648    0.0101 C.3       1 <0>        -0.0541
      2 N1          0.0021   -0.0041    0.0020 N.4       1 <0>        -0.3705
      3 C2          0.5234   -0.4656   -1.2868 C.3       1 <0>        -0.0154
      4 C3          0.5608   -1.9988   -1.3105 C.3       1 <0>        -0.1325
      5 C4          1.4982   -2.4553   -0.1831 C.3       1 <0>        -0.0190
      6 C5          1.6504   -3.9707   -0.2017 C.3       1 <0>        -0.1087
      7 C6          2.5586   -4.4098    0.9497 C.3       1 <0>        -0.1256
      8 C7          1.9474   -3.9633    2.2794 C.3       1 <0>        -0.1195
      9 C8          1.8115   -2.4393    2.2944 C.3       1 <0>        -0.1147
     10 C9          0.8985   -1.9981    1.1490 C.3       1 <0>        -0.0848
     11 H1         -0.0910   -2.4368    1.2771 H         1 <0>         0.1022
     12 C10         0.8090   -0.4720    1.1199 C.3       1 <0>         0.0267
     13 H2          0.3176   -0.1530    2.0390 H         1 <0>         0.1343
     14 C11         2.2014    0.1317    1.1325 C.3       1 <0>        -0.0881
     15 C12         3.1457   -0.5879    0.2080 C.ar      1 <0>        -0.1438
     16 C13         2.8340   -1.7881   -0.3923 C.ar      1 <0>        -0.0304
     17 C14         3.7561   -2.4140   -1.2158 C.ar      1 <0>        -0.1475
     18 C15         4.9914   -1.8329   -1.4526 C.ar      1 <0>         0.1453
     19 C16         5.3005   -0.6171   -0.8605 C.ar      1 <0>        -0.2001
     20 C17         4.3825   -0.0022   -0.0362 C.ar      1 <0>        -0.0688
     21 O1          5.8940   -2.4497   -2.2599 O.3       1 <0>        -0.3119
     22 C18         7.1460   -1.7895   -2.4566 C.3       1 <0>         0.0236
     23 H3          0.9779    1.8429   -0.2213 H         1 <0>         0.1235
     24 H4         -0.7253    1.8227   -0.7379 H         1 <0>         0.1263
     25 H5         -0.3209    1.8186    0.9955 H         1 <0>         0.1253
     26 H6         -0.1216   -0.1061   -2.0886 H         1 <0>         0.1313
     27 H7          1.5311   -0.0759   -1.4308 H         1 <0>         0.1323
     28 H8         -0.4403   -2.3962   -1.1433 H         1 <0>         0.0950
     29 H9          0.9416   -2.3449   -2.2714 H         1 <0>         0.1146
     30 H10         0.6708   -4.4353   -0.0888 H         1 <0>         0.0756
     31 H11         2.0910   -4.2796   -1.1496 H         1 <0>         0.0783
     32 H12         2.6569   -5.4953    0.9413 H         1 <0>         0.0726
     33 H13         3.5419   -3.9548    0.8307 H         1 <0>         0.0692
     34 H14         0.9632   -4.4167    2.3971 H         1 <0>         0.0669
     35 H15         2.5925   -4.2784    3.0995 H         1 <0>         0.0732
     36 H16         1.3816   -2.1222    3.2445 H         1 <0>         0.0738
     37 H17         2.7948   -1.9856    2.1708 H         1 <0>         0.0798
     38 H18         2.1362    1.1762    0.8278 H         1 <0>         0.0939
     39 H19         2.5970    0.0858    2.1472 H         1 <0>         0.1169
     40 H20         3.5108   -3.3601   -1.6753 H         1 <0>         0.1386
     41 H21         6.2584   -0.1534   -1.0446 H         1 <0>         0.1351
     42 H22         4.6266    0.9436    0.4245 H         1 <0>         0.1291
     43 H23         6.9742   -0.8104   -2.9037 H         1 <0>         0.0594
     44 H24         7.6472   -1.6675   -1.4963 H         1 <0>         0.0602
     45 H25         7.7716   -2.3870   -3.1197 H         1 <0>         0.1083
     46 H26        -0.9411   -0.3448    0.1135 H         1 <0>         0.4244
@<TRIPOS>BOND
     1    1    2 1
     2    1   23 1
     3    1   24 1
     4    1   25 1
     5    2   12 1
     6    2    3 1
     7    2   46 1
     8    3    4 1
     9    3   26 1
    10    3   27 1
    11    4    5 1
    12    4   28 1
    13    4   29 1
    14    5   10 1
    15    5   16 1
    16    5    6 1
    17    6    7 1
    18    6   30 1
    19    6   31 1
    20    7    8 1
    21    7   32 1
    22    7   33 1
    23    8    9 1
    24    8   34 1
    25    8   35 1
    26    9   10 1
    27    9   36 1
    28    9   37 1
    29   10   11 1
    30   10   12 1
    31   12   13 1
    32   12   14 1
    33   14   15 1
    34   14   38 1
    35   14   39 1
    36   15   20 ar
    37   15   16 ar
    38   16   17 ar
    39   17   18 ar
    40   17   40 1
    41   18   19 ar
    42   18   21 1
    43   19   20 ar
    44   19   41 1
    45   20   42 1
    46   21   22 1
    47   22   43 1
    48   22   44 1
    49   22   45 1
@<TRIPOS>MOLECULE
ZINC04102205
   43    47     0     0     0
SMALL
USER_CHARGES
methylBLAHdiol
@<TRIPOS>ATOM
      1 C1          4.1642   -1.7575   -3.5294 C.3       1 <0>        -0.0482
      2 C2          2.2493   -0.4297   -2.8777 C.3       1 <0>        -0.0030
      3 C3          1.8023    0.8353   -2.1347 C.3       1 <0>        -0.1286
      4 C4          2.2233    0.7046   -0.6700 C.3       1 <0>        -0.0533
      5 C5          1.6251   -0.5557   -0.0917 C.ar      1 <0>        -0.1801
      6 C6          2.1724   -1.8168   -0.1203 C.ar      1 <0>        -0.0588
      7 C7          1.4096   -2.8170    0.4569 C.ar      1 <0>        -0.1254
      8 C8          0.1941   -2.5139    1.0488 C.ar      1 <0>        -0.1009
      9 C9         -0.3204   -1.2212    1.1208 C.ar      1 <0>         0.1051
     10 C10         0.4450   -0.2005    0.5464 C.ar      1 <0>         0.1400
     11 O1          0.2667    1.1371    0.4791 O.3       1 <0>        -0.2725
     12 C11         1.5663    1.7567    0.2075 C.3       1 <0>         0.1122
     13 H1          1.4525    2.7001   -0.3264 H         1 <0>         0.1356
     14 C12         2.2419    1.9346    1.5584 C.3       1 <0>         0.0871
     15 H2          2.0120    2.9359    1.9227 H         1 <0>         0.0696
     16 C13         3.7431    1.7632    1.5578 C.3       1 <0>        -0.1481
     17 C14         4.1615    0.4613    0.8758 C.3       1 <0>        -0.1097
     18 C15         3.7290    0.5363   -0.5853 C.3       1 <0>        -0.0793
     19 H3          4.2151    1.3870   -1.0628 H         1 <0>         0.1007
     20 C16         4.1037   -0.7446   -1.3297 C.3       1 <0>         0.0485
     21 H4          5.1889   -0.8433   -1.3028 H         1 <0>         0.1371
     22 C17         3.5190   -2.0155   -0.7359 C.3       1 <0>        -0.0884
     23 O2          1.6828    0.9884    2.4717 O.3       1 <0>        -0.5515
     24 O3         -1.5117   -0.9629    1.7237 O.3       1 <0>        -0.4797
     25 H5          3.6390   -2.6577   -3.2104 H         1 <0>         0.1252
     26 H6          3.9637   -1.5746   -4.5851 H         1 <0>         0.1250
     27 H7          5.2358   -1.8901   -3.3808 H         1 <0>         0.1243
     28 H8          1.9979   -0.3362   -3.9342 H         1 <0>         0.1314
     29 H9          1.7340   -1.2949   -2.4607 H         1 <0>         0.1335
     30 H10         0.7188    0.9353   -2.1982 H         1 <0>         0.1164
     31 H11         2.2793    1.7096   -2.5776 H         1 <0>         0.0975
     32 H12         1.7633   -3.8374    0.4462 H         1 <0>         0.1331
     33 H13        -0.3840   -3.3203    1.4752 H         1 <0>         0.1373
     34 H14         4.1008    1.7563    2.5874 H         1 <0>         0.0860
     35 H15         4.1957    2.6027    1.0300 H         1 <0>         0.0778
     36 H16         3.6730   -0.3831    1.3620 H         1 <0>         0.0886
     37 H17         5.2437    0.3448    0.9344 H         1 <0>         0.0817
     38 H18         3.4360   -2.7636   -1.5243 H         1 <0>         0.0999
     39 H19         4.2006   -2.3903    0.0277 H         1 <0>         0.1211
     40 H20         1.9927    1.0900    3.3821 H         1 <0>         0.3856
     41 H21        -2.2721   -1.0096    1.1282 H         1 <0>         0.3931
     42 N1          3.7171   -0.5856   -2.7525 N.4       1 <0>        -0.3950
     43 H22         4.1723    0.2552   -3.1268 H         1 <0>         0.4293
@<TRIPOS>BOND
     1    1   25 1
     2    1   26 1
     3    1   27 1
     4    1   42 1
     5    2    3 1
     6    2   28 1
     7    2   29 1
     8    2   42 1
     9    3    4 1
    10    3   30 1
    11    3   31 1
    12    4   12 1
    13    4   18 1
    14    4    5 1
    15    5   10 ar
    16    5    6 ar
    17    6   22 1
    18    6    7 ar
    19    7    8 ar
    20    7   32 1
    21    8    9 ar
    22    8   33 1
    23    9   10 ar
    24    9   24 1
    25   10   11 1
    26   11   12 1
    27   12   13 1
    28   12   14 1
    29   14   15 1
    30   14   16 1
    31   14   23 1
    32   16   17 1
    33   16   34 1
    34   16   35 1
    35   17   18 1
    36   17   36 1
    37   17   37 1
    38   18   19 1
    39   18   20 1
    40   20   21 1
    41   20   22 1
    42   20   42 1
    43   22   38 1
    44   22   39 1
    45   23   40 1
    46   24   41 1
    47   42   43 1
@<TRIPOS>MOLECULE
ZINC22066510
   73    75     0     0     0
SMALL
USER_CHARGES

@<TRIPOS>ATOM
      1 C1          2.4910   -1.6080   -3.8112 C.3       1 <0>        -0.1682
      2 C2          1.7409   -0.5348   -3.0198 C.3       1 <0>         0.1082
      3 N1          0.4296   -1.0506   -2.6189 N.am      1 <0>        -0.6052
      4 C3          0.2957   -1.8338   -1.3881 C.3       1 <0>         0.0959
      5 C4          0.2625   -0.8901   -0.1842 C.3       1 <0>        -0.1789
      6 C5         -0.6534   -0.8047   -3.3824 C.2       1 <0>         0.5551
      7 O1         -0.5330   -0.2052   -4.4329 O.2       1 <0>        -0.5297
      8 C6         -1.9880   -1.2642   -2.9423 C.ar      1 <0>        -0.1172
      9 C7         -2.3958   -1.0698   -1.6217 C.ar      1 <0>        -0.0965
     10 C8         -3.6425   -1.5005   -1.2175 C.ar      1 <0>        -0.1206
     11 C9         -4.4878   -2.1244   -2.1179 C.ar      1 <0>        -0.0559
     12 C10        -4.0894   -2.3205   -3.4283 C.ar      1 <0>        -0.0954
     13 C11        -2.8477   -1.8890   -3.8470 C.ar      1 <0>        -0.0706
     14 C12        -5.8481   -2.5927   -1.6693 C.3       1 <0>         0.1758
     15 H1         -6.1289   -2.0701   -0.7549 H         1 <0>         0.0736
     16 C13        -5.8075   -4.0763   -1.4077 C.ar      1 <0>        -0.0583
     17 C14        -5.6865   -4.9609   -2.4637 C.ar      1 <0>        -0.1407
     18 C15        -5.6490   -6.3224   -2.2271 C.ar      1 <0>        -0.0770
     19 C16        -5.7329   -6.8027   -0.9343 C.ar      1 <0>        -0.1994
     20 C17        -5.8544   -5.9174    0.1266 C.ar      1 <0>         0.1361
     21 C18        -5.8856   -4.5511   -0.1130 C.ar      1 <0>        -0.1429
     22 O2         -5.9370   -6.3873    1.3991 O.3       1 <0>        -0.3155
     23 C19        -5.8925   -7.8052    1.5713 C.3       1 <0>         0.0249
     24 N2         -6.8351   -2.3074   -2.7192 N.3       1 <0>        -0.5260
     25 C20        -8.0333   -3.1429   -2.5568 C.3       1 <0>         0.0231
     26 C21        -9.0086   -2.8586   -3.7012 C.3       1 <0>         0.0323
     27 H2         -8.5345   -3.1030   -4.6518 H         1 <0>         0.1445
     28 N3         -9.3769   -1.4368   -3.6891 N.4       1 <0>        -0.3828
     29 C22        -8.1734   -0.6159   -3.8768 C.3       1 <0>         0.0016
     30 C23        -7.1911   -0.8815   -2.7339 C.3       1 <0>         0.0643
     31 H3         -7.6558   -0.6128   -1.7852 H         1 <0>         0.0669
     32 C24        -5.9286   -0.0422   -2.9404 C.3       1 <0>        -0.1606
     33 C25       -10.3271   -1.1681   -4.7766 C.3       1 <0>         0.0243
     34 C26       -10.7993    0.2604   -4.6897 C.2       1 <0>        -0.2350
     35 C27       -10.6767    1.0549   -5.7241 C.2       1 <0>        -0.1053
     36 C28       -10.2657   -3.7125   -3.5238 C.3       1 <0>        -0.1832
     37 H4          2.6235   -2.4927   -3.1884 H         1 <0>         0.0561
     38 H5          1.9172   -1.8718   -4.6997 H         1 <0>         0.0586
     39 H6          3.4666   -1.2242   -4.1095 H         1 <0>         0.0703
     40 H7          2.3147   -0.2710   -2.1314 H         1 <0>         0.0793
     41 H8          1.6084    0.3499   -3.6427 H         1 <0>         0.0876
     42 H9         -0.6286   -2.4105   -1.4232 H         1 <0>         0.0867
     43 H10         1.1438   -2.5120   -1.2949 H         1 <0>         0.0813
     44 H11         1.2763   -0.5666    0.0519 H         1 <0>         0.0652
     45 H12        -0.3505   -0.0205   -0.4210 H         1 <0>         0.0640
     46 H13        -0.1618   -1.4110    0.6741 H         1 <0>         0.0725
     47 H14        -1.7367   -0.5837   -0.9177 H         1 <0>         0.1429
     48 H15        -3.9594   -1.3508   -0.1959 H         1 <0>         0.1276
     49 H16        -4.7538   -2.8085   -4.1262 H         1 <0>         0.1342
     50 H17        -2.5399   -2.0384   -4.8714 H         1 <0>         0.1309
     51 H18        -5.6215   -4.5875   -3.4750 H         1 <0>         0.1305
     52 H19        -5.5545   -7.0113   -3.0535 H         1 <0>         0.1294
     53 H20        -5.7043   -7.8665   -0.7501 H         1 <0>         0.1321
     54 H21        -5.9754   -3.8596    0.7117 H         1 <0>         0.1302
     55 H22        -4.9515   -8.1896    1.1776 H         1 <0>         0.0594
     56 H23        -5.9676   -8.0450    2.6319 H         1 <0>         0.1059
     57 H24        -6.7243   -8.2626    1.0356 H         1 <0>         0.0581
     58 H25        -7.7483   -4.1948   -2.5747 H         1 <0>         0.1343
     59 H26        -8.5118   -2.9115   -1.6052 H         1 <0>         0.0619
     60 H27        -7.7036   -0.8717   -4.8265 H         1 <0>         0.1367
     61 H28        -8.4498    0.4385   -3.8807 H         1 <0>         0.1360
     62 H29        -5.3719   -0.4275   -3.7946 H         1 <0>         0.0844
     63 H30        -6.2082    0.9948   -3.1267 H         1 <0>         0.0700
     64 H31        -5.3065   -0.0959   -2.0470 H         1 <0>         0.0838
     65 H32        -9.8365   -1.3308   -5.7363 H         1 <0>         0.1301
     66 H33       -11.1813   -1.8392   -4.6869 H         1 <0>         0.1384
     67 H34       -11.2387    0.6292   -3.7746 H         1 <0>         0.1330
     68 H35       -10.2373    0.6861   -6.6391 H         1 <0>         0.1115
     69 H36       -11.0151    2.0786   -5.6617 H         1 <0>         0.1228
     70 H37       -10.7398   -3.4682   -2.5732 H         1 <0>         0.0809
     71 H38       -10.9604   -3.5101   -4.3390 H         1 <0>         0.0860
     72 H39        -9.9925   -4.7677   -3.5330 H         1 <0>         0.1076
     73 H40        -9.8052   -1.2080   -2.8046 H         1 <0>         0.4183
@<TRIPOS>BOND
     1    1    2 1
     2    1   37 1
     3    1   38 1
     4    1   39 1
     5    2    3 1
     6    2   40 1
     7    2   41 1
     8    3    4 1
     9    3    6 am
    10    4    5 1
    11    4   42 1
    12    4   43 1
    13    5   44 1
    14    5   45 1
    15    5   46 1
    16    6    7 2
    17    6    8 1
    18    8   13 ar
    19    8    9 ar
    20    9   10 ar
    21    9   47 1
    22   10   11 ar
    23   10   48 1
    24   11   12 ar
    25   11   14 1
    26   12   13 ar
    27   12   49 1
    28   13   50 1
    29   14   15 1
    30   14   16 1
    31   14   24 1
    32   16   21 ar
    33   16   17 ar
    34   17   18 ar
    35   17   51 1
    36   18   19 ar
    37   18   52 1
    38   19   20 ar
    39   19   53 1
    40   20   21 ar
    41   20   22 1
    42   21   54 1
    43   22   23 1
    44   23   55 1
    45   23   56 1
    46   23   57 1
    47   24   30 1
    48   24   25 1
    49   25   26 1
    50   25   58 1
    51   25   59 1
    52   26   27 1
    53   26   28 1
    54   26   36 1
    55   28   29 1
    56   28   33 1
    57   28   73 1
    58   29   30 1
    59   29   60 1
    60   29   61 1
    61   30   31 1
    62   30   32 1
    63   32   62 1
    64   32   63 1
    65   32   64 1
    66   33   34 1
    67   33   65 1
    68   33   66 1
    69   34   35 2
    70   34   67 1
    71   35   68 1
    72   35   69 1
    73   36   70 1
    74   36   71 1
    75   36   72 1
@<TRIPOS>MOLECULE
ZINC22066510
   73    75     0     0     0
SMALL
USER_CHARGES

@<TRIPOS>ATOM
      1 C1          2.0818   -4.4766    3.2676 C.3       1 <0>        -0.1689
      2 C2          1.7388   -3.0977    2.7003 C.3       1 <0>         0.1074
      3 N1          2.1743   -3.0222    1.3035 N.am      1 <0>        -0.6022
      4 C3          1.3002   -3.5147    0.2360 C.3       1 <0>         0.0926
      5 C4          0.2008   -2.4865   -0.0380 C.3       1 <0>        -0.1804
      6 C5          3.3792   -2.4997    1.0006 C.2       1 <0>         0.5507
      7 O1          4.1293   -2.1464    1.8895 O.2       1 <0>        -0.5215
      8 C6          3.7885   -2.3561   -0.4128 C.ar      1 <0>        -0.0969
      9 C7          2.8877   -1.8598   -1.3564 C.ar      1 <0>        -0.0885
     10 C8          3.2762   -1.7279   -2.6736 C.ar      1 <0>        -0.0986
     11 C9          4.5553   -2.0868   -3.0600 C.ar      1 <0>        -0.0985
     12 C10         5.4529   -2.5799   -2.1298 C.ar      1 <0>        -0.1217
     13 C11         5.0792   -2.7110   -0.8082 C.ar      1 <0>        -0.0542
     14 C12         4.9725   -1.9405   -4.5007 C.3       1 <0>         0.1312
     15 H1          4.2422   -1.3285   -5.0301 H         1 <0>         0.1530
     16 C13         5.0470   -3.3018   -5.1429 C.ar      1 <0>        -0.0894
     17 C14         6.1536   -4.1045   -4.9342 C.ar      1 <0>        -0.1656
     18 C15         6.2249   -5.3537   -5.5218 C.ar      1 <0>        -0.0582
     19 C16         5.1905   -5.8032   -6.3198 C.ar      1 <0>        -0.1869
     20 C17         4.0794   -5.0000   -6.5308 C.ar      1 <0>         0.1493
     21 C18         4.0075   -3.7489   -5.9349 C.ar      1 <0>        -0.1219
     22 O2          3.0606   -5.4398   -7.3152 O.3       1 <0>        -0.3093
     23 C19         3.2001   -6.7401   -7.8913 C.3       1 <0>         0.0219
     24 N2          6.2908   -1.2956   -4.5657 N.4       1 <0>        -0.3815
     25 C20         6.7880   -1.3363   -5.9472 C.3       1 <0>        -0.0063
     26 C21         8.1695   -0.6815   -6.0119 C.3       1 <0>         0.0612
     27 H2          8.8619   -1.2291   -5.3726 H         1 <0>         0.0642
     28 N3          8.0710    0.7101   -5.5492 N.3       1 <0>        -0.5312
     29 C22         7.5510    0.7680   -4.1758 C.3       1 <0>         0.0332
     30 C23         6.1745    0.1011   -4.1263 C.3       1 <0>         0.0365
     31 H3          5.4890    0.6335   -4.7856 H         1 <0>         0.1458
     32 C24         5.6392    0.1421   -2.6935 C.3       1 <0>        -0.1984
     33 C25         9.3686    1.3914   -5.6500 C.3       1 <0>         0.0780
     34 C26         9.1817    2.8666   -5.4050 C.2       1 <0>        -0.1649
     35 C27         9.8791    3.4695   -4.4743 C.2       1 <0>        -0.1715
     36 C28         8.6788   -0.7055   -7.4544 C.3       1 <0>        -0.1519
     37 H4          3.1591   -4.6339    3.2139 H         1 <0>         0.0588
     38 H5          1.7578   -4.5328    4.3068 H         1 <0>         0.0724
     39 H6          1.5730   -5.2455    2.6863 H         1 <0>         0.0568
     40 H7          0.6616   -2.9404    2.7540 H         1 <0>         0.0820
     41 H8          2.2477   -2.3288    3.2816 H         1 <0>         0.0896
     42 H9          1.8857   -3.6709   -0.6700 H         1 <0>         0.0853
     43 H10         0.8475   -4.4576    0.5431 H         1 <0>         0.0843
     44 H11        -0.3007   -2.7316   -0.9742 H         1 <0>         0.0751
     45 H12        -0.5230   -2.5026    0.7769 H         1 <0>         0.0685
     46 H13         0.6428   -1.4929   -0.1118 H         1 <0>         0.0633
     47 H14         1.8888   -1.5799   -1.0561 H         1 <0>         0.1541
     48 H15         2.5802   -1.3439   -3.4047 H         1 <0>         0.1427
     49 H16         6.4498   -2.8586   -2.4380 H         1 <0>         0.1243
     50 H17         5.7823   -3.0914   -0.0821 H         1 <0>         0.1428
     51 H18         6.9635   -3.7546   -4.3113 H         1 <0>         0.1167
     52 H19         7.0902   -5.9788   -5.3573 H         1 <0>         0.1385
     53 H20         5.2470   -6.7790   -6.7793 H         1 <0>         0.1409
     54 H21         3.1414   -3.1236   -6.0937 H         1 <0>         0.1422
     55 H22         4.0878   -6.7641   -8.5234 H         1 <0>         0.0622
     56 H23         3.2992   -7.4804   -7.0975 H         1 <0>         0.0621
     57 H24         2.3198   -6.9675   -8.4925 H         1 <0>         0.1108
     58 H25         6.8614   -2.3728   -6.2765 H         1 <0>         0.1408
     59 H26         6.0993   -0.7966   -6.5972 H         1 <0>         0.1402
     60 H27         8.2331    0.2441   -3.5062 H         1 <0>         0.0587
     61 H28         7.4623    1.8086   -3.8640 H         1 <0>         0.1262
     62 H29         6.1642   -0.5969   -2.0883 H         1 <0>         0.0840
     63 H30         5.7995    1.1354   -2.2741 H         1 <0>         0.1007
     64 H31         4.5727   -0.0829   -2.6975 H         1 <0>         0.0994
     65 H32        10.0521    0.9832   -4.9055 H         1 <0>         0.0490
     66 H33         9.7830    1.2382   -6.6464 H         1 <0>         0.1013
     67 H34         8.4728    3.4267   -5.9967 H         1 <0>         0.1193
     68 H35         9.7451    4.5267   -4.2988 H         1 <0>         0.1067
     69 H36        10.5880    2.9094   -3.8826 H         1 <0>         0.0969
     70 H37         7.9867   -0.1570   -8.0933 H         1 <0>         0.0789
     71 H38         9.6629   -0.2390   -7.5001 H         1 <0>         0.0796
     72 H39         8.7498   -1.7377   -7.7975 H         1 <0>         0.0752
     73 H40         6.9346   -1.7852   -3.9624 H         1 <0>         0.4129
@<TRIPOS>BOND
     1    1    2 1
     2    1   37 1
     3    1   38 1
     4    1   39 1
     5    2    3 1
     6    2   40 1
     7    2   41 1
     8    3    4 1
     9    3    6 am
    10    4    5 1
    11    4   42 1
    12    4   43 1
    13    5   44 1
    14    5   45 1
    15    5   46 1
    16    6    7 2
    17    6    8 1
    18    8   13 ar
    19    8    9 ar
    20    9   10 ar
    21    9   47 1
    22   10   11 ar
    23   10   48 1
    24   11   12 ar
    25   11   14 1
    26   12   13 ar
    27   12   49 1
    28   13   50 1
    29   14   15 1
    30   14   16 1
    31   14   24 1
    32   16   21 ar
    33   16   17 ar
    34   17   18 ar
    35   17   51 1
    36   18   19 ar
    37   18   52 1
    38   19   20 ar
    39   19   53 1
    40   20   21 ar
    41   20   22 1
    42   21   54 1
    43   22   23 1
    44   23   55 1
    45   23   56 1
    46   23   57 1
    47   24   30 1
    48   24   25 1
    49   24   73 1
    50   25   26 1
    51   25   58 1
    52   25   59 1
    53   26   27 1
    54   26   28 1
    55   26   36 1
    56   28   29 1
    57   28   33 1
    58   29   30 1
    59   29   60 1
    60   29   61 1
    61   30   31 1
    62   30   32 1
    63   32   62 1
    64   32   63 1
    65   32   64 1
    66   33   34 1
    67   33   65 1
    68   33   66 1
    69   34   35 2
    70   34   67 1
    71   35   68 1
    72   35   69 1
    73   36   70 1
    74   36   71 1
    75   36   72 1
@<TRIPOS>MOLECULE
ZINC22066510
   72    74     0     0     0
SMALL
USER_CHARGES

@<TRIPOS>ATOM
      1 C1          2.1295   -1.3205    3.8951 C.3       1 <0>        -0.1676
      2 C2          1.6862   -0.2597    2.8856 C.3       1 <0>         0.1092
      3 N1          1.9679   -0.7304    1.5272 N.am      1 <0>        -0.6081
      4 C3          0.9979   -1.5784    0.8299 C.3       1 <0>         0.0967
      5 C4         -0.1181   -0.7066    0.2506 C.3       1 <0>        -0.1783
      6 C5          3.1194   -0.3832    0.9190 C.2       1 <0>         0.5598
      7 O1          3.9442    0.2827    1.5138 O.2       1 <0>        -0.5325
      8 C6          3.3794   -0.8123   -0.4717 C.ar      1 <0>        -0.1298
      9 C7          2.3801   -0.6969   -1.4393 C.ar      1 <0>        -0.1006
     10 C8          2.6294   -1.0987   -2.7353 C.ar      1 <0>        -0.1242
     11 C9          3.8665   -1.6156   -3.0767 C.ar      1 <0>        -0.0371
     12 C10         4.8613   -1.7331   -2.1223 C.ar      1 <0>        -0.0925
     13 C11         4.6271   -1.3292   -0.8241 C.ar      1 <0>        -0.0713
     14 C12         4.1316   -2.0530   -4.4943 C.3       1 <0>         0.1647
     15 H1          3.4074   -1.5841   -5.1606 H         1 <0>         0.0639
     16 C13         4.0051   -3.5516   -4.5896 C.ar      1 <0>        -0.0412
     17 C14         4.9574   -4.3641   -4.0020 C.ar      1 <0>        -0.1310
     18 C15         4.8442   -5.7392   -4.0876 C.ar      1 <0>        -0.0815
     19 C16         3.7789   -6.3052   -4.7612 C.ar      1 <0>        -0.2053
     20 C17         2.8223   -5.4925   -5.3515 C.ar      1 <0>         0.1287
     21 C18         2.9349   -4.1126   -5.2589 C.ar      1 <0>        -0.1432
     22 O2          1.7735   -6.0468   -6.0145 O.3       1 <0>        -0.3178
     23 C19         1.7188   -7.4739   -6.0646 C.3       1 <0>         0.0273
     24 N2          5.4891   -1.6503   -4.8853 N.3       1 <0>        -0.5241
     25 C20         5.9518   -2.4191   -6.0491 C.3       1 <0>         0.0580
     26 C21         7.3951   -2.0276   -6.3748 C.3       1 <0>         0.0852
     27 H2          8.0376   -2.2704   -5.5284 H         1 <0>         0.0496
     28 N3          7.4600   -0.5838   -6.6413 N.3       1 <0>        -0.5331
     29 C22         6.9973    0.1850   -5.4774 C.3       1 <0>         0.0660
     30 C23         5.5540   -0.2066   -5.1518 C.3       1 <0>         0.0883
     31 H3          4.9116    0.0362   -5.9982 H         1 <0>         0.0511
     32 C24         5.0830    0.5623   -3.9158 C.3       1 <0>        -0.1581
     33 C25         8.8176   -0.1812   -7.0323 C.3       1 <0>         0.0755
     34 C26         8.7957    1.2405   -7.5316 C.2       1 <0>        -0.1451
     35 C27         9.5853    2.1362   -6.9927 C.2       1 <0>        -0.1908
     36 C28         7.8663   -2.7969   -7.6105 C.3       1 <0>        -0.1491
     37 H4          3.1992   -1.5000    3.7873 H         1 <0>         0.0589
     38 H5          1.9199   -0.9703    4.9058 H         1 <0>         0.0674
     39 H6          1.5853   -2.2468    3.7114 H         1 <0>         0.0553
     40 H7          0.6165   -0.0801    2.9934 H         1 <0>         0.0766
     41 H8          2.2304    0.6667    3.0694 H         1 <0>         0.0863
     42 H9          1.4975   -2.1133    0.0222 H         1 <0>         0.0897
     43 H10         0.5717   -2.2955    1.5315 H         1 <0>         0.0782
     44 H11        -0.6418   -1.2583   -0.5301 H         1 <0>         0.0719
     45 H12        -0.8198   -0.4417    1.0415 H         1 <0>         0.0618
     46 H13         0.3124    0.2011   -0.1723 H         1 <0>         0.0654
     47 H14         1.4137   -0.2943   -1.1739 H         1 <0>         0.1393
     48 H15         1.8570   -1.0100   -3.4850 H         1 <0>         0.1257
     49 H16         5.8248   -2.1377   -2.3952 H         1 <0>         0.1358
     50 H17         5.4060   -1.4169   -0.0812 H         1 <0>         0.1275
     51 H18         5.7913   -3.9236   -3.4757 H         1 <0>         0.1302
     52 H19         5.5893   -6.3716   -3.6279 H         1 <0>         0.1256
     53 H20         3.6913   -7.3796   -4.8285 H         1 <0>         0.1272
     54 H21         2.1889   -3.4777   -5.7135 H         1 <0>         0.1283
     55 H22         1.6675   -7.8713   -5.0509 H         1 <0>         0.0558
     56 H23         0.8348   -7.7843   -6.6217 H         1 <0>         0.1010
     57 H24         2.6123   -7.8546   -6.5593 H         1 <0>         0.0559
     58 H25         5.9063   -3.4844   -5.8227 H         1 <0>         0.0911
     59 H26         5.3139   -2.2015   -6.9057 H         1 <0>         0.0435
     60 H27         7.6353   -0.0327   -4.6209 H         1 <0>         0.0424
     61 H28         7.0429    1.2502   -5.7038 H         1 <0>         0.0816
     62 H29         5.6128    0.1962   -3.0364 H         1 <0>         0.0715
     63 H30         5.2892    1.6244   -4.0482 H         1 <0>         0.0575
     64 H31         4.0114    0.4141   -3.7822 H         1 <0>         0.0661
     65 H32         9.4805   -0.2533   -6.1700 H         1 <0>         0.0380
     66 H33         9.1779   -0.8386   -7.8235 H         1 <0>         0.0892
     67 H34         8.1290    1.5210   -8.3336 H         1 <0>         0.1132
     68 H35        10.2520    1.8558   -6.1907 H         1 <0>         0.0940
     69 H36         9.5696    3.1551   -7.3506 H         1 <0>         0.0994
     70 H37         7.2242   -2.5533   -8.4569 H         1 <0>         0.0644
     71 H38         8.8942   -2.5178   -7.8421 H         1 <0>         0.0605
     72 H39         7.8163   -3.8676   -7.4128 H         1 <0>         0.0621
@<TRIPOS>BOND
     1    1    2 1
     2    1   37 1
     3    1   38 1
     4    1   39 1
     5    2    3 1
     6    2   40 1
     7    2   41 1
     8    3    4 1
     9    3    6 am
    10    4    5 1
    11    4   42 1
    12    4   43 1
    13    5   44 1
    14    5   45 1
    15    5   46 1
    16    6    7 2
    17    6    8 1
    18    8   13 ar
    19    8    9 ar
    20    9   10 ar
    21    9   47 1
    22   10   11 ar
    23   10   48 1
    24   11   12 ar
    25   11   14 1
    26   12   13 ar
    27   12   49 1
    28   13   50 1
    29   14   15 1
    30   14   16 1
    31   14   24 1
    32   16   21 ar
    33   16   17 ar
    34   17   18 ar
    35   17   51 1
    36   18   19 ar
    37   18   52 1
    38   19   20 ar
    39   19   53 1
    40   20   21 ar
    41   20   22 1
    42   21   54 1
    43   22   23 1
    44   23   55 1
    45   23   56 1
    46   23   57 1
    47   24   30 1
    48   24   25 1
    49   25   26 1
    50   25   58 1
    51   25   59 1
    52   26   27 1
    53   26   28 1
    54   26   36 1
    55   28   29 1
    56   28   33 1
    57   29   30 1
    58   29   60 1
    59   29   61 1
    60   30   31 1
    61   30   32 1
    62   32   62 1
    63   32   63 1
    64   32   64 1
    65   33   34 1
    66   33   65 1
    67   33   66 1
    68   34   35 2
    69   34   67 1
    70   35   68 1
    71   35   69 1
    72   36   70 1
    73   36   71 1
    74   36   72 1
@<TRIPOS>MOLECULE
ZINC53147203
   74    75     0     0     0
SMALL
USER_CHARGES

@<TRIPOS>ATOM
      1 C1         -0.0225    1.8097    0.0120 C.3       1 <0>        -0.1211
      2 S1          0.0021   -0.0041    0.0020 S.3       1 <0>        -0.2721
      3 C2         -1.7518   -0.4668    0.0163 C.3       1 <0>        -0.0758
      4 C3         -1.8771   -1.9917    0.0093 C.3       1 <0>        -0.0932
      5 C4         -3.3564   -2.3820    0.0213 C.3       1 <0>         0.0814
      6 H1         -3.8661   -1.9002   -0.8131 H         1 <0>         0.0862
      7 C5         -3.4823   -3.8780   -0.1094 C.2       1 <0>         0.4933
      8 O1         -3.8614   -4.5431    0.8396 O.co2     1 <0>        -0.6829
      9 O2         -3.2050   -4.4233   -1.1640 O.co2     1 <0>        -0.6914
     10 N1         -3.9655   -1.9489    1.2813 N.am      1 <0>        -0.6867
     11 C6         -5.2910   -1.7131    1.3430 C.2       1 <0>         0.5116
     12 O3         -5.9796   -1.8594    0.3554 O.2       1 <0>        -0.5408
     13 C7         -5.9176   -1.2675    2.6392 C.3       1 <0>         0.1412
     14 H2         -5.4677   -0.3265    2.9556 H         1 <0>         0.1113
     15 C8         -5.6812   -2.3321    3.7123 C.3       1 <0>        -0.0910
     16 C9         -6.1992   -1.8339    5.0369 C.ar      1 <0>        -0.0566
     17 C10        -5.3674   -1.1219    5.8808 C.ar      1 <0>        -0.1047
     18 C11        -5.8426   -0.6649    7.0957 C.ar      1 <0>        -0.1131
     19 C12        -7.1497   -0.9194    7.4667 C.ar      1 <0>        -0.1244
     20 C13        -7.9817   -1.6306    6.6224 C.ar      1 <0>        -0.1147
     21 C14        -7.5078   -2.0839    5.4055 C.ar      1 <0>        -0.1103
     22 N2         -7.3576   -1.0799    2.4463 N.am      1 <0>        -0.7022
     23 C15        -8.0409   -0.2388    3.2477 C.2       1 <0>         0.5105
     24 O4         -7.4636    0.3627    4.1285 O.2       1 <0>        -0.5219
     25 C16        -9.5222   -0.0457    3.0493 C.3       1 <0>         0.1012
     26 N3        -10.0269    0.9100    4.0383 N.am      1 <0>        -0.7065
     27 C17       -11.3339    1.2390    4.0517 C.2       1 <0>         0.5121
     28 O5        -12.0921    0.7438    3.2450 O.2       1 <0>        -0.5379
     29 C18       -11.8530    2.2221    5.0690 C.3       1 <0>         0.0991
     30 N4        -13.2931    2.4098    4.8762 N.am      1 <0>        -0.7135
     31 C19       -13.9763    3.2509    5.6775 C.2       1 <0>         0.4823
     32 O6        -13.3990    3.8524    6.5583 O.2       1 <0>        -0.5427
     33 C20       -15.4577    3.4439    5.4791 C.3       1 <0>         0.0845
     34 H3        -15.9216    2.4847    5.2494 H         1 <0>         0.1071
     35 C21       -15.6949    4.4155    4.3212 C.3       1 <0>        -0.0684
     36 C22       -17.1726    4.5139    4.0428 C.ar      1 <0>        -0.0781
     37 C23       -17.7642    3.6487    3.1411 C.ar      1 <0>        -0.1010
     38 C24       -19.1186    3.7372    2.8837 C.ar      1 <0>        -0.1459
     39 C25       -19.8853    4.6950    3.5313 C.ar      1 <0>         0.0996
     40 C26       -19.2895    5.5617    4.4360 C.ar      1 <0>        -0.1467
     41 C27       -17.9356    5.4657    4.6937 C.ar      1 <0>        -0.0735
     42 O7        -21.2178    4.7844    3.2795 O.3       1 <0>        -0.5022
     43 N5        -16.0489    3.9920    6.7072 N.3       1 <0>        -0.8134
     44 H4          1.0001    2.1870    0.0043 H         1 <0>         0.0982
     45 H5         -0.5497    2.1708   -0.8711 H         1 <0>         0.0736
     46 H6         -0.5327    2.1613    0.9088 H         1 <0>         0.0731
     47 H7         -2.2257   -0.0675    0.9130 H         1 <0>         0.0773
     48 H8         -2.2427   -0.0579   -0.8669 H         1 <0>         0.0796
     49 H9         -1.4032   -2.3910   -0.8874 H         1 <0>         0.0924
     50 H10        -1.3862   -2.4006    0.8924 H         1 <0>         0.0733
     51 H11        -3.4147   -1.8318    2.0712 H         1 <0>         0.3931
     52 H12        -6.2058   -3.2473    3.4380 H         1 <0>         0.0871
     53 H13        -4.6134   -2.5358    3.7932 H         1 <0>         0.0920
     54 H14        -4.3462   -0.9231    5.5910 H         1 <0>         0.1165
     55 H15        -5.1925   -0.1092    7.7554 H         1 <0>         0.1148
     56 H16        -7.5207   -0.5629    8.4162 H         1 <0>         0.1128
     57 H17        -9.0029   -1.8298    6.9124 H         1 <0>         0.1114
     58 H18        -8.1590   -2.6364    4.7443 H         1 <0>         0.1104
     59 H19        -7.8194   -1.5610    1.7419 H         1 <0>         0.4134
     60 H20        -9.7075    0.3377    2.0460 H         1 <0>         0.1019
     61 H21       -10.0329   -1.0007    3.1733 H         1 <0>         0.1012
     62 H22        -9.4205    1.3060    4.6835 H         1 <0>         0.4159
     63 H23       -11.6677    1.8386    6.0724 H         1 <0>         0.1016
     64 H24       -11.3423    3.1770    4.9450 H         1 <0>         0.1017
     65 H25       -13.7548    1.9287    4.1717 H         1 <0>         0.4137
     66 H26       -15.3090    5.3994    4.5877 H         1 <0>         0.0807
     67 H27       -15.1808    4.0524    3.4313 H         1 <0>         0.0840
     68 H28       -17.1669    2.9032    2.6372 H         1 <0>         0.1260
     69 H29       -19.5800    3.0616    2.1788 H         1 <0>         0.1266
     70 H30       -19.8842    6.3083    4.9413 H         1 <0>         0.1259
     71 H31       -17.4721    6.1373    5.4012 H         1 <0>         0.1259
     72 H32       -21.7653    4.2387    3.8604 H         1 <0>         0.3895
     73 H33       -15.9622    3.3401    7.4724 H         1 <0>         0.3470
     74 H34       -15.6352    4.8819    6.9417 H         1 <0>         0.3503
@<TRIPOS>BOND
     1    1    2 1
     2    1   44 1
     3    1   45 1
     4    1   46 1
     5    2    3 1
     6    3    4 1
     7    3   47 1
     8    3   48 1
     9    4    5 1
    10    4   49 1
    11    4   50 1
    12    5    6 1
    13    5    7 1
    14    5   10 1
    15    7    8 2
    16    7    9 1
    17   10   11 am
    18   10   51 1
    19   11   12 2
    20   11   13 1
    21   13   14 1
    22   13   15 1
    23   13   22 1
    24   15   16 1
    25   15   52 1
    26   15   53 1
    27   16   21 ar
    28   16   17 ar
    29   17   18 ar
    30   17   54 1
    31   18   19 ar
    32   18   55 1
    33   19   20 ar
    34   19   56 1
    35   20   21 ar
    36   20   57 1
    37   21   58 1
    38   22   23 am
    39   22   59 1
    40   23   24 2
    41   23   25 1
    42   25   26 1
    43   25   60 1
    44   25   61 1
    45   26   27 am
    46   26   62 1
    47   27   28 2
    48   27   29 1
    49   29   30 1
    50   29   63 1
    51   29   64 1
    52   30   31 am
    53   30   65 1
    54   31   32 2
    55   31   33 1
    56   33   34 1
    57   33   35 1
    58   33   43 1
    59   35   36 1
    60   35   66 1
    61   35   67 1
    62   36   41 ar
    63   36   37 ar
    64   37   38 ar
    65   37   68 1
    66   38   39 ar
    67   38   69 1
    68   39   40 ar
    69   39   42 1
    70   40   41 ar
    71   40   70 1
    72   41   71 1
    73   42   72 1
    74   43   73 1
    75   43   74 1
@<TRIPOS>MOLECULE
ZINC00001773
   49    54     0     0     0
SMALL
USER_CHARGES

@<TRIPOS>ATOM
      1 C1         -0.2443    1.2570    0.4660 C.ar      1 <0>        -0.1112
      2 C2          0.9083    2.0200    0.5623 C.ar      1 <0>        -0.0962
      3 C3          2.1900    1.4753    0.5348 C.ar      1 <0>         0.1149
      4 C4          2.2879    0.0876    0.3806 C.ar      1 <0>         0.0997
      5 C5          1.1121   -0.6326    0.2304 C.ar      1 <0>        -0.1886
      6 C6         -0.1602   -0.1156    0.3155 C.ar      1 <0>        -0.0596
      7 C7         -1.3282   -1.0478    0.3098 C.3       1 <0>        -0.0925
      8 C8         -0.9396   -2.5064    0.1383 C.3       1 <0>         0.0145
      9 H1         -1.6997   -3.1130    0.6306 H         1 <0>         0.1456
     10 C9          0.4167   -2.8747    0.7456 C.3       1 <0>         0.1448
     11 C10         1.4829   -2.0836    0.0450 C.3       1 <0>        -0.0304
     12 C11         1.4804   -2.4286   -1.4426 C.3       1 <0>        -0.1241
     13 C12         0.0910   -2.1126   -2.0094 C.3       1 <0>        -0.0096
     14 N1         -0.9309   -2.8716   -1.2830 N.4       1 <0>        -0.3739
     15 C13        -2.2494   -2.5851   -1.8638 C.3       1 <0>         0.0182
     16 C14        -2.3011   -3.1153   -3.2981 C.3       1 <0>        -0.2108
     17 C15        -2.4792   -2.0935   -4.4229 C.3       1 <0>        -0.1679
     18 C16        -3.6360   -3.0186   -4.0393 C.3       1 <0>        -0.1476
     19 C17         2.8868   -2.1036    0.6341 C.3       1 <0>         0.0644
     20 H2          3.5148   -2.8457    0.1412 H         1 <0>         0.1600
     21 O1          3.3506   -0.7456    0.3657 O.3       1 <0>        -0.2592
     22 C18         2.8706   -2.3034    2.1213 C.2       1 <0>         0.3361
     23 O2          3.8019   -1.8874    2.7678 O.2       1 <0>        -0.4120
     24 C19         1.7528   -2.9946    2.8421 C.3       1 <0>        -0.1575
     25 C20         0.4362   -2.5258    2.2328 C.3       1 <0>        -0.1426
     26 O3          0.6517   -4.2744    0.5791 O.3       1 <0>        -0.5414
     27 O4          3.2968    2.2569    0.6522 O.3       1 <0>        -0.4785
     28 H3         -1.2116    1.7350    0.5131 H         1 <0>         0.1418
     29 H4          0.8079    3.0906    0.6634 H         1 <0>         0.1458
     30 H5         -1.8664   -0.9385    1.2514 H         1 <0>         0.1279
     31 H6         -1.9954   -0.7663   -0.5049 H         1 <0>         0.1079
     32 H7          2.2322   -1.8319   -1.9592 H         1 <0>         0.1192
     33 H8          1.6983   -3.4885   -1.5741 H         1 <0>         0.1097
     34 H9         -0.1082   -1.0460   -1.9055 H         1 <0>         0.1319
     35 H10         0.0606   -2.3836   -3.0648 H         1 <0>         0.1393
     36 H11        -3.0221   -3.0716   -1.2686 H         1 <0>         0.1355
     37 H12        -2.4183   -1.5083   -1.8682 H         1 <0>         0.1323
     38 H13        -1.6744   -3.9837   -3.5011 H         1 <0>         0.1257
     39 H14        -2.5597   -1.0437   -4.1411 H         1 <0>         0.1059
     40 H15        -1.9696   -2.2896   -5.3663 H         1 <0>         0.1108
     41 H16        -3.8874   -3.8232   -4.7304 H         1 <0>         0.1129
     42 H17        -4.4775   -2.5773   -3.5052 H         1 <0>         0.1078
     43 H18         1.8718   -4.0736    2.7439 H         1 <0>         0.1208
     44 H19         1.7811   -2.7239    3.8976 H         1 <0>         0.1111
     45 H20         0.2965   -1.4521    2.3583 H         1 <0>         0.0987
     46 H21        -0.3620   -3.0631    2.7449 H         1 <0>         0.0955
     47 H22        -0.0114   -4.8375    1.0014 H         1 <0>         0.3955
     48 H23         3.5936    2.3840    1.5637 H         1 <0>         0.4013
     49 H24        -0.7373   -3.8580   -1.3711 H         1 <0>         0.4280
@<TRIPOS>BOND
     1    1    6 ar
     2    1    2 ar
     3    1   28 1
     4    2    3 ar
     5    2   29 1
     6    3    4 ar
     7    3   27 1
     8    4   21 1
     9    4    5 ar
    10    5   11 1
    11    5    6 ar
    12    6    7 1
    13    7    8 1
    14    7   30 1
    15    7   31 1
    16    8    9 1
    17    8   14 1
    18    8   10 1
    19   10   25 1
    20   10   11 1
    21   10   26 1
    22   11   12 1
    23   11   19 1
    24   12   13 1
    25   12   32 1
    26   12   33 1
    27   13   14 1
    28   13   34 1
    29   13   35 1
    30   14   15 1
    31   14   49 1
    32   15   16 1
    33   15   36 1
    34   15   37 1
    35   16   18 1
    36   16   17 1
    37   16   38 1
    38   17   18 1
    39   17   39 1
    40   17   40 1
    41   18   41 1
    42   18   42 1
    43   19   20 1
    44   19   21 1
    45   19   22 1
    46   22   23 2
    47   22   24 1
    48   24   25 1
    49   24   43 1
    50   24   44 1
    51   25   45 1
    52   25   46 1
    53   26   47 1
    54   27   48 1
@<TRIPOS>MOLECULE
ZINC01530967
   58    59     0     0     0
SMALL
USER_CHARGES
(4-dimethylamino-1-ethyl-2,2-diphenyl-pentyl) acetate
@<TRIPOS>ATOM
      1 C1         -2.0020    0.5958    2.9079 C.3       1 <0>        -0.1630
      2 C2         -1.8866   -0.7653    2.2187 C.3       1 <0>        -0.1850
      3 C3         -1.3204   -0.5773    0.8098 C.3       1 <0>         0.0843
      4 H1         -0.3567   -0.0715    0.8700 H         1 <0>         0.0836
      5 C4         -1.1386   -1.9440    0.1466 C.3       1 <0>         0.0233
      6 C5         -0.1932   -2.7995    0.9924 C.3       1 <0>        -0.1387
      7 C6          1.2091   -2.1882    0.9659 C.3       1 <0>         0.0196
      8 H2          1.5214   -2.0402   -0.0678 H         1 <0>         0.1400
      9 C7          2.1900   -3.1317    1.6649 C.3       1 <0>        -0.1776
     10 C8          1.1293   -1.0819    3.1182 C.3       1 <0>        -0.0610
     11 C9          2.3556   -0.0799    1.2866 C.3       1 <0>        -0.0484
     12 C10        -2.4754   -2.6311    0.0371 C.ar      1 <0>        -0.0815
     13 C11        -3.6358   -1.9336    0.3158 C.ar      1 <0>        -0.1151
     14 C12        -4.8624   -2.5625    0.2106 C.ar      1 <0>        -0.1149
     15 C13        -4.9277   -3.8917   -0.1631 C.ar      1 <0>        -0.1069
     16 C14        -3.7669   -4.5907   -0.4367 C.ar      1 <0>        -0.1131
     17 C15        -2.5407   -3.9603   -0.3366 C.ar      1 <0>        -0.1129
     18 C16        -0.5538   -1.7605   -1.2301 C.ar      1 <0>        -0.0914
     19 C17        -0.2827   -2.8631   -2.0185 C.ar      1 <0>        -0.1084
     20 C18         0.2492   -2.6946   -3.2832 C.ar      1 <0>        -0.1051
     21 C19         0.5198   -1.4239   -3.7555 C.ar      1 <0>        -0.1066
     22 C20         0.2536   -0.3215   -2.9651 C.ar      1 <0>        -0.1090
     23 C21        -0.2832   -0.4898   -1.7024 C.ar      1 <0>        -0.1317
     24 O1         -2.2395    0.2246    0.0219 O.3       1 <0>        -0.3186
     25 C22        -2.0647    1.5552    0.0492 C.2       1 <0>         0.4595
     26 O2         -1.1733    2.0340    0.7095 O.2       1 <0>        -0.5132
     27 C23        -2.9803    2.4518   -0.7438 C.3       1 <0>        -0.1555
     28 H3         -2.4053    0.4618    3.9116 H         1 <0>         0.0779
     29 H4         -1.0158    1.0558    2.9710 H         1 <0>         0.0586
     30 H5         -2.6669    1.2394    2.3320 H         1 <0>         0.0629
     31 H6         -1.2216   -1.4089    2.7946 H         1 <0>         0.0867
     32 H7         -2.8728   -1.2253    2.1556 H         1 <0>         0.1183
     33 H8         -0.5554   -2.8336    2.0199 H         1 <0>         0.1031
     34 H9         -0.1567   -3.8104    0.5863 H         1 <0>         0.1288
     35 H10         1.8777   -3.2797    2.6987 H         1 <0>         0.0847
     36 H11         2.2021   -4.0913    1.1480 H         1 <0>         0.1055
     37 H12         3.1890   -2.6962    1.6460 H         1 <0>         0.0829
     38 H13         2.0643   -1.5183    3.4696 H         1 <0>         0.1305
     39 H14         0.9741   -0.1175    3.6019 H         1 <0>         0.1226
     40 H15         0.3025   -1.7485    3.3632 H         1 <0>         0.1209
     41 H16         2.3399    0.1018    0.2120 H         1 <0>         0.1172
     42 H17         2.3187    0.8719    1.8166 H         1 <0>         0.1231
     43 H18         3.2711   -0.6085    1.5524 H         1 <0>         0.1256
     44 H19        -3.5845   -0.8963    0.6121 H         1 <0>         0.1443
     45 H20        -5.7693   -2.0165    0.4248 H         1 <0>         0.1270
     46 H21        -5.8857   -4.3843   -0.2409 H         1 <0>         0.1273
     47 H22        -3.8179   -5.6293   -0.7283 H         1 <0>         0.1278
     48 H23        -1.6338   -4.5065   -0.5500 H         1 <0>         0.1225
     49 H24        -0.4900   -3.8561   -1.6478 H         1 <0>         0.1297
     50 H25         0.4575   -3.5558   -3.9007 H         1 <0>         0.1318
     51 H26         0.9395   -1.2924   -4.7419 H         1 <0>         0.1308
     52 H27         0.4653    0.6712   -3.3339 H         1 <0>         0.1280
     53 H28        -0.4908    0.3714   -1.0847 H         1 <0>         0.1091
     54 H29        -3.7160    1.8447   -1.2713 H         1 <0>         0.0985
     55 H30        -3.4920    3.1373   -0.0684 H         1 <0>         0.1155
     56 H31        -2.3950    3.0219   -1.4654 H         1 <0>         0.1144
     57 N1          1.1691   -0.8809    1.6544 N.4       1 <0>        -0.4282
     58 H32         0.3232   -0.3767    1.3638 H         1 <0>         0.4196
@<TRIPOS>BOND
     1    1    2 1
     2    1   28 1
     3    1   29 1
     4    1   30 1
     5    2    3 1
     6    2   31 1
     7    2   32 1
     8    3    4 1
     9    3    5 1
    10    3   24 1
    11    5    6 1
    12    5   12 1
    13    5   18 1
    14    6    7 1
    15    6   33 1
    16    6   34 1
    17    7    8 1
    18    7    9 1
    19    7   57 1
    20    9   35 1
    21    9   36 1
    22    9   37 1
    23   10   38 1
    24   10   39 1
    25   10   40 1
    26   10   57 1
    27   11   41 1
    28   11   42 1
    29   11   43 1
    30   11   57 1
    31   12   17 ar
    32   12   13 ar
    33   13   14 ar
    34   13   44 1
    35   14   15 ar
    36   14   45 1
    37   15   16 ar
    38   15   46 1
    39   16   17 ar
    40   16   47 1
    41   17   48 1
    42   18   23 ar
    43   18   19 ar
    44   19   20 ar
    45   19   49 1
    46   20   21 ar
    47   20   50 1
    48   21   22 ar
    49   21   51 1
    50   22   23 ar
    51   22   52 1
    52   23   53 1
    53   24   25 1
    54   25   26 2
    55   25   27 1
    56   27   54 1
    57   27   55 1
    58   27   56 1
    59   57   58 1
@<TRIPOS>MOLECULE
ZINC02007678
   58    59     0     0     0
SMALL
USER_CHARGES
(4-dimethylamino-1-ethyl-2,2-diphenyl-pentyl) acetate
@<TRIPOS>ATOM
      1 C1         -0.5275   -0.1805   -0.2989 C.3       1 <0>        -0.1534
      2 C2         -0.0088    1.2405   -0.0696 C.3       1 <0>        -0.1605
      3 C3         -0.8450    1.9195    1.0169 C.3       1 <0>         0.1008
      4 H1         -0.8300    1.3104    1.9207 H         1 <0>         0.0991
      5 C4         -0.2603    3.3000    1.3224 C.3       1 <0>         0.0159
      6 C5          1.2215    3.1591    1.6766 C.3       1 <0>        -0.1348
      7 C6          1.8336    4.5478    1.8711 C.3       1 <0>         0.0334
      8 H2          2.9000    4.4497    2.0741 H         1 <0>         0.1306
      9 C7          1.6302    5.3772    0.6016 C.3       1 <0>        -0.2208
     10 C8          1.3947    4.4725    4.2511 C.3       1 <0>        -0.0502
     11 C9          1.6411    6.6056    3.1325 C.3       1 <0>        -0.0568
     12 C10        -0.4054    4.1861    0.1121 C.ar      1 <0>        -0.0721
     13 C11        -1.2457    5.2829    0.1553 C.ar      1 <0>        -0.1472
     14 C12        -1.3752    6.0984   -0.9533 C.ar      1 <0>        -0.1092
     15 C13        -0.6724    5.8112   -2.1085 C.ar      1 <0>        -0.1081
     16 C14         0.1638    4.7114   -2.1534 C.ar      1 <0>        -0.1089
     17 C15         0.2973    3.8988   -1.0431 C.ar      1 <0>        -0.1192
     18 C16        -0.9986    3.9122    2.4848 C.ar      1 <0>        -0.0700
     19 C17        -1.8036    3.1233    3.2851 C.ar      1 <0>        -0.1054
     20 C18        -2.4771    3.6841    4.3542 C.ar      1 <0>        -0.0644
     21 C19        -2.3538    5.0356    4.6167 C.ar      1 <0>        -0.1049
     22 C20        -1.5528    5.8255    3.8132 C.ar      1 <0>        -0.0951
     23 C21        -0.8753    5.2638    2.7473 C.ar      1 <0>        -0.2341
     24 O1         -2.2135    2.0652    0.5541 O.3       1 <0>        -0.3389
     25 C22        -3.0578    1.0563    0.8209 C.2       1 <0>         0.4584
     26 O2         -2.6662    0.0837    1.4213 O.2       1 <0>        -0.5030
     27 C23        -4.4940    1.1368    0.3716 C.3       1 <0>        -0.1521
     28 H3         -1.5699   -0.1402   -0.6148 H         1 <0>         0.0521
     29 H4          0.0683   -0.6643   -1.0730 H         1 <0>         0.0635
     30 H5         -0.4504   -0.7494    0.6276 H         1 <0>         0.0653
     31 H6          1.0337    1.2001    0.2463 H         1 <0>         0.0856
     32 H7         -0.0859    1.8094   -0.9961 H         1 <0>         0.0929
     33 H8          1.3219    2.5855    2.5980 H         1 <0>         0.0989
     34 H9          1.7407    2.6431    0.8689 H         1 <0>         0.1233
     35 H10         2.2896    6.2448    0.6249 H         1 <0>         0.0756
     36 H11         1.8626    4.7677   -0.2717 H         1 <0>         0.1140
     37 H12         0.5937    5.7099    0.5471 H         1 <0>         0.1001
     38 H13         2.4581    4.4636    4.4900 H         1 <0>         0.1139
     39 H14         0.8445    4.9526    5.0604 H         1 <0>         0.1119
     40 H15         1.0412    3.4486    4.1289 H         1 <0>         0.1102
     41 H16         1.4062    7.1531    2.2196 H         1 <0>         0.1141
     42 H17         1.1409    7.0777    3.9781 H         1 <0>         0.1151
     43 H18         2.7187    6.6164    3.2955 H         1 <0>         0.1184
     44 H19        -1.7982    5.5047    1.0564 H         1 <0>         0.1348
     45 H20        -2.0288    6.9575   -0.9183 H         1 <0>         0.1287
     46 H21        -0.7770    6.4459   -2.9760 H         1 <0>         0.1295
     47 H22         0.7126    4.4868   -3.0560 H         1 <0>         0.1313
     48 H23         0.9504    3.0394   -1.0783 H         1 <0>         0.1364
     49 H24        -1.9035    2.0682    3.0773 H         1 <0>         0.1415
     50 H25        -3.1031    3.0670    4.9817 H         1 <0>         0.1466
     51 H26        -2.8834    5.4746    5.4493 H         1 <0>         0.1481
     52 H27        -1.4568    6.8816    4.0181 H         1 <0>         0.1498
     53 H28        -0.2498    5.8810    2.1193 H         1 <0>         0.1911
     54 H29        -4.5869    0.7089   -0.6266 H         1 <0>         0.1088
     55 H30        -5.1235    0.5800    1.0657 H         1 <0>         0.1074
     56 H31        -4.8103    2.1797    0.3508 H         1 <0>         0.0939
     57 N1          1.1510    5.2177    2.9981 N.4       1 <0>        -0.4582
     58 H32         0.1413    5.2370    2.8126 H         1 <0>         0.4263
@<TRIPOS>BOND
     1    1    2 1
     2    1   28 1
     3    1   29 1
     4    1   30 1
     5    2    3 1
     6    2   31 1
     7    2   32 1
     8    3    4 1
     9    3    5 1
    10    3   24 1
    11    5    6 1
    12    5   12 1
    13    5   18 1
    14    6    7 1
    15    6   33 1
    16    6   34 1
    17    7    8 1
    18    7    9 1
    19    7   57 1
    20    9   35 1
    21    9   36 1
    22    9   37 1
    23   10   38 1
    24   10   39 1
    25   10   40 1
    26   10   57 1
    27   11   41 1
    28   11   42 1
    29   11   43 1
    30   11   57 1
    31   12   17 ar
    32   12   13 ar
    33   13   14 ar
    34   13   44 1
    35   14   15 ar
    36   14   45 1
    37   15   16 ar
    38   15   46 1
    39   16   17 ar
    40   16   47 1
    41   17   48 1
    42   18   23 ar
    43   18   19 ar
    44   19   20 ar
    45   19   49 1
    46   20   21 ar
    47   20   50 1
    48   21   22 ar
    49   21   51 1
    50   22   23 ar
    51   22   52 1
    52   23   53 1
    53   24   25 1
    54   25   26 2
    55   25   27 1
    56   27   54 1
    57   27   55 1
    58   27   56 1
    59   57   58 1
@<TRIPOS>MOLECULE
ZINC02007680
   58    59     0     0     0
SMALL
USER_CHARGES
(4-dimethylamino-1-ethyl-2,2-diphenyl-pentyl) acetate
@<TRIPOS>ATOM
      1 C1         -4.9455    1.4173   -0.3557 C.3       1 <0>        -0.1575
      2 C2         -3.5897    2.0471   -0.6816 C.3       1 <0>        -0.1566
      3 C3         -3.2497    3.1006    0.3745 C.3       1 <0>         0.0889
      4 H1         -4.0096    3.8820    0.3661 H         1 <0>         0.0932
      5 C4         -1.8836    3.7142    0.0614 C.3       1 <0>         0.0455
      6 C5         -1.8791    4.2432   -1.3743 C.3       1 <0>        -0.1350
      7 C6         -3.0819    5.1657   -1.5816 C.3       1 <0>         0.0182
      8 H2         -3.9862    4.6680   -1.2315 H         1 <0>         0.1401
      9 C7         -2.8741    6.4599   -0.7925 C.3       1 <0>        -0.2025
     10 C8         -3.5994    4.2867   -3.7776 C.3       1 <0>        -0.0511
     11 C9         -4.1788    6.5707   -3.2205 C.3       1 <0>        -0.0502
     12 C10        -0.8142    2.6633    0.2129 C.ar      1 <0>        -0.0822
     13 C11        -1.1393    1.4117    0.7016 C.ar      1 <0>        -0.1092
     14 C12        -0.1575    0.4493    0.8450 C.ar      1 <0>        -0.1178
     15 C13         1.1475    0.7350    0.4899 C.ar      1 <0>        -0.1093
     16 C14         1.4717    1.9848   -0.0038 C.ar      1 <0>        -0.1179
     17 C15         0.4909    2.9490   -0.1423 C.ar      1 <0>        -0.1152
     18 C16        -1.6118    4.8486    1.0155 C.ar      1 <0>        -0.0771
     19 C17        -2.4827    5.0970    2.0599 C.ar      1 <0>        -0.1207
     20 C18        -2.2309    6.1346    2.9380 C.ar      1 <0>        -0.1102
     21 C19        -1.1137    6.9302    2.7655 C.ar      1 <0>        -0.1110
     22 C20        -0.2456    6.6851    1.7180 C.ar      1 <0>        -0.1101
     23 C21        -0.4947    5.6443    0.8430 C.ar      1 <0>        -0.1184
     24 O1         -3.2112    2.4771    1.6853 O.3       1 <0>        -0.3322
     25 C22        -4.3596    2.4467    2.3796 C.2       1 <0>         0.4557
     26 O2         -5.3637    2.9252    1.9078 O.2       1 <0>        -0.5055
     27 C23        -4.3965    1.8157    3.7477 C.3       1 <0>        -0.1555
     28 H3         -4.8980    0.9384    0.6223 H         1 <0>         0.0548
     29 H4         -5.7125    2.1918   -0.3442 H         1 <0>         0.0655
     30 H5         -5.1920    0.6732   -1.1131 H         1 <0>         0.0641
     31 H6         -3.6346    2.5182   -1.6635 H         1 <0>         0.0710
     32 H7         -2.8213    1.2740   -0.6842 H         1 <0>         0.0946
     33 H8         -0.9592    4.7997   -1.5536 H         1 <0>         0.1036
     34 H9         -1.9389    3.4063   -2.0700 H         1 <0>         0.1001
     35 H10        -2.9879    6.2583    0.2727 H         1 <0>         0.1170
     36 H11        -1.8728    6.8456   -0.9842 H         1 <0>         0.0863
     37 H12        -3.6135    7.1979   -1.1036 H         1 <0>         0.0837
     38 H13        -4.5480    3.9020   -3.4031 H         1 <0>         0.1241
     39 H14        -3.7040    4.5498   -4.8301 H         1 <0>         0.1269
     40 H15        -2.8293    3.5230   -3.6688 H         1 <0>         0.1221
     41 H16        -3.8354    7.4632   -2.6975 H         1 <0>         0.1271
     42 H17        -4.2601    6.7828   -4.2865 H         1 <0>         0.1245
     43 H18        -5.1540    6.2753   -2.8334 H         1 <0>         0.1235
     44 H19        -2.1598    1.1871    0.9748 H         1 <0>         0.1487
     45 H20        -0.4108   -0.5273    1.2304 H         1 <0>         0.1251
     46 H21         1.9138   -0.0184    0.5977 H         1 <0>         0.1249
     47 H22         2.4913    2.2079   -0.2816 H         1 <0>         0.1245
     48 H23         0.7441    3.9253   -0.5283 H         1 <0>         0.1186
     49 H24        -3.3579    4.4782    2.1920 H         1 <0>         0.1194
     50 H25        -2.9093    6.3263    3.7561 H         1 <0>         0.1263
     51 H26        -0.9193    7.7436    3.4489 H         1 <0>         0.1275
     52 H27         0.6270    7.3069    1.5831 H         1 <0>         0.1272
     53 H28         0.1834    5.4530    0.0245 H         1 <0>         0.1234
     54 H29        -3.4047    1.4420    4.0023 H         1 <0>         0.0943
     55 H30        -4.7042    2.5594    4.4826 H         1 <0>         0.1099
     56 H31        -5.1072    0.9892    3.7475 H         1 <0>         0.1102
     57 N1         -3.1921    5.4886   -3.0198 N.4       1 <0>        -0.3942
     58 H32        -2.2768    5.8042   -3.3618 H         1 <0>         0.4289
@<TRIPOS>BOND
     1    1    2 1
     2    1   28 1
     3    1   29 1
     4    1   30 1
     5    2    3 1
     6    2   31 1
     7    2   32 1
     8    3    4 1
     9    3    5 1
    10    3   24 1
    11    5    6 1
    12    5   12 1
    13    5   18 1
    14    6    7 1
    15    6   33 1
    16    6   34 1
    17    7    8 1
    18    7    9 1
    19    7   57 1
    20    9   35 1
    21    9   36 1
    22    9   37 1
    23   10   38 1
    24   10   39 1
    25   10   40 1
    26   10   57 1
    27   11   41 1
    28   11   42 1
    29   11   43 1
    30   11   57 1
    31   12   17 ar
    32   12   13 ar
    33   13   14 ar
    34   13   44 1
    35   14   15 ar
    36   14   45 1
    37   15   16 ar
    38   15   46 1
    39   16   17 ar
    40   16   47 1
    41   17   48 1
    42   18   23 ar
    43   18   19 ar
    44   19   20 ar
    45   19   49 1
    46   20   21 ar
    47   20   50 1
    48   21   22 ar
    49   21   51 1
    50   22   23 ar
    51   22   52 1
    52   23   53 1
    53   24   25 1
    54   25   26 2
    55   25   27 1
    56   27   54 1
    57   27   55 1
    58   27   56 1
    59   57   58 1
@<TRIPOS>MOLECULE
ZINC02007682
   58    59     0     0     0
SMALL
USER_CHARGES
(4-dimethylamino-1-ethyl-2,2-diphenyl-pentyl) acetate
@<TRIPOS>ATOM
      1 C1          5.0561    3.6702   -0.8896 C.3       1 <0>        -0.1552
      2 C2          3.7278    2.9162   -0.9789 C.3       1 <0>        -0.1593
      3 C3          3.5798    1.9981    0.2361 C.3       1 <0>         0.0899
      4 H1          4.4361    1.3259    0.2899 H         1 <0>         0.0857
      5 C4          2.2952    1.1780    0.1021 C.3       1 <0>         0.0229
      6 C5          2.3173    0.4079   -1.2198 C.3       1 <0>        -0.1353
      7 C6          3.5980   -0.4250   -1.3035 C.3       1 <0>         0.0177
      8 H2          4.4611    0.2172   -1.1282 H         1 <0>         0.1356
      9 C7          3.7059   -1.0564   -2.6929 C.3       1 <0>        -0.1794
     10 C8          2.4945   -2.4527   -0.5731 C.3       1 <0>        -0.0570
     11 C9          4.8639   -2.1529   -0.1745 C.3       1 <0>        -0.0501
     12 C10         1.1047    2.1017    0.1254 C.ar      1 <0>        -0.0814
     13 C11        -0.1600    1.6058   -0.1302 C.ar      1 <0>        -0.1173
     14 C12        -1.2514    2.4542   -0.1140 C.ar      1 <0>        -0.1162
     15 C13        -1.0792    3.7966    0.1674 C.ar      1 <0>        -0.1069
     16 C14         0.1855    4.2923    0.4239 C.ar      1 <0>        -0.1161
     17 C15         1.2774    3.4449    0.4030 C.ar      1 <0>        -0.1071
     18 C16         2.1985    0.2049    1.2488 C.ar      1 <0>        -0.1163
     19 C17         1.1110   -0.6428    1.3461 C.ar      1 <0>        -0.1251
     20 C18         1.0247   -1.5387    2.3953 C.ar      1 <0>        -0.1068
     21 C19         2.0208   -1.5796    3.3529 C.ar      1 <0>        -0.1025
     22 C20         3.1058   -0.7283    3.2584 C.ar      1 <0>        -0.1093
     23 C21         3.1946    0.1640    2.2063 C.ar      1 <0>        -0.1385
     24 O1          3.5178    2.8007    1.4445 O.3       1 <0>        -0.3338
     25 C22         4.6821    3.0784    2.0520 C.2       1 <0>         0.4545
     26 O2          5.7187    2.6646    1.5893 O.2       1 <0>        -0.5043
     27 C23         4.6964    3.9064    3.3111 C.3       1 <0>        -0.1553
     28 H3          5.8790    2.9556   -0.8718 H         1 <0>         0.0631
     29 H4          5.1615    4.3243   -1.7551 H         1 <0>         0.0661
     30 H5          5.0741    4.2679    0.0218 H         1 <0>         0.0534
     31 H6          3.7098    2.3186   -1.8903 H         1 <0>         0.0842
     32 H7          2.9049    3.6308   -0.9967 H         1 <0>         0.0961
     33 H8          1.4510   -0.2517   -1.2706 H         1 <0>         0.1021
     34 H9          2.2870    1.1122   -2.0512 H         1 <0>         0.1274
     35 H10         2.8428   -1.6986   -2.8682 H         1 <0>         0.0851
     36 H11         3.7335   -0.2707   -3.4479 H         1 <0>         0.1066
     37 H12         4.6183   -1.6498   -2.7525 H         1 <0>         0.0843
     38 H13         2.6713   -2.9096   -1.5467 H         1 <0>         0.1291
     39 H14         2.4892   -3.2256    0.1955 H         1 <0>         0.1211
     40 H15         1.5318   -1.9416   -0.5810 H         1 <0>         0.1188
     41 H16         5.6236   -1.4239    0.1074 H         1 <0>         0.1182
     42 H17         4.8084   -2.9322    0.5856 H         1 <0>         0.1215
     43 H18         5.1265   -2.5990   -1.1337 H         1 <0>         0.1260
     44 H19        -0.2950    0.5565   -0.3470 H         1 <0>         0.1176
     45 H20        -2.2389    2.0676   -0.3181 H         1 <0>         0.1261
     46 H21        -1.9322    4.4587    0.1834 H         1 <0>         0.1265
     47 H22         0.3205    5.3417    0.6404 H         1 <0>         0.1266
     48 H23         2.2655    3.8322    0.6031 H         1 <0>         0.1493
     49 H24         0.3306   -0.6078    0.6003 H         1 <0>         0.1410
     50 H25         0.1769   -2.2036    2.4693 H         1 <0>         0.1406
     51 H26         1.9512   -2.2765    4.1750 H         1 <0>         0.1395
     52 H27         3.8838   -0.7600    4.0067 H         1 <0>         0.1389
     53 H28         4.0421    0.8294    2.1327 H         1 <0>         0.1315
     54 H29         4.6099    3.2511    4.1778 H         1 <0>         0.1083
     55 H30         5.6313    4.4638    3.3689 H         1 <0>         0.1093
     56 H31         3.8582    4.6031    3.2973 H         1 <0>         0.0981
     57 N1          3.5550   -1.4716   -0.2607 N.4       1 <0>        -0.4089
     58 H32         3.3473   -1.0327    0.6440 H         1 <0>         0.4193
@<TRIPOS>BOND
     1    1    2 1
     2    1   28 1
     3    1   29 1
     4    1   30 1
     5    2    3 1
     6    2   31 1
     7    2   32 1
     8    3    4 1
     9    3    5 1
    10    3   24 1
    11    5    6 1
    12    5   12 1
    13    5   18 1
    14    6    7 1
    15    6   33 1
    16    6   34 1
    17    7    8 1
    18    7    9 1
    19    7   57 1
    20    9   35 1
    21    9   36 1
    22    9   37 1
    23   10   38 1
    24   10   39 1
    25   10   40 1
    26   10   57 1
    27   11   41 1
    28   11   42 1
    29   11   43 1
    30   11   57 1
    31   12   17 ar
    32   12   13 ar
    33   13   14 ar
    34   13   44 1
    35   14   15 ar
    36   14   45 1
    37   15   16 ar
    38   15   46 1
    39   16   17 ar
    40   16   47 1
    41   17   48 1
    42   18   23 ar
    43   18   19 ar
    44   19   20 ar
    45   19   49 1
    46   20   21 ar
    47   20   50 1
    48   21   22 ar
    49   21   51 1
    50   22   23 ar
    51   22   52 1
    52   23   53 1
    53   24   25 1
    54   25   26 2
    55   25   27 1
    56   27   54 1
    57   27   55 1
    58   27   56 1
    59   57   58 1
@<TRIPOS>MOLECULE
ZINC04102215
   67    73     0     0     0
SMALL
USER_CHARGES
cyclopropylmethyl-(1-hydroxy-1-methyl-ethyl)-methoxy-BLAHol
@<TRIPOS>ATOM
      1 C1          4.8147    3.3558   -3.7256 C.3       1 <0>        -0.1825
      2 C2          4.1110    2.0584   -3.3227 C.3       1 <0>         0.1398
      3 C3          5.0338    0.8701   -3.6006 C.3       1 <0>        -0.1376
      4 C4          3.7728    2.1036   -1.8312 C.3       1 <0>        -0.0918
      5 H1          4.6803    2.3107   -1.2641 H         1 <0>         0.0965
      6 C5          2.7528    3.2207   -1.5780 C.3       1 <0>        -0.1171
      7 C6          1.4952    2.6165   -0.9739 C.3       1 <0>        -0.0644
      8 C7          0.9098    1.5865   -1.9500 C.3       1 <0>        -0.1040
      9 C8          1.9235    0.4606   -2.1808 C.3       1 <0>        -0.1586
     10 C9          3.2070    0.7456   -1.4003 C.3       1 <0>         0.1278
     11 C10         2.9012    0.7796    0.0986 C.3       1 <0>         0.0764
     12 H2          3.8088    0.9608    0.6743 H         1 <0>         0.1199
     13 C11         1.8726    1.8879    0.3382 C.3       1 <0>        -0.0466
     14 C12         2.2694    2.8303    1.4276 C.3       1 <0>        -0.1242
     15 C13         1.2487    3.9550    1.6061 C.3       1 <0>        -0.0081
     16 C14         0.4230    3.6437   -0.6278 C.3       1 <0>         0.0608
     17 H3          0.1085    4.1596   -1.5350 H         1 <0>         0.1482
     18 C15        -0.8036    3.0570    0.0762 C.3       1 <0>        -0.0929
     19 C16        -0.6531    1.6424    0.5260 C.ar      1 <0>        -0.0526
     20 C17         0.6191    1.1116    0.6169 C.ar      1 <0>        -0.1786
     21 C18         0.9426   -0.2158    0.7980 C.ar      1 <0>         0.1122
     22 C19        -0.1034   -1.0923    1.1209 C.ar      1 <0>         0.1042
     23 C20        -1.3898   -0.5569    1.1355 C.ar      1 <0>        -0.1008
     24 C21        -1.6762    0.7643    0.8258 C.ar      1 <0>        -0.1169
     25 O1          0.1266   -2.4020    1.4058 O.3       1 <0>        -0.4800
     26 O2          2.2482   -0.4247    0.5392 O.3       1 <0>        -0.2689
     27 C22         0.1607    5.7985    0.4683 C.3       1 <0>         0.0271
     28 C23         0.6803    6.6611    1.6202 C.3       1 <0>        -0.2111
     29 C24        -0.2281    6.8332    2.8393 C.3       1 <0>        -0.1678
     30 C25        -0.0172    7.9997    1.8708 C.3       1 <0>        -0.1481
     31 O3          4.1667   -0.2786   -1.6689 O.3       1 <0>        -0.3556
     32 C26         3.7369   -1.5897   -1.2971 C.3       1 <0>         0.0156
     33 O4          2.9076    1.9143   -4.0798 O.3       1 <0>        -0.5436
     34 H4          5.7326    3.4657   -3.1481 H         1 <0>         0.0698
     35 H5          5.0556    3.3236   -4.7882 H         1 <0>         0.0729
     36 H6          4.1573    4.2024   -3.5276 H         1 <0>         0.0539
     37 H7          4.4576   -0.0543   -3.5616 H         1 <0>         0.0876
     38 H8          5.4790    0.9793   -4.5895 H         1 <0>         0.0553
     39 H9          5.8223    0.8387   -2.8487 H         1 <0>         0.0733
     40 H10         3.1750    3.9503   -0.8870 H         1 <0>         0.0689
     41 H11         2.5059    3.7096   -2.5205 H         1 <0>         0.0909
     42 H12        -0.0052    1.1682   -1.5306 H         1 <0>         0.0845
     43 H13         0.6848    2.0730   -2.8991 H         1 <0>         0.0793
     44 H14         2.1543    0.3957   -3.2441 H         1 <0>         0.1226
     45 H15         1.5004   -0.4868   -1.8467 H         1 <0>         0.0690
     46 H16         3.2396    3.2651    1.1876 H         1 <0>         0.0961
     47 H17         2.3507    2.2722    2.3604 H         1 <0>         0.1157
     48 H18         1.6287    4.6800    2.3260 H         1 <0>         0.1397
     49 H19         0.3090    3.5394    1.9700 H         1 <0>         0.1364
     50 H20        -1.0140    3.6580    0.9609 H         1 <0>         0.0999
     51 H21        -1.6562    3.1289   -0.5990 H         1 <0>         0.1183
     52 H22        -2.2097   -1.2072    1.4025 H         1 <0>         0.1407
     53 H23        -2.7005    1.1067    0.8187 H         1 <0>         0.1367
     54 H24         0.2874   -2.5783    2.3429 H         1 <0>         0.3974
     55 H25         0.1692    6.3801   -0.4536 H         1 <0>         0.1342
     56 H26        -0.8578    5.4771    0.6858 H         1 <0>         0.1305
     57 H27         1.7549    6.6129    1.7961 H         1 <0>         0.1245
     58 H28        -1.1958    6.3319    2.8207 H         1 <0>         0.1056
     59 H29         0.2490    6.8986    3.8172 H         1 <0>         0.1102
     60 H30         0.5985    8.8319    2.2119 H         1 <0>         0.1125
     61 H31        -0.8459    8.2659    1.2147 H         1 <0>         0.1079
     62 H32         4.5207   -2.3095   -1.5330 H         1 <0>         0.0888
     63 H33         3.5307   -1.6147   -0.2271 H         1 <0>         0.0644
     64 H34         2.8314   -1.8450   -1.8477 H         1 <0>         0.0457
     65 H35         2.2743    2.6338   -3.9525 H         1 <0>         0.3630
     66 N1          1.0397    4.6104    0.3036 N.4       1 <0>        -0.3972
     67 H36         1.9455    4.9130   -0.0734 H         1 <0>         0.4243
@<TRIPOS>BOND
     1    1    2 1
     2    1   34 1
     3    1   35 1
     4    1   36 1
     5    2    3 1
     6    2    4 1
     7    2   33 1
     8    3   37 1
     9    3   38 1
    10    3   39 1
    11    4    5 1
    12    4   10 1
    13    4    6 1
    14    6    7 1
    15    6   40 1
    16    6   41 1
    17    7   13 1
    18    7   16 1
    19    7    8 1
    20    8    9 1
    21    8   42 1
    22    8   43 1
    23    9   10 1
    24    9   44 1
    25    9   45 1
    26   10   11 1
    27   10   31 1
    28   11   12 1
    29   11   26 1
    30   11   13 1
    31   13   20 1
    32   13   14 1
    33   14   15 1
    34   14   46 1
    35   14   47 1
    36   15   48 1
    37   15   49 1
    38   15   66 1
    39   16   17 1
    40   16   18 1
    41   16   66 1
    42   18   19 1
    43   18   50 1
    44   18   51 1
    45   19   24 ar
    46   19   20 ar
    47   20   21 ar
    48   21   22 ar
    49   21   26 1
    50   22   23 ar
    51   22   25 1
    52   23   24 ar
    53   23   52 1
    54   24   53 1
    55   25   54 1
    56   27   28 1
    57   27   55 1
    58   27   56 1
    59   27   66 1
    60   28   30 1
    61   28   29 1
    62   28   57 1
    63   29   30 1
    64   29   58 1
    65   29   59 1
    66   30   60 1
    67   30   61 1
    68   31   32 1
    69   32   62 1
    70   32   63 1
    71   32   64 1
    72   33   65 1
    73   66   67 1
@<TRIPOS>MOLECULE
ZINC04216763
   63    65     0     0     0
SMALL
USER_CHARGES
methyl 3-methyl-1-phenethyl-4-(phenyl-propanoyl-amino)-piperidine-4-carboxylate
@<TRIPOS>ATOM
      1 C1         -3.1088    8.4880    1.6261 C.3       1 <0>        -0.1524
      2 C2         -2.2275    7.2569    1.4059 C.3       1 <0>        -0.1602
      3 C3         -3.0918    6.0812    1.0294 C.2       1 <0>         0.4738
      4 O1         -4.0711    6.2467    0.3332 O.2       1 <0>        -0.4587
      5 N1         -2.7766    4.8458    1.4662 N.am      1 <0>        -0.5351
      6 C4         -1.4790    4.5713    1.9122 C.ar      1 <0>         0.1321
      7 C5         -1.1895    3.3464    2.4991 C.ar      1 <0>        -0.1089
      8 C6          0.0913    3.0802    2.9422 C.ar      1 <0>        -0.0965
      9 C7          1.0871    4.0279    2.7928 C.ar      1 <0>        -0.1220
     10 C8          0.8032    5.2466    2.2041 C.ar      1 <0>        -0.0900
     11 C9         -0.4766    5.5208    1.7633 C.ar      1 <0>        -0.1850
     12 C10        -3.7925    3.7903    1.4742 C.3       1 <0>         0.1725
     13 C11        -4.1659    3.4503    2.9197 C.3       1 <0>        -0.1652
     14 C12        -4.7733    4.6855    3.5886 C.3       1 <0>         0.0034
     15 C13        -5.6234    5.4878    1.4659 C.3       1 <0>        -0.0613
     16 C14        -5.0414    4.2765    0.7337 C.3       1 <0>        -0.0844
     17 H1         -5.7823    3.4775    0.7060 H         1 <0>         0.1090
     18 C15        -4.6654    4.6754   -0.6948 C.3       1 <0>        -0.1032
     19 C16        -6.6536    6.2093    3.5344 C.3       1 <0>         0.0029
     20 C17        -7.2170    5.7021    4.8634 C.3       1 <0>        -0.1011
     21 C18        -7.9234    6.8289    5.5722 C.ar      1 <0>        -0.1071
     22 C19        -7.2260    7.6392    6.4486 C.ar      1 <0>        -0.1102
     23 C20        -7.8727    8.6761    7.0947 C.ar      1 <0>        -0.1141
     24 C21        -9.2195    8.8956    6.8732 C.ar      1 <0>        -0.1046
     25 C22        -9.9180    8.0820    6.0009 C.ar      1 <0>        -0.1136
     26 C23        -9.2700    7.0487    5.3504 C.ar      1 <0>        -0.1097
     27 C24        -3.2476    2.5617    0.7925 C.2       1 <0>         0.4498
     28 O2         -3.9972    1.8041    0.2231 O.2       1 <0>        -0.4736
     29 O3         -1.9296    2.3090    0.8178 O.3       1 <0>        -0.3221
     30 C25        -1.4756    1.1076    0.1403 C.3       1 <0>         0.0141
     31 H2         -2.4837    9.3383    1.8985 H         1 <0>         0.0803
     32 H3         -3.6515    8.7151    0.7085 H         1 <0>         0.0738
     33 H4         -3.8191    8.2876    2.4282 H         1 <0>         0.0519
     34 H5         -1.6848    7.0297    2.3235 H         1 <0>         0.1142
     35 H6         -1.5172    7.4573    0.6038 H         1 <0>         0.1217
     36 H7         -1.9658    2.6041    2.6120 H         1 <0>         0.1325
     37 H8          0.3163    2.1291    3.4017 H         1 <0>         0.1301
     38 H9          2.0888    3.8158    3.1364 H         1 <0>         0.1290
     39 H10         1.5832    5.9846    2.0886 H         1 <0>         0.1327
     40 H11        -0.6977    6.4727    1.3036 H         1 <0>         0.1603
     41 H12        -4.8929    2.6382    2.9264 H         1 <0>         0.1154
     42 H13        -3.2724    3.1440    3.4639 H         1 <0>         0.1331
     43 H14        -5.0533    4.4426    4.6136 H         1 <0>         0.1405
     44 H15        -4.0409    5.4928    3.5937 H         1 <0>         0.1293
     45 H16        -6.5210    5.8277    0.9492 H         1 <0>         0.1311
     46 H17        -4.8871    6.2913    1.4812 H         1 <0>         0.2060
     47 H18        -4.8584    3.8401   -1.3679 H         1 <0>         0.0436
     48 H19        -5.2623    5.5344   -1.0012 H         1 <0>         0.0844
     49 H20        -3.6077    4.9358   -0.7328 H         1 <0>         0.0666
     50 H21        -5.9480    7.0183    3.7240 H         1 <0>         0.1298
     51 H22        -7.4685    6.5766    2.9108 H         1 <0>         0.1312
     52 H23        -7.9225    4.8932    4.6739 H         1 <0>         0.0945
     53 H24        -6.4020    5.3348    5.4871 H         1 <0>         0.0931
     54 H25        -6.1749    7.4648    6.6253 H         1 <0>         0.1231
     55 H26        -7.3269    9.3120    7.7760 H         1 <0>         0.1291
     56 H27        -9.7258    9.7029    7.3815 H         1 <0>         0.1294
     57 H28       -10.9702    8.2535    5.8278 H         1 <0>         0.1292
     58 H29        -9.8159    6.4129    4.6691 H         1 <0>         0.1239
     59 H30        -0.3932    1.0231    0.2369 H         1 <0>         0.1090
     60 H31        -1.9497    0.2354    0.5905 H         1 <0>         0.0698
     61 H32        -1.7431    1.1624   -0.9149 H         1 <0>         0.0678
     62 N2         -5.9845    5.0881    2.8428 N.4       1 <0>        -0.4026
     63 H33        -6.6295    4.2904    2.7997 H         1 <0>         0.4177
@<TRIPOS>BOND
     1    1    2 1
     2    1   31 1
     3    1   32 1
     4    1   33 1
     5    2    3 1
     6    2   34 1
     7    2   35 1
     8    3    4 2
     9    3    5 am
    10    5    6 1
    11    5   12 1
    12    6   11 ar
    13    6    7 ar
    14    7    8 ar
    15    7   36 1
    16    8    9 ar
    17    8   37 1
    18    9   10 ar
    19    9   38 1
    20   10   11 ar
    21   10   39 1
    22   11   40 1
    23   12   16 1
    24   12   13 1
    25   12   27 1
    26   13   14 1
    27   13   41 1
    28   13   42 1
    29   14   43 1
    30   14   44 1
    31   14   62 1
    32   15   16 1
    33   15   45 1
    34   15   46 1
    35   15   62 1
    36   16   17 1
    37   16   18 1
    38   18   47 1
    39   18   48 1
    40   18   49 1
    41   19   20 1
    42   19   50 1
    43   19   51 1
    44   19   62 1
    45   20   21 1
    46   20   52 1
    47   20   53 1
    48   21   26 ar
    49   21   22 ar
    50   22   23 ar
    51   22   54 1
    52   23   24 ar
    53   23   55 1
    54   24   25 ar
    55   24   56 1
    56   25   26 ar
    57   25   57 1
    58   26   58 1
    59   27   28 2
    60   27   29 1
    61   29   30 1
    62   30   59 1
    63   30   60 1
    64   30   61 1
    65   62   63 1
@<TRIPOS>MOLECULE
ZINC00056526
   36    37     0     0     0
SMALL
USER_CHARGES

@<TRIPOS>ATOM
      1 C1          2.5037    1.7126    3.2140 C.3       1 <0>        -0.1237
      2 C2          1.1585    2.2578    2.8086 C.ar      1 <0>        -0.0710
      3 C3          0.9379    3.6213    2.8044 C.ar      1 <0>        -0.1067
      4 C4         -0.2961    4.1223    2.4330 C.ar      1 <0>        -0.0798
      5 C5         -1.3133    3.2607    2.0647 C.ar      1 <0>        -0.1093
      6 C6         -1.0991    1.8965    2.0664 C.ar      1 <0>        -0.0914
      7 C7          0.1412    1.3902    2.4334 C.ar      1 <0>         0.0607
      8 N1          0.3631    0.0092    2.4310 N.pl3     1 <0>        -0.6353
      9 C8          0.4090   -0.6826    3.6204 C.cat     1 <0>         0.7405
     10 N2          0.7150   -1.9495    3.6259 N.pl3     1 <0>        -0.7671
     11 N3          0.1317   -0.0363    4.8039 N.pl3     1 <0>        -0.6291
     12 C9          0.1332   -0.7493    6.0072 C.ar      1 <0>         0.0596
     13 C10         1.1662   -0.5736    6.9191 C.ar      1 <0>        -0.0907
     14 C11         1.1645   -1.2787    8.1063 C.ar      1 <0>        -0.1071
     15 C12         0.1360   -2.1594    8.3878 C.ar      1 <0>        -0.0804
     16 C13        -0.8935   -2.3370    7.4821 C.ar      1 <0>        -0.1047
     17 C14        -0.9010   -1.6301    6.2954 C.ar      1 <0>        -0.0763
     18 C15        -2.0269   -1.8192    5.3117 C.3       1 <0>        -0.1303
     19 H1          3.1435    1.6334    2.3352 H         1 <0>         0.0869
     20 H2          2.9640    2.3834    3.9394 H         1 <0>         0.0836
     21 H3          2.3764    0.7265    3.6608 H         1 <0>         0.0530
     22 H4          1.7300    4.2968    3.0918 H         1 <0>         0.1408
     23 H5         -0.4662    5.1889    2.4309 H         1 <0>         0.1404
     24 H6         -2.2763    3.6551    1.7758 H         1 <0>         0.1415
     25 H7         -1.8940    1.2242    1.7789 H         1 <0>         0.1367
     26 H8          0.4847   -0.4610    1.5914 H         1 <0>         0.4415
     27 H9          0.6889   -2.4511    4.4558 H         1 <0>         0.4432
     28 H10        -0.0647    0.9136    4.8032 H         1 <0>         0.4406
     29 H11         1.9701    0.1134    6.6995 H         1 <0>         0.1367
     30 H12         1.9674   -1.1426    8.8157 H         1 <0>         0.1422
     31 H13         0.1371   -2.7100    9.3170 H         1 <0>         0.1410
     32 H14        -1.6949   -3.0260    7.7046 H         1 <0>         0.1415
     33 H15        -1.7760   -2.6259    4.6230 H         1 <0>         0.0747
     34 H16        -2.9407   -2.0717    5.8496 H         1 <0>         0.0884
     35 H17        -2.1784   -0.8967    4.7512 H         1 <0>         0.0670
     36 H18         0.9688   -2.3908    2.8003 H         1 <0>         0.4426
@<TRIPOS>BOND
     1    1    2 1
     2    1   19 1
     3    1   20 1
     4    1   21 1
     5    2    7 ar
     6    2    3 ar
     7    3    4 ar
     8    3   22 1
     9    4    5 ar
    10    4   23 1
    11    5    6 ar
    12    5   24 1
    13    6    7 ar
    14    6   25 1
    15    7    8 1
    16    8    9 1
    17    8   26 1
    18    9   10 2
    19    9   11 1
    20   10   27 1
    21   10   36 1
    22   11   12 1
    23   11   28 1
    24   12   17 ar
    25   12   13 ar
    26   13   14 ar
    27   13   29 1
    28   14   15 ar
    29   14   30 1
    30   15   16 ar
    31   15   31 1
    32   16   17 ar
    33   16   32 1
    34   17   18 1
    35   18   33 1
    36   18   34 1
    37   18   35 1
@<TRIPOS>MOLECULE
ZINC05561290
   64    69     0     0     0
SMALL
USER_CHARGES
(1-hydroxy-1-methyl-butyl)-methoxy-methyl-BLAHol
@<TRIPOS>ATOM
      1 C1         -1.8728   -0.2831   -1.2025 C.3       1 <0>        -0.1541
      2 C2         -0.6848    0.6793   -1.2582 C.3       1 <0>        -0.1239
      3 C3          0.0983    0.5993    0.0538 C.3       1 <0>        -0.1541
      4 C4          1.2864    1.5618   -0.0018 C.3       1 <0>         0.1447
      5 C5          2.1134    1.2790   -1.2576 C.3       1 <0>        -0.1484
      6 C6          2.1599    1.3660    1.2390 C.3       1 <0>        -0.0878
      7 H1          2.4452    0.3170    1.3175 H         1 <0>         0.0972
      8 C7          3.4237    2.2284    1.1121 C.3       1 <0>        -0.1123
      9 C8          3.4807    3.1961    2.2845 C.3       1 <0>        -0.0357
     10 C9          2.1982    4.0134    2.2942 C.2       1 <0>        -0.1301
     11 C10         1.1012    3.2642    2.4075 C.2       1 <0>        -0.1567
     12 C11         1.3632    1.7683    2.4908 C.3       1 <0>         0.1410
     13 C12         2.2435    1.5017    3.7211 C.3       1 <0>         0.0813
     14 H2          2.5135    0.4485    3.7978 H         1 <0>         0.1268
     15 C13         3.4897    2.3807    3.5902 C.3       1 <0>        -0.0503
     16 C14         4.7776    1.6202    3.7697 C.3       1 <0>        -0.1227
     17 C15         5.9891    2.5376    3.5870 C.3       1 <0>        -0.0073
     18 C16         4.6958    4.1035    2.2915 C.3       1 <0>         0.0694
     19 H3          4.6973    4.7136    1.3882 H         1 <0>         0.1496
     20 C17         4.8114    5.0106    3.5172 C.3       1 <0>        -0.0920
     21 C18         3.8736    4.6793    4.6284 C.ar      1 <0>        -0.0484
     22 C19         3.2489    3.4471    4.6166 C.ar      1 <0>        -0.1771
     23 C20         2.1629    3.0874    5.3910 C.ar      1 <0>         0.1137
     24 C21         1.8394    3.9224    6.4701 C.ar      1 <0>         0.1018
     25 C22         2.5576    5.1103    6.5859 C.ar      1 <0>        -0.0988
     26 C23         3.5306    5.5060    5.6806 C.ar      1 <0>        -0.1176
     27 O1          0.8695    3.5877    7.3627 O.3       1 <0>        -0.4810
     28 O2          1.5991    1.9577    4.9246 O.3       1 <0>        -0.2691
     29 C24         7.1136    4.0140    2.0286 C.3       1 <0>        -0.0474
     30 O3          0.1420    1.0307    2.5727 O.3       1 <0>        -0.3502
     31 C25        -0.6552    1.3514    3.7145 C.3       1 <0>         0.0146
     32 O4          0.8077    2.9077   -0.0399 O.3       1 <0>        -0.5497
     33 H4         -1.5097   -1.3006   -1.0576 H         1 <0>         0.0530
     34 H5         -2.5245   -0.0084   -0.3731 H         1 <0>         0.0534
     35 H6         -2.4307   -0.2261   -2.1372 H         1 <0>         0.0550
     36 H7         -1.0479    1.6968   -1.4031 H         1 <0>         0.0635
     37 H8         -0.0331    0.4046   -2.0876 H         1 <0>         0.0618
     38 H9          0.4615   -0.4182    0.1987 H         1 <0>         0.0685
     39 H10        -0.5533    0.8741    0.8832 H         1 <0>         0.1007
     40 H11         2.9775    1.9430   -1.2807 H         1 <0>         0.0589
     41 H12         2.4517    0.2429   -1.2441 H         1 <0>         0.0705
     42 H13         1.5003    1.4495   -2.1425 H         1 <0>         0.0753
     43 H14         4.3054    1.5877    1.1245 H         1 <0>         0.0664
     44 H15         3.3917    2.7872    0.1767 H         1 <0>         0.1068
     45 H16         2.1782    5.0905    2.2173 H         1 <0>         0.1389
     46 H17         0.1072    3.6854    2.4380 H         1 <0>         0.1380
     47 H18         4.8025    1.1901    4.7710 H         1 <0>         0.1173
     48 H19         4.8237    0.8164    3.0350 H         1 <0>         0.0982
     49 H20         6.9018    1.9423    3.6146 H         1 <0>         0.1375
     50 H21         6.0122    3.2718    4.3923 H         1 <0>         0.1357
     51 H22         4.6259    6.0381    3.2044 H         1 <0>         0.1187
     52 H23         5.8312    4.9487    3.8969 H         1 <0>         0.1007
     53 H24         2.3451    5.7572    7.4241 H         1 <0>         0.1406
     54 H25         4.0209    6.4610    5.7984 H         1 <0>         0.1366
     55 H26         1.1904    3.0790    8.1199 H         1 <0>         0.3971
     56 H27         7.2319    4.7750    2.8000 H         1 <0>         0.1241
     57 H28         7.9794    3.3519    2.0356 H         1 <0>         0.1266
     58 H29         7.0316    4.4946    1.0537 H         1 <0>         0.1267
     59 H30        -0.9191    2.4087    3.6880 H         1 <0>         0.0452
     60 H31        -1.5640    0.7497    3.7037 H         1 <0>         0.0918
     61 H32        -0.0906    1.1406    4.6227 H         1 <0>         0.0692
     62 H33         0.0862    3.0861    0.5788 H         1 <0>         0.3749
     63 N1          5.8894    3.2182    2.2849 N.4       1 <0>        -0.4038
     64 H34         5.7858    2.5158    1.5432 H         1 <0>         0.4271
@<TRIPOS>BOND
     1    1    2 1
     2    1   33 1
     3    1   34 1
     4    1   35 1
     5    2    3 1
     6    2   36 1
     7    2   37 1
     8    3    4 1
     9    3   38 1
    10    3   39 1
    11    4    5 1
    12    4    6 1
    13    4   32 1
    14    5   40 1
    15    5   41 1
    16    5   42 1
    17    6    7 1
    18    6   12 1
    19    6    8 1
    20    8    9 1
    21    8   43 1
    22    8   44 1
    23    9   15 1
    24    9   18 1
    25    9   10 1
    26   10   11 2
    27   10   45 1
    28   11   12 1
    29   11   46 1
    30   12   13 1
    31   12   30 1
    32   13   14 1
    33   13   28 1
    34   13   15 1
    35   15   22 1
    36   15   16 1
    37   16   17 1
    38   16   47 1
    39   16   48 1
    40   17   49 1
    41   17   50 1
    42   17   63 1
    43   18   19 1
    44   18   20 1
    45   18   63 1
    46   20   21 1
    47   20   51 1
    48   20   52 1
    49   21   26 ar
    50   21   22 ar
    51   22   23 ar
    52   23   24 ar
    53   23   28 1
    54   24   25 ar
    55   24   27 1
    56   25   26 ar
    57   25   53 1
    58   26   54 1
    59   27   55 1
    60   29   56 1
    61   29   57 1
    62   29   58 1
    63   29   63 1
    64   30   31 1
    65   31   59 1
    66   31   60 1
    67   31   61 1
    68   32   62 1
    69   63   64 1
@<TRIPOS>MOLECULE
ZINC04215196
   60    62     0     0     0
SMALL
USER_CHARGES
methyl 1-phenethyl-4-(phenyl-propanoyl-amino)-piperidine-4-carboxylate
@<TRIPOS>ATOM
      1 C1          2.1074   -3.0605    2.2980 C.3       1 <0>        -0.1434
      2 C2          2.1109   -2.2022    1.0314 C.3       1 <0>        -0.1389
      3 C3          3.4150   -1.4529    0.9360 C.2       1 <0>         0.5226
      4 O1          4.2964   -1.6647    1.7419 O.2       1 <0>        -0.5046
      5 N1          3.6019   -0.5476   -0.0447 N.am      1 <0>        -0.5682
      6 C4          2.5467   -0.2174   -0.9023 C.ar      1 <0>         0.1148
      7 C5          2.0167   -1.1769   -1.7549 C.ar      1 <0>        -0.1448
      8 C6          0.9749   -0.8479   -2.5999 C.ar      1 <0>        -0.0980
      9 C7          0.4600    0.4354   -2.5979 C.ar      1 <0>        -0.1055
     10 C8          0.9856    1.3932   -1.7502 C.ar      1 <0>        -0.0939
     11 C9          2.0271    1.0704   -0.9024 C.ar      1 <0>        -0.1190
     12 C10         4.9097    0.0908   -0.2128 C.3       1 <0>         0.1859
     13 C11         4.9230    0.8946   -1.5160 C.3       1 <0>        -0.1516
     14 C12         4.7150   -0.0577   -2.6976 C.3       1 <0>        -0.0235
     15 C13         5.7598   -1.8797   -1.4888 C.3       1 <0>         0.0051
     16 C14         5.9995   -0.9831   -0.2720 C.3       1 <0>        -0.1564
     17 C15         5.6944   -1.9110   -3.9086 C.3       1 <0>        -0.0013
     18 C16         5.9705   -1.0638   -5.1524 C.3       1 <0>        -0.1005
     19 C17         5.8796   -1.9313   -6.3813 C.ar      1 <0>        -0.1078
     20 C18         7.0066   -2.5737   -6.8588 C.ar      1 <0>        -0.1096
     21 C19         6.9222   -3.3733   -7.9833 C.ar      1 <0>        -0.1136
     22 C20         5.7129   -3.5223   -8.6361 C.ar      1 <0>        -0.1041
     23 C21         4.5871   -2.8753   -8.1620 C.ar      1 <0>        -0.1141
     24 C22         4.6704   -2.0800   -7.0344 C.ar      1 <0>        -0.1097
     25 C23         5.1734    1.0124    0.9500 C.2       1 <0>         0.4618
     26 O2          6.2934    1.1259    1.3890 O.2       1 <0>        -0.4813
     27 O3          4.1642    1.7073    1.4980 O.3       1 <0>        -0.3490
     28 C24         4.4916    2.5755    2.6148 C.3       1 <0>         0.0336
     29 H1          1.1641   -3.6024    2.3670 H         1 <0>         0.0705
     30 H2          2.9327   -3.7714    2.2575 H         1 <0>         0.0649
     31 H3          2.2227   -2.4192    3.1718 H         1 <0>         0.0639
     32 H4          1.2856   -1.4913    1.0720 H         1 <0>         0.0999
     33 H5          1.9956   -2.8434    0.1576 H         1 <0>         0.0990
     34 H6          2.4189   -2.1792   -1.7574 H         1 <0>         0.1274
     35 H7          0.5622   -1.5937   -3.2632 H         1 <0>         0.1362
     36 H8         -0.3515    0.6915   -3.2630 H         1 <0>         0.1350
     37 H9          0.5815    2.3947   -1.7513 H         1 <0>         0.1368
     38 H10         2.4369    1.8188   -0.2403 H         1 <0>         0.1392
     39 H11         4.1215    1.6330   -1.4964 H         1 <0>         0.1319
     40 H12         5.8825    1.4008   -1.6215 H         1 <0>         0.1148
     41 H13         4.7386    0.5086   -3.6286 H         1 <0>         0.1407
     42 H14         3.7493   -0.5533   -2.5983 H         1 <0>         0.1496
     43 H15         6.5422   -2.6367   -1.5419 H         1 <0>         0.1417
     44 H16         4.7891   -2.3667   -1.3955 H         1 <0>         0.1274
     45 H17         6.9759   -0.5064   -0.3580 H         1 <0>         0.1164
     46 H18         5.9671   -1.5849    0.6362 H         1 <0>         0.1468
     47 H19         6.4312   -2.7117   -3.8435 H         1 <0>         0.1337
     48 H20         4.6953   -2.3413   -3.9765 H         1 <0>         0.1325
     49 H21         5.2338   -0.2631   -5.2175 H         1 <0>         0.0942
     50 H22         6.9697   -0.6336   -5.0844 H         1 <0>         0.0957
     51 H23         7.9523   -2.4540   -6.3511 H         1 <0>         0.1242
     52 H24         7.8019   -3.8785   -8.3539 H         1 <0>         0.1293
     53 H25         5.6477   -4.1440   -9.5168 H         1 <0>         0.1294
     54 H26         3.6423   -2.9915   -8.6722 H         1 <0>         0.1291
     55 H27         3.7908   -1.5745   -6.6640 H         1 <0>         0.1234
     56 H28         5.2201    3.3203    2.2946 H         1 <0>         0.0693
     57 H29         3.5882    3.0767    2.9624 H         1 <0>         0.1100
     58 H30         4.9122    1.9811    3.4259 H         1 <0>         0.0695
     59 N2          5.8095   -1.0513   -2.7125 N.4       1 <0>        -0.3947
     60 H31         6.7084   -0.5561   -2.7431 H         1 <0>         0.4273
@<TRIPOS>BOND
     1    1    2 1
     2    1   29 1
     3    1   30 1
     4    1   31 1
     5    2    3 1
     6    2   32 1
     7    2   33 1
     8    3    4 2
     9    3    5 am
    10    5    6 1
    11    5   12 1
    12    6   11 ar
    13    6    7 ar
    14    7    8 ar
    15    7   34 1
    16    8    9 ar
    17    8   35 1
    18    9   10 ar
    19    9   36 1
    20   10   11 ar
    21   10   37 1
    22   11   38 1
    23   12   16 1
    24   12   13 1
    25   12   25 1
    26   13   14 1
    27   13   39 1
    28   13   40 1
    29   14   41 1
    30   14   42 1
    31   14   59 1
    32   15   16 1
    33   15   43 1
    34   15   44 1
    35   15   59 1
    36   16   45 1
    37   16   46 1
    38   17   18 1
    39   17   47 1
    40   17   48 1
    41   17   59 1
    42   18   19 1
    43   18   49 1
    44   18   50 1
    45   19   24 ar
    46   19   20 ar
    47   20   21 ar
    48   20   51 1
    49   21   22 ar
    50   21   52 1
    51   22   23 ar
    52   22   53 1
    53   23   24 ar
    54   23   54 1
    55   24   55 1
    56   25   26 2
    57   25   27 1
    58   27   28 1
    59   28   56 1
    60   28   57 1
    61   28   58 1
    62   59   60 1
@<TRIPOS>MOLECULE
ZINC05768354
   61    63     0     0     0
SMALL
USER_CHARGES
[1-[4-(4-fluorophenyl)-4-oxo-butyl]-3-methyl-4-phenyl-4-piperidyl] propanoate
@<TRIPOS>ATOM
      1 C1         10.7193   -2.9519   -6.0945 C.3       1 <0>        -0.1472
      2 C2         11.0260   -1.9110   -5.0159 C.3       1 <0>        -0.1174
      3 C3         10.7875   -2.5126   -3.6550 C.2       1 <0>         0.4550
      4 O1         10.4108   -3.6565   -3.5577 O.2       1 <0>        -0.4773
      5 O2         10.9935   -1.7776   -2.5508 O.3       1 <0>        -0.3501
      6 C4         10.7467   -2.4230   -1.2738 C.3       1 <0>         0.1692
      7 C5          9.2761   -2.8407   -1.1873 C.3       1 <0>        -0.1766
      8 C6          8.3917   -1.5937   -1.2567 C.3       1 <0>        -0.0084
      9 C7         10.1230   -0.2388   -0.2374 C.3       1 <0>         0.0005
     10 C8         11.0591   -1.4454   -0.1375 C.3       1 <0>        -0.0921
     11 H1         10.9111   -1.9424    0.8212 H         1 <0>         0.1129
     12 C9         12.5110   -0.9763   -0.2509 C.3       1 <0>        -0.1500
     13 C10         7.8068    0.4520   -0.1019 C.3       1 <0>        -0.0046
     14 C11         6.3689   -0.0459   -0.2612 C.3       1 <0>        -0.1477
     15 C12         5.4087    1.1444   -0.2125 C.3       1 <0>        -0.1546
     16 C13         3.9924    0.6540   -0.3694 C.2       1 <0>         0.4028
     17 O3          3.7726   -0.5307   -0.5067 O.2       1 <0>        -0.4473
     18 C14         2.8772    1.6118   -0.3560 C.ar      1 <0>        -0.1969
     19 C15         1.5608    1.1597   -0.5015 C.ar      1 <0>        -0.0256
     20 C16         0.5204    2.0624   -0.4876 C.ar      1 <0>        -0.1649
     21 C17         0.7753    3.4169   -0.3304 C.ar      1 <0>         0.1442
     22 C18         2.0778    3.8716   -0.1857 C.ar      1 <0>        -0.1668
     23 C19         3.1273    2.9795   -0.1973 C.ar      1 <0>        -0.0431
     24 F1         -0.2491    4.2976   -0.3237 F         1 <0>        -0.1256
     25 C20        11.6246   -3.6412   -1.1457 C.ar      1 <0>        -0.1073
     26 C21        11.3153   -4.6220   -0.2221 C.ar      1 <0>        -0.1098
     27 C22        12.1179   -5.7417   -0.1080 C.ar      1 <0>        -0.1109
     28 C23        13.2356   -5.8756   -0.9102 C.ar      1 <0>        -0.1044
     29 C24        13.5479   -4.8922   -1.8302 C.ar      1 <0>        -0.1095
     30 C25        12.7424   -3.7750   -1.9480 C.ar      1 <0>        -0.0992
     31 H2          9.6782   -3.2640   -6.0126 H         1 <0>         0.0652
     32 H3         10.8918   -2.5168   -7.0789 H         1 <0>         0.0762
     33 H4         11.3694   -3.8165   -5.9604 H         1 <0>         0.0672
     34 H5         10.3759   -1.0464   -5.1500 H         1 <0>         0.1055
     35 H6         12.0671   -1.5988   -5.0978 H         1 <0>         0.1088
     36 H7          9.0365   -3.5035   -2.0188 H         1 <0>         0.1374
     37 H8          9.1002   -3.3603   -0.2454 H         1 <0>         0.1064
     38 H9          7.3445   -1.8865   -1.1810 H         1 <0>         0.1407
     39 H10         8.5582   -1.0828   -2.2050 H         1 <0>         0.1307
     40 H11        10.2814    0.2658   -1.1905 H         1 <0>         0.1392
     41 H12        10.3333    0.4525    0.5787 H         1 <0>         0.1359
     42 H13        12.7313   -0.2780    0.5566 H         1 <0>         0.0726
     43 H14        13.1772   -1.8360   -0.1797 H         1 <0>         0.0798
     44 H15        12.6588   -0.4806   -1.2103 H         1 <0>         0.0761
     45 H16         8.0437    1.1433   -0.9107 H         1 <0>         0.1335
     46 H17         7.9103    0.9634    0.8551 H         1 <0>         0.1331
     47 H18         6.1320   -0.7371    0.5476 H         1 <0>         0.0960
     48 H19         6.2653   -0.5572   -1.2182 H         1 <0>         0.0968
     49 H20         5.6261    1.7786   -0.9545 H         1 <0>         0.1002
     50 H21         5.5122    1.6557    0.7445 H         1 <0>         0.1129
     51 H22         1.3611    0.1055   -0.6247 H         1 <0>         0.1460
     52 H23        -0.4960    1.7148   -0.5998 H         1 <0>         0.1479
     53 H24         2.2695    4.9274   -0.0636 H         1 <0>         0.1470
     54 H25         4.1409    3.3347   -0.0842 H         1 <0>         0.1410
     55 H26        10.4445   -4.5154    0.4078 H         1 <0>         0.1198
     56 H27        11.8742   -6.5099    0.6111 H         1 <0>         0.1290
     57 H28        13.8652   -6.7483   -0.8180 H         1 <0>         0.1292
     58 H29        14.4213   -4.9966   -2.4568 H         1 <0>         0.1280
     59 H30        12.9865   -3.0066   -2.6665 H         1 <0>         0.1175
     60 N1          8.7248   -0.7055   -0.1229 N.4       1 <0>        -0.3942
     61 H31         8.6196   -1.2304    0.7533 H         1 <0>         0.4273
@<TRIPOS>BOND
     1    1    2 1
     2    1   31 1
     3    1   32 1
     4    1   33 1
     5    2    3 1
     6    2   34 1
     7    2   35 1
     8    3    4 2
     9    3    5 1
    10    5    6 1
    11    6   10 1
    12    6    7 1
    13    6   25 1
    14    7    8 1
    15    7   36 1
    16    7   37 1
    17    8   38 1
    18    8   39 1
    19    8   60 1
    20    9   10 1
    21    9   40 1
    22    9   41 1
    23    9   60 1
    24   10   11 1
    25   10   12 1
    26   12   42 1
    27   12   43 1
    28   12   44 1
    29   13   14 1
    30   13   45 1
    31   13   46 1
    32   13   60 1
    33   14   15 1
    34   14   47 1
    35   14   48 1
    36   15   16 1
    37   15   49 1
    38   15   50 1
    39   16   17 2
    40   16   18 1
    41   18   23 ar
    42   18   19 ar
    43   19   20 ar
    44   19   51 1
    45   20   21 ar
    46   20   52 1
    47   21   22 ar
    48   21   24 1
    49   22   23 ar
    50   22   53 1
    51   23   54 1
    52   25   30 ar
    53   25   26 ar
    54   26   27 ar
    55   26   55 1
    56   27   28 ar
    57   27   56 1
    58   28   29 ar
    59   28   57 1
    60   29   30 ar
    61   29   58 1
    62   30   59 1
    63   60   61 1
@<TRIPOS>MOLECULE
ZINC05768418
   61    63     0     0     0
SMALL
USER_CHARGES
[1-[4-(4-fluorophenyl)-4-oxo-butyl]-3-methyl-4-phenyl-4-piperidyl] propanoate
@<TRIPOS>ATOM
      1 C1          8.0589   -7.5747   -2.2333 C.3       1 <0>        -0.1464
      2 C2          7.7964   -6.5992   -1.0842 C.3       1 <0>        -0.1182
      3 C3          8.9025   -5.5771   -1.0303 C.2       1 <0>         0.4563
      4 O1          9.8078   -5.6240   -1.8291 O.2       1 <0>        -0.4772
      5 O2          8.8819   -4.6145   -0.0950 O.3       1 <0>        -0.3514
      6 C4          9.9161   -3.5983   -0.1720 C.3       1 <0>         0.1698
      7 C5          9.8139   -2.8648   -1.5122 C.3       1 <0>        -0.1791
      8 C6          8.4602   -2.1562   -1.5984 C.3       1 <0>        -0.0040
      9 C7          8.3808   -1.8912    0.8090 C.3       1 <0>        -0.0029
     10 C8          9.7322   -2.5918    0.9671 C.3       1 <0>        -0.0941
     11 H1          9.7613   -3.1148    1.9230 H         1 <0>         0.1305
     12 C9         10.8548   -1.5535    0.9176 C.3       1 <0>        -0.1722
     13 C10         7.1063   -0.4062   -0.6162 C.3       1 <0>        -0.0061
     14 C11         5.8870   -1.3166   -0.4563 C.3       1 <0>        -0.1422
     15 C12         4.6092   -0.4858   -0.5900 C.3       1 <0>        -0.1549
     16 C13         3.4083   -1.3825   -0.4326 C.2       1 <0>         0.4033
     17 O3          3.5595   -2.5692   -0.2331 O.2       1 <0>        -0.4469
     18 C14         2.0534   -0.8188   -0.5207 C.ar      1 <0>        -0.1968
     19 C15         0.9361   -1.6487   -0.3750 C.ar      1 <0>        -0.0256
     20 C16        -0.3307   -1.1140   -0.4583 C.ar      1 <0>        -0.1650
     21 C17        -0.5002    0.2437   -0.6865 C.ar      1 <0>         0.1441
     22 C18         0.6031    1.0719   -0.8318 C.ar      1 <0>        -0.1668
     23 C19         1.8753    0.5501   -0.7503 C.ar      1 <0>        -0.0432
     24 F1         -1.7453    0.7608   -0.7731 F         1 <0>        -0.1257
     25 C20        11.2706   -4.2485   -0.0557 C.ar      1 <0>        -0.1071
     26 C21        11.4116   -5.4315    0.6454 C.ar      1 <0>        -0.1017
     27 C22        12.6532   -6.0304    0.7480 C.ar      1 <0>        -0.1095
     28 C23        13.7557   -5.4411    0.1579 C.ar      1 <0>        -0.1042
     29 C24        13.6158   -4.2552   -0.5385 C.ar      1 <0>        -0.1128
     30 C25        12.3732   -3.6590   -0.6455 C.ar      1 <0>        -0.1072
     31 H2          7.2589   -8.3140   -2.2722 H         1 <0>         0.0761
     32 H3          8.0931   -7.0264   -3.1747 H         1 <0>         0.0645
     33 H4          9.0118   -8.0787   -2.0715 H         1 <0>         0.0670
     34 H5          7.7622   -7.1476   -0.1427 H         1 <0>         0.1091
     35 H6          6.8435   -6.0953   -1.2459 H         1 <0>         0.1064
     36 H7          9.9015   -3.5828   -2.3276 H         1 <0>         0.1350
     37 H8         10.6150   -2.1294   -1.5872 H         1 <0>         0.1092
     38 H9          7.6598   -2.8936   -1.5379 H         1 <0>         0.1324
     39 H10         8.3903   -1.6211   -2.5455 H         1 <0>         0.1354
     40 H11         8.2530   -1.1636    1.6105 H         1 <0>         0.1364
     41 H12         7.5808   -2.6298    0.8582 H         1 <0>         0.1420
     42 H13        10.8749   -1.0869   -0.0673 H         1 <0>         0.0564
     43 H14        10.6789   -0.7917    1.6771 H         1 <0>         0.0846
     44 H15        11.8104   -2.0422    1.1077 H         1 <0>         0.0941
     45 H16         7.0809    0.0659   -1.5982 H         1 <0>         0.1321
     46 H17         7.0899    0.3620    0.1569 H         1 <0>         0.1334
     47 H18         5.9124   -1.7888    0.5257 H         1 <0>         0.0968
     48 H19         5.9034   -2.0849   -1.2294 H         1 <0>         0.0931
     49 H20         4.5860   -0.0526   -1.4910 H         1 <0>         0.0999
     50 H21         4.5928    0.2824    0.1831 H         1 <0>         0.1127
     51 H22         1.0667   -2.7061   -0.1980 H         1 <0>         0.1460
     52 H23        -1.1938   -1.7534   -0.3460 H         1 <0>         0.1478
     53 H24         0.4643    2.1282   -1.0092 H         1 <0>         0.1469
     54 H25         2.7335    1.1960   -0.8633 H         1 <0>         0.1409
     55 H26        10.5510   -5.8897    1.1099 H         1 <0>         0.1198
     56 H27        12.7626   -6.9568    1.2923 H         1 <0>         0.1279
     57 H28        14.7264   -5.9071    0.2412 H         1 <0>         0.1287
     58 H29        14.4772   -3.7946   -0.9992 H         1 <0>         0.1285
     59 H30        12.2639   -2.7325   -1.1895 H         1 <0>         0.1204
     60 N1          8.3558   -1.1844   -0.4894 N.4       1 <0>        -0.3940
     61 H31         9.1550   -0.5413   -0.5339 H         1 <0>         0.4277
@<TRIPOS>BOND
     1    1    2 1
     2    1   31 1
     3    1   32 1
     4    1   33 1
     5    2    3 1
     6    2   34 1
     7    2   35 1
     8    3    4 2
     9    3    5 1
    10    5    6 1
    11    6   10 1
    12    6    7 1
    13    6   25 1
    14    7    8 1
    15    7   36 1
    16    7   37 1
    17    8   38 1
    18    8   39 1
    19    8   60 1
    20    9   10 1
    21    9   40 1
    22    9   41 1
    23    9   60 1
    24   10   11 1
    25   10   12 1
    26   12   42 1
    27   12   43 1
    28   12   44 1
    29   13   14 1
    30   13   45 1
    31   13   46 1
    32   13   60 1
    33   14   15 1
    34   14   47 1
    35   14   48 1
    36   15   16 1
    37   15   49 1
    38   15   50 1
    39   16   17 2
    40   16   18 1
    41   18   23 ar
    42   18   19 ar
    43   19   20 ar
    44   19   51 1
    45   20   21 ar
    46   20   52 1
    47   21   22 ar
    48   21   24 1
    49   22   23 ar
    50   22   53 1
    51   23   54 1
    52   25   30 ar
    53   25   26 ar
    54   26   27 ar
    55   26   55 1
    56   27   28 ar
    57   27   56 1
    58   28   29 ar
    59   28   57 1
    60   29   30 ar
    61   29   58 1
    62   30   59 1
    63   60   61 1
@<TRIPOS>MOLECULE
ZINC04215955
   58    60     0     0     0
SMALL
USER_CHARGES
N-[2-[2-[(4-ethoxyphenyl)methyl]-5-nitro-benzoimidazol-1-yl]ethyl]-N-ethyl-ethanamine
@<TRIPOS>ATOM
      1 C1          0.5458   -0.5068   -1.9638 C.3       1 <0>        -0.1891
      2 C2          0.1697    0.3281   -0.7381 C.3       1 <0>        -0.0177
      3 C3         -2.1571    0.4046   -1.4035 C.3       1 <0>        -0.0117
      4 C4         -2.2610    1.9295   -1.4713 C.3       1 <0>        -0.1882
      5 C5         -1.3602   -1.3935    0.0089 C.3       1 <0>        -0.0345
      6 C6         -0.5485   -1.6919    1.2710 C.3       1 <0>         0.0859
      7 N1         -0.7364   -3.0938    1.6524 N.pl3     1 <0>        -0.4888
      8 C7         -0.0194   -4.1740    1.1781 C.ar      1 <0>         0.0805
      9 C8          1.0222   -4.3205    0.2720 C.ar      1 <0>        -0.1078
     10 C9          1.5296   -5.5756    0.0120 C.ar      1 <0>        -0.0432
     11 C10         1.0059   -6.6918    0.6491 C.ar      1 <0>        -0.0406
     12 C11        -0.0190   -6.5667    1.5436 C.ar      1 <0>         0.0177
     13 C12        -0.5489   -5.3043    1.8232 C.ar      1 <0>         0.0542
     14 N2         -1.5404   -4.8651    2.6404 N.2       1 <0>        -0.4541
     15 C13        -1.6459   -3.5718    2.5440 C.2       1 <0>         0.3081
     16 C14        -2.6338   -2.7270    3.3065 C.3       1 <0>         0.0037
     17 C15        -2.0741   -2.4055    4.6682 C.ar      1 <0>        -0.1447
     18 C16        -2.2455   -3.2953    5.7126 C.ar      1 <0>        -0.0492
     19 C17        -1.7285   -3.0054    6.9604 C.ar      1 <0>        -0.2039
     20 C18        -1.0462   -1.8154    7.1679 C.ar      1 <0>         0.1476
     21 C19        -0.8804   -0.9217    6.1199 C.ar      1 <0>        -0.1538
     22 C20        -1.3948   -1.2186    4.8726 C.ar      1 <0>        -0.0759
     23 O1         -0.5414   -1.5255    8.3960 O.3       1 <0>        -0.3133
     24 C21        -0.7499   -2.4919    9.4278 C.3       1 <0>         0.0526
     25 C22        -0.1158   -1.9943   10.7282 C.3       1 <0>        -0.1549
     26 N3          1.5639   -8.0313    0.3569 N.pl3     1 <0>         0.0245
     27 O2          2.4781   -8.1497   -0.4392 O.2       1 <0>        -0.1459
     28 O3          1.1090   -9.0150    0.9126 O.3       1 <0>        -0.1469
     29 H1          0.4549   -1.5661   -1.7237 H         1 <0>         0.0774
     30 H2         -0.1233   -0.2626   -2.7890 H         1 <0>         0.0843
     31 H3          1.5736   -0.2864   -2.2521 H         1 <0>         0.1109
     32 H4          0.2544    1.3875   -0.9802 H         1 <0>         0.1371
     33 H5          0.8428    0.0886    0.0851 H         1 <0>         0.1282
     34 H6         -1.8030    0.0216   -2.3606 H         1 <0>         0.1354
     35 H7         -3.1380   -0.0171   -1.1839 H         1 <0>         0.1308
     36 H8         -2.5440    2.3183   -0.4931 H         1 <0>         0.0815
     37 H9         -1.2973    2.3467   -1.7632 H         1 <0>         0.0814
     38 H10        -3.0159    2.2099   -2.2060 H         1 <0>         0.1091
     39 H11        -2.4117   -1.6147    0.1924 H         1 <0>         0.1396
     40 H12        -0.9967   -2.0120   -0.8117 H         1 <0>         0.1430
     41 H13         0.5078   -1.5069    1.0757 H         1 <0>         0.1164
     42 H14        -0.8866   -1.0463    2.0815 H         1 <0>         0.1194
     43 H15         1.4329   -3.4552   -0.2270 H         1 <0>         0.1430
     44 H16         2.3399   -5.6912   -0.6926 H         1 <0>         0.1658
     45 H17        -0.4187   -7.4420    2.0340 H         1 <0>         0.1675
     46 H18        -2.8172   -1.8012    2.7612 H         1 <0>         0.0889
     47 H19        -3.5697   -3.2743    3.4183 H         1 <0>         0.1207
     48 H20        -2.7805   -4.2195    5.5516 H         1 <0>         0.1337
     49 H21        -1.8585   -3.7030    7.7746 H         1 <0>         0.1347
     50 H22        -0.3493    0.0051    6.2788 H         1 <0>         0.1340
     51 H23        -1.2661   -0.5232    4.0564 H         1 <0>         0.1175
     52 H24        -1.8195   -2.6382    9.5779 H         1 <0>         0.0664
     53 H25        -0.2910   -3.4373    9.1382 H         1 <0>         0.0651
     54 H26        -0.2748   -2.7315   11.5153 H         1 <0>         0.0836
     55 H27         0.9539   -1.8481   10.5782 H         1 <0>         0.0679
     56 H28        -0.5747   -1.0490   11.0178 H         1 <0>         0.0687
     57 N4         -1.2188    0.0404   -0.3211 N.4       1 <0>        -0.3928
     58 H29        -1.4389    0.5977    0.5127 H         1 <0>         0.4300
@<TRIPOS>BOND
     1    1    2 1
     2    1   29 1
     3    1   30 1
     4    1   31 1
     5    2   32 1
     6    2   33 1
     7    2   57 1
     8    3    4 1
     9    3   34 1
    10    3   35 1
    11    3   57 1
    12    4   36 1
    13    4   37 1
    14    4   38 1
    15    5    6 1
    16    5   39 1
    17    5   40 1
    18    5   57 1
    19    6    7 1
    20    6   41 1
    21    6   42 1
    22    7   15 1
    23    7    8 1
    24    8   13 ar
    25    8    9 ar
    26    9   10 ar
    27    9   43 1
    28   10   11 ar
    29   10   44 1
    30   11   12 ar
    31   11   26 1
    32   12   13 ar
    33   12   45 1
    34   13   14 1
    35   14   15 2
    36   15   16 1
    37   16   17 1
    38   16   46 1
    39   16   47 1
    40   17   22 ar
    41   17   18 ar
    42   18   19 ar
    43   18   48 1
    44   19   20 ar
    45   19   49 1
    46   20   21 ar
    47   20   23 1
    48   21   22 ar
    49   21   50 1
    50   22   51 1
    51   23   24 1
    52   24   25 1
    53   24   52 1
    54   24   53 1
    55   25   54 1
    56   25   55 1
    57   25   56 1
    58   26   27 2
    59   26   28 1
    60   57   58 1
@<TRIPOS>MOLECULE
ZINC14951658
   83    87     0     0     0
SMALL
USER_CHARGES

@<TRIPOS>ATOM
      1 C1          1.6752   -1.6535    0.3359 C.ar      1 <0>        -0.1173
      2 C2          2.1139   -0.3499    0.1977 C.ar      1 <0>        -0.1140
      3 C3          3.4637   -0.0627    0.2779 C.ar      1 <0>        -0.1104
      4 C4          4.3747   -1.0790    0.4967 C.ar      1 <0>        -0.0873
      5 C5          3.9360   -2.3825    0.6357 C.ar      1 <0>        -0.1137
      6 C6          2.5863   -2.6699    0.5541 C.ar      1 <0>        -0.1156
      7 C7          5.8464   -0.7661    0.5831 C.3       1 <0>        -0.0835
      8 C8          6.2194   -0.4657    2.0362 C.3       1 <0>         0.1354
      9 H1          5.9143   -1.2988    2.6693 H         1 <0>         0.1172
     10 C9          7.7103   -0.2735    2.1426 C.2       1 <0>         0.5069
     11 O1          8.1589    0.7794    2.5439 O.2       1 <0>        -0.5273
     12 N1          8.5452   -1.2717    1.7918 N.am      1 <0>        -0.8534
     13 N2          5.5373    0.7550    2.4731 N.am      1 <0>        -0.7042
     14 C10         5.2878    0.9557    3.7823 C.2       1 <0>         0.5150
     15 O2          5.6281    0.1258    4.5987 O.2       1 <0>        -0.5262
     16 C11         4.5861    2.2114    4.2318 C.3       1 <0>         0.1403
     17 H2          3.6025    2.2648    3.7651 H         1 <0>         0.1164
     18 C12         5.4123    3.4320    3.8215 C.3       1 <0>        -0.0435
     19 C13         4.6730    4.6894    4.2004 C.2       1 <0>        -0.1735
     20 C14         3.8376    5.3909    3.4182 C.2       1 <0>         0.0636
     21 N3          3.3546    6.4724    4.1033 N.pl3     1 <0>        -0.5922
     22 H3          2.7339    7.1266    3.7460 H         1 <0>         0.4161
     23 C15         3.8809    6.4938    5.3755 C.ar      1 <0>         0.0998
     24 C16         4.7249    5.3743    5.4943 C.ar      1 <0>        -0.0875
     25 C17         5.3983    5.1338    6.6932 C.ar      1 <0>        -0.0774
     26 C18         5.2311    5.9864    7.7481 C.ar      1 <0>        -0.1413
     27 C19         4.3965    7.0897    7.6373 C.ar      1 <0>        -0.0991
     28 C20         3.7295    7.3511    6.4602 C.ar      1 <0>        -0.1246
     29 N4          4.4349    2.1914    5.6888 N.am      1 <0>        -0.6967
     30 C21         3.3398    1.6364    6.2451 C.2       1 <0>         0.5273
     31 O3          2.4384    1.2355    5.5398 O.2       1 <0>        -0.5279
     32 C22         3.2356    1.5142    7.7435 C.3       1 <0>         0.1207
     33 H4          3.7088    2.3732    8.2192 H         1 <0>         0.0930
     34 C23         3.9185    0.2122    8.2126 C.3       1 <0>        -0.1188
     35 C24         2.9823   -0.2820    9.3470 C.3       1 <0>        -0.1311
     36 C25         1.5922    0.1396    8.8089 C.3       1 <0>         0.0966
     37 N5          1.8224    1.4377    8.1418 N.am      1 <0>        -0.5962
     38 C26         0.8946    2.3925    7.9325 C.2       1 <0>         0.5002
     39 O4          1.1797    3.3867    7.2991 O.2       1 <0>        -0.5277
     40 C27        -0.4972    2.2249    8.4857 C.3       1 <0>         0.0897
     41 H5         -0.4415    1.7920    9.4845 H         1 <0>         0.1028
     42 C28        -1.3009    1.2974    7.5719 C.3       1 <0>        -0.0650
     43 C29        -2.6504    1.0315    8.1877 C.ar      1 <0>        -0.0765
     44 C30        -2.8184   -0.0393    9.0461 C.ar      1 <0>        -0.1025
     45 C31        -4.0546   -0.2855    9.6115 C.ar      1 <0>        -0.1457
     46 C32        -5.1278    0.5430    9.3176 C.ar      1 <0>         0.1001
     47 C33        -4.9565    1.6170    8.4563 C.ar      1 <0>        -0.1453
     48 C34        -3.7171    1.8620    7.8976 C.ar      1 <0>        -0.0734
     49 O5         -6.3450    0.3026    9.8722 O.3       1 <0>        -0.5017
     50 N6         -1.1573    3.5353    8.5560 N.3       1 <0>        -0.8129
     51 H6          0.6202   -1.8773    0.2777 H         1 <0>         0.1218
     52 H7          1.4020    0.4441    0.0268 H         1 <0>         0.1223
     53 H8          3.8064    0.9557    0.1692 H         1 <0>         0.1185
     54 H9          4.6478   -3.1766    0.8063 H         1 <0>         0.1221
     55 H10         2.2436   -3.6883    0.6624 H         1 <0>         0.1228
     56 H11         6.4212   -1.6222    0.2299 H         1 <0>         0.0946
     57 H12         6.0701    0.1024   -0.0365 H         1 <0>         0.0874
     58 H13         8.1864   -2.1138    1.4708 H         1 <0>         0.4011
     59 H14         9.5048   -1.1480    1.8603 H         1 <0>         0.4041
     60 H15         5.2651    1.4187    1.8202 H         1 <0>         0.4027
     61 H16         6.3745    3.4081    4.3331 H         1 <0>         0.0845
     62 H17         5.5734    3.4161    2.7436 H         1 <0>         0.0893
     63 H18         3.5844    5.1391    2.3990 H         1 <0>         0.1685
     64 H19         6.0488    4.2768    6.7868 H         1 <0>         0.1136
     65 H20         5.7523    5.7999    8.6754 H         1 <0>         0.1206
     66 H21         4.2740    7.7540    8.4800 H         1 <0>         0.1233
     67 H22         3.0813    8.2117    6.3844 H         1 <0>         0.1177
     68 H23         5.1228    2.5775    6.2532 H         1 <0>         0.4010
     69 H24         3.9595   -0.5154    7.4021 H         1 <0>         0.0861
     70 H25         4.9169    0.4178    8.5987 H         1 <0>         0.0922
     71 H26         3.0451   -1.3641    9.4618 H         1 <0>         0.0915
     72 H27         3.2070    0.2227   10.2866 H         1 <0>         0.0817
     73 H28         1.2233   -0.5956    8.0937 H         1 <0>         0.0759
     74 H29         0.8867    0.2572    9.6314 H         1 <0>         0.0827
     75 H30        -1.4323    1.7706    6.5989 H         1 <0>         0.0787
     76 H31        -0.7658    0.3558    7.4487 H         1 <0>         0.0817
     77 H32        -1.9826   -0.6840    9.2746 H         1 <0>         0.1233
     78 H33        -4.1855   -1.1225   10.2814 H         1 <0>         0.1265
     79 H34        -5.7905    2.2634    8.2260 H         1 <0>         0.1262
     80 H35        -3.5821    2.7005    7.2305 H         1 <0>         0.1249
     81 H36        -6.4868    0.7489   10.7183 H         1 <0>         0.3898
     82 H37        -0.6817    4.1455    9.2037 H         1 <0>         0.3456
     83 H38        -1.2212    3.9576    7.6419 H         1 <0>         0.3497
@<TRIPOS>BOND
     1    1    6 ar
     2    1    2 ar
     3    1   51 1
     4    2    3 ar
     5    2   52 1
     6    3    4 ar
     7    3   53 1
     8    4    5 ar
     9    4    7 1
    10    5    6 ar
    11    5   54 1
    12    6   55 1
    13    7    8 1
    14    7   56 1
    15    7   57 1
    16    8    9 1
    17    8   10 1
    18    8   13 1
    19   10   11 2
    20   10   12 am
    21   12   58 1
    22   12   59 1
    23   13   14 am
    24   13   60 1
    25   14   15 2
    26   14   16 1
    27   16   17 1
    28   16   18 1
    29   16   29 1
    30   18   19 1
    31   18   61 1
    32   18   62 1
    33   19   24 1
    34   19   20 2
    35   20   21 1
    36   20   63 1
    37   21   22 1
    38   21   23 1
    39   23   28 ar
    40   23   24 ar
    41   24   25 ar
    42   25   26 ar
    43   25   64 1
    44   26   27 ar
    45   26   65 1
    46   27   28 ar
    47   27   66 1
    48   28   67 1
    49   29   30 am
    50   29   68 1
    51   30   31 2
    52   30   32 1
    53   32   33 1
    54   32   37 1
    55   32   34 1
    56   34   35 1
    57   34   69 1
    58   34   70 1
    59   35   36 1
    60   35   71 1
    61   35   72 1
    62   36   37 1
    63   36   73 1
    64   36   74 1
    65   37   38 am
    66   38   39 2
    67   38   40 1
    68   40   41 1
    69   40   42 1
    70   40   50 1
    71   42   43 1
    72   42   75 1
    73   42   76 1
    74   43   48 ar
    75   43   44 ar
    76   44   45 ar
    77   44   77 1
    78   45   46 ar
    79   45   78 1
    80   46   47 ar
    81   46   49 1
    82   47   48 ar
    83   47   79 1
    84   48   80 1
    85   49   81 1
    86   50   82 1
    87   50   83 1
@<TRIPOS>MOLECULE
ZINC13580323
   56    60     0     0     0
SMALL
USER_CHARGES
cyclopropylmethyl-dimethoxy-BLAHone
@<TRIPOS>ATOM
      1 C1          3.6706    6.1544   -2.9214 C.3       1 <0>         0.0101
      2 O1          2.5897    5.4445   -2.3133 O.3       1 <0>        -0.2962
      3 C2          2.2092    4.2792   -2.9000 C.ar      1 <0>         0.1487
      4 C3          2.8651    3.8325   -4.0359 C.ar      1 <0>        -0.1930
      5 C4          2.4751    2.6467   -4.6272 C.ar      1 <0>        -0.0612
      6 C5          1.4325    1.9191   -4.0912 C.ar      1 <0>        -0.1492
      7 C6          0.7659    2.3652   -2.9559 C.ar      1 <0>        -0.0643
      8 C7          1.1631    3.5398   -2.3573 C.ar      1 <0>        -0.1255
      9 C8          0.4925    4.0573   -1.1111 C.3       1 <0>         0.0178
     10 C9          1.2797    3.5371    0.1018 C.3       1 <0>        -0.1301
     11 C10         1.3438    2.0089    0.0000 C.3       1 <0>        -0.0049
     12 C11        -0.8479    1.9813   -1.0690 C.3       1 <0>         0.0018
     13 H1         -1.8552    1.5877   -0.9332 H         1 <0>         0.1354
     14 C12        -0.3722    1.5283   -2.4382 C.3       1 <0>        -0.0880
     15 C13        -0.9342    3.5106   -1.0319 C.3       1 <0>         0.1189
     16 C14        -1.7422    3.9848   -2.2430 C.3       1 <0>        -0.1390
     17 C15        -1.8447    5.5125   -2.2300 C.3       1 <0>        -0.1573
     18 C16        -0.4442    6.0835   -2.1794 C.2       1 <0>         0.3617
     19 O2         -0.0812    6.9133   -2.9781 O.2       1 <0>        -0.4336
     20 C17         0.4870    5.5828   -1.0979 C.3       1 <0>        -0.1728
     21 O3         -1.5545    3.9364    0.1830 O.3       1 <0>        -0.3595
     22 C18        -2.8960    3.4713    0.3447 C.3       1 <0>         0.0066
     23 C19         0.0021   -0.0041    0.0020 C.3       1 <0>         0.0250
     24 C20         0.6072   -0.5131    1.3118 C.3       1 <0>        -0.2118
     25 C21         1.9187   -1.2964    1.2268 C.3       1 <0>        -0.1667
     26 C22         0.6112   -2.0248    1.5477 C.3       1 <0>        -0.1490
     27 H2          3.4032    6.4157   -3.9453 H         1 <0>         0.0630
     28 H3          3.8723    7.0637   -2.3553 H         1 <0>         0.1076
     29 H4          4.5607    5.5253   -2.9276 H         1 <0>         0.0610
     30 H5          3.6762    4.4082   -4.4566 H         1 <0>         0.1395
     31 H6          2.9861    2.2890   -5.5089 H         1 <0>         0.1357
     32 H7          1.1313    0.9931   -4.5584 H         1 <0>         0.1311
     33 H8          0.7717    3.8246    1.0223 H         1 <0>         0.1041
     34 H9          2.2883    3.9502    0.0917 H         1 <0>         0.1185
     35 H10         1.9009    1.6108    0.8481 H         1 <0>         0.1315
     36 H11         1.8417    1.7260   -0.9274 H         1 <0>         0.1338
     37 H12        -0.0458    0.4903   -2.3728 H         1 <0>         0.1030
     38 H13        -1.2042    1.5912   -3.1395 H         1 <0>         0.1262
     39 H14        -1.2462    3.6625   -3.1585 H         1 <0>         0.0963
     40 H15        -2.7429    3.5547   -2.2021 H         1 <0>         0.0909
     41 H16        -2.3132    5.8222   -3.0574 H         1 <0>         0.0885
     42 H17        -2.4049    5.8355   -1.3526 H         1 <0>         0.1062
     43 H18         0.1730    5.9073   -0.2056 H         1 <0>         0.0997
     44 H19         1.4952    5.9524   -1.2852 H         1 <0>         0.1503
     45 H20        -3.2958    3.8371    1.2905 H         1 <0>         0.1084
     46 H21        -3.5101    3.8407   -0.4766 H         1 <0>         0.0638
     47 H22        -2.9053    2.3813    0.3437 H         1 <0>         0.0418
     48 H23        -1.0158   -0.3807   -0.0985 H         1 <0>         0.1302
     49 H24         0.6037   -0.3547   -0.8366 H         1 <0>         0.1329
     50 H25         0.4610    0.1311    2.1789 H         1 <0>         0.1249
     51 H26         2.3505   -1.4491    0.2376 H         1 <0>         0.1056
     52 H27         2.6353   -1.1678    2.0380 H         1 <0>         0.1102
     53 H28         0.4681   -2.3751    2.5699 H         1 <0>         0.1122
     54 H29         0.1824   -2.6567    0.7698 H         1 <0>         0.1072
     55 N1         -0.0347    1.4638    0.0516 N.4       1 <0>        -0.3785
     56 H30        -0.4694    1.7548    0.9351 H         1 <0>         0.4305
@<TRIPOS>BOND
     1    1    2 1
     2    1   27 1
     3    1   28 1
     4    1   29 1
     5    2    3 1
     6    3    8 ar
     7    3    4 ar
     8    4    5 ar
     9    4   30 1
    10    5    6 ar
    11    5   31 1
    12    6    7 ar
    13    6   32 1
    14    7   14 1
    15    7    8 ar
    16    8    9 1
    17    9   15 1
    18    9   20 1
    19    9   10 1
    20   10   11 1
    21   10   33 1
    22   10   34 1
    23   11   35 1
    24   11   36 1
    25   11   55 1
    26   12   13 1
    27   12   14 1
    28   12   15 1
    29   12   55 1
    30   14   37 1
    31   14   38 1
    32   15   16 1
    33   15   21 1
    34   16   17 1
    35   16   39 1
    36   16   40 1
    37   17   18 1
    38   17   41 1
    39   17   42 1
    40   18   19 2
    41   18   20 1
    42   20   43 1
    43   20   44 1
    44   21   22 1
    45   22   45 1
    46   22   46 1
    47   22   47 1
    48   23   24 1
    49   23   48 1
    50   23   49 1
    51   23   55 1
    52   24   26 1
    53   24   25 1
    54   24   50 1
    55   25   26 1
    56   25   51 1
    57   25   52 1
    58   26   53 1
    59   26   54 1
    60   55   56 1
@<TRIPOS>MOLECULE
ZINC14951634
   79    82     0     0     0
SMALL
USER_CHARGES

@<TRIPOS>ATOM
      1 C1          1.9517   -1.5464   -0.2337 C.ar      1 <0>        -0.1169
      2 C2          2.3865   -0.2352   -0.2842 C.ar      1 <0>        -0.1137
      3 C3          3.7298    0.0539   -0.1328 C.ar      1 <0>        -0.1108
      4 C4          4.6382   -0.9682    0.0695 C.ar      1 <0>        -0.0879
      5 C5          4.2033   -2.2793    0.1209 C.ar      1 <0>        -0.1137
      6 C6          2.8602   -2.5685   -0.0319 C.ar      1 <0>        -0.1154
      7 C7          6.1028   -0.6531    0.2336 C.3       1 <0>        -0.0836
      8 C8          6.4134   -0.4287    1.7148 C.3       1 <0>         0.1354
      9 H1          6.0883   -1.2959    2.2896 H         1 <0>         0.1175
     10 C9          7.8972   -0.2352    1.8932 C.2       1 <0>         0.5074
     11 O1          8.3214    0.7970    2.3681 O.2       1 <0>        -0.5284
     12 N1          8.7529   -1.2093    1.5251 N.am      1 <0>        -0.8529
     13 N2          5.7052    0.7636    2.1871 N.am      1 <0>        -0.7039
     14 C10         5.4004    0.8931    3.4935 C.2       1 <0>         0.5162
     15 O2          5.7125    0.0226    4.2782 O.2       1 <0>        -0.5249
     16 C11         4.6719    2.1196    3.9794 C.3       1 <0>         0.1415
     17 H2          3.7081    2.1931    3.4756 H         1 <0>         0.1171
     18 C12         5.5057    3.3644    3.6691 C.3       1 <0>        -0.0819
     19 C13         4.7418    4.5963    4.0814 C.ar      1 <0>        -0.0827
     20 C14         3.8040    5.1461    3.2276 C.ar      1 <0>        -0.1123
     21 C15         3.1033    6.2760    3.6058 C.ar      1 <0>        -0.1140
     22 C16         3.3401    6.8560    4.8381 C.ar      1 <0>        -0.1172
     23 C17         4.2773    6.3057    5.6923 C.ar      1 <0>        -0.1138
     24 C18         4.9750    5.1732    5.3158 C.ar      1 <0>        -0.1107
     25 N3          4.4608    2.0213    5.4257 N.am      1 <0>        -0.7019
     26 C19         3.3749    1.3840    5.9064 C.2       1 <0>         0.5262
     27 O3          2.5258    0.9733    5.1440 O.2       1 <0>        -0.5234
     28 C20         3.2157    1.1818    7.3913 C.3       1 <0>         0.1205
     29 H3          3.6102    2.0451    7.9272 H         1 <0>         0.0932
     30 C21         3.9632   -0.0950    7.8302 C.3       1 <0>        -0.1185
     31 C22         3.0148   -0.7036    8.8968 C.3       1 <0>        -0.1312
     32 C23         1.6238   -0.3464    8.3162 C.3       1 <0>         0.0966
     33 N4          1.7951    0.9949    7.7210 N.am      1 <0>        -0.5969
     34 C24         0.8155    1.8972    7.5142 C.2       1 <0>         0.5010
     35 O4          1.0615    2.9397    6.9455 O.2       1 <0>        -0.5303
     36 C25        -0.5855    1.6105    7.9897 C.3       1 <0>         0.0897
     37 H4         -0.5463    1.1302    8.9674 H         1 <0>         0.1032
     38 C26        -1.2824    0.6822    6.9930 C.3       1 <0>        -0.0652
     39 C27        -2.6375    0.2971    7.5281 C.ar      1 <0>        -0.0769
     40 C28        -2.7719   -0.8261    8.3232 C.ar      1 <0>        -0.1026
     41 C29        -4.0131   -1.1815    8.8146 C.ar      1 <0>        -0.1458
     42 C30        -5.1252   -0.4102    8.5100 C.ar      1 <0>         0.1003
     43 C31        -4.9877    0.7165    7.7124 C.ar      1 <0>        -0.1452
     44 C32        -3.7435    1.0706    7.2278 C.ar      1 <0>        -0.0732
     45 O5         -6.3474   -0.7580    8.9919 O.3       1 <0>        -0.5017
     46 N5         -1.3350    2.8698    8.0926 N.3       1 <0>        -0.8131
     47 H5          0.9017   -1.7719   -0.3475 H         1 <0>         0.1222
     48 H6          1.6768    0.5634   -0.4423 H         1 <0>         0.1228
     49 H7          4.0696    1.0783   -0.1730 H         1 <0>         0.1183
     50 H8          4.9131   -3.0779    0.2787 H         1 <0>         0.1220
     51 H9          2.5205   -3.5929    0.0079 H         1 <0>         0.1230
     52 H10         6.6978   -1.4864   -0.1402 H         1 <0>         0.0950
     53 H11         6.3458    0.2481   -0.3292 H         1 <0>         0.0875
     54 H12         8.4136   -2.0348    1.1453 H         1 <0>         0.4014
     55 H13         9.7080   -1.0847    1.6399 H         1 <0>         0.4043
     56 H14         5.4555    1.4598    1.5595 H         1 <0>         0.4029
     57 H15         6.4456    3.3186    4.2193 H         1 <0>         0.0879
     58 H16         5.7124    3.4060    2.5997 H         1 <0>         0.0933
     59 H17         3.6190    4.6930    2.2649 H         1 <0>         0.1200
     60 H18         2.3711    6.7060    2.9384 H         1 <0>         0.1215
     61 H19         2.7932    7.7392    5.1333 H         1 <0>         0.1205
     62 H20         4.4626    6.7589    6.6549 H         1 <0>         0.1207
     63 H21         5.7045    4.7411    5.9847 H         1 <0>         0.1176
     64 H22         5.1025    2.4149    6.0374 H         1 <0>         0.4024
     65 H23         4.0868   -0.7777    6.9896 H         1 <0>         0.0868
     66 H24         4.9285    0.1553    8.2703 H         1 <0>         0.0923
     67 H25         3.1445   -1.7837    8.9641 H         1 <0>         0.0919
     68 H26         3.1655   -0.2323    9.8680 H         1 <0>         0.0818
     69 H27         1.3352   -1.0679    7.5517 H         1 <0>         0.0763
     70 H28         0.8779   -0.3151    9.1104 H         1 <0>         0.0835
     71 H29        -1.4011    1.1965    6.0393 H         1 <0>         0.0795
     72 H30        -0.6801   -0.2148    6.8495 H         1 <0>         0.0816
     73 H31        -1.9057   -1.4262    8.5600 H         1 <0>         0.1232
     74 H32        -4.1176   -2.0594    9.4350 H         1 <0>         0.1264
     75 H33        -5.8521    1.3186    7.4739 H         1 <0>         0.1265
     76 H34        -3.6352    1.9502    6.6104 H         1 <0>         0.1254
     77 H35        -6.5573   -0.3671    9.8511 H         1 <0>         0.3899
     78 H36        -0.9315    3.4746    8.7922 H         1 <0>         0.3457
     79 H37        -1.3855    3.3345    7.1984 H         1 <0>         0.3507
@<TRIPOS>BOND
     1    1    6 ar
     2    1    2 ar
     3    1   47 1
     4    2    3 ar
     5    2   48 1
     6    3    4 ar
     7    3   49 1
     8    4    5 ar
     9    4    7 1
    10    5    6 ar
    11    5   50 1
    12    6   51 1
    13    7    8 1
    14    7   52 1
    15    7   53 1
    16    8    9 1
    17    8   10 1
    18    8   13 1
    19   10   11 2
    20   10   12 am
    21   12   54 1
    22   12   55 1
    23   13   14 am
    24   13   56 1
    25   14   15 2
    26   14   16 1
    27   16   17 1
    28   16   18 1
    29   16   25 1
    30   18   19 1
    31   18   57 1
    32   18   58 1
    33   19   24 ar
    34   19   20 ar
    35   20   21 ar
    36   20   59 1
    37   21   22 ar
    38   21   60 1
    39   22   23 ar
    40   22   61 1
    41   23   24 ar
    42   23   62 1
    43   24   63 1
    44   25   26 am
    45   25   64 1
    46   26   27 2
    47   26   28 1
    48   28   29 1
    49   28   33 1
    50   28   30 1
    51   30   31 1
    52   30   65 1
    53   30   66 1
    54   31   32 1
    55   31   67 1
    56   31   68 1
    57   32   33 1
    58   32   69 1
    59   32   70 1
    60   33   34 am
    61   34   35 2
    62   34   36 1
    63   36   37 1
    64   36   38 1
    65   36   46 1
    66   38   39 1
    67   38   71 1
    68   38   72 1
    69   39   44 ar
    70   39   40 ar
    71   40   41 ar
    72   40   73 1
    73   41   42 ar
    74   41   74 1
    75   42   43 ar
    76   42   45 1
    77   43   44 ar
    78   43   75 1
    79   44   76 1
    80   45   77 1
    81   46   78 1
    82   46   79 1
@<TRIPOS>MOLECULE
ZINC01587664
   53    54     0     0     0
SMALL
USER_CHARGES
6-dimethylamino-4,4-diphenyl-heptan-3-ol
@<TRIPOS>ATOM
      1 C1          1.9642    0.6308   -1.3537 C.3       1 <0>        -0.1532
      2 C2          1.4545    1.2074   -0.0313 C.3       1 <0>        -0.1570
      3 C3         -0.0079    0.8052    0.1704 C.3       1 <0>         0.1261
      4 H1         -0.0930   -0.2812    0.1426 H         1 <0>         0.1110
      5 C4         -0.4963    1.3205    1.5257 C.3       1 <0>        -0.0096
      6 C5         -0.5106    2.8504    1.5145 C.3       1 <0>        -0.1445
      7 C6         -1.1473    3.3639    2.8075 C.3       1 <0>         0.0222
      8 H2         -0.6437    2.9151    3.6636 H         1 <0>         0.1396
      9 C7         -1.0086    4.8862    2.8747 C.3       1 <0>        -0.1820
     10 C8         -3.1599    3.2642    4.1499 C.3       1 <0>        -0.0490
     11 C9         -3.3103    3.7026    1.7735 C.3       1 <0>        -0.0581
     12 C10        -1.8889    0.8070    1.7862 C.ar      1 <0>        -0.1277
     13 C11        -2.1678    0.1299    2.9586 C.ar      1 <0>        -0.1362
     14 C12        -3.4465   -0.3370    3.1997 C.ar      1 <0>        -0.1197
     15 C13        -4.4436   -0.1358    2.2637 C.ar      1 <0>        -0.1025
     16 C14        -4.1635    0.5367    1.0890 C.ar      1 <0>        -0.1198
     17 C15        -2.8861    1.0081    0.8502 C.ar      1 <0>        -0.1209
     18 C16         0.4295    0.8348    2.6111 C.ar      1 <0>        -0.0909
     19 C17         1.2035    1.7383    3.3149 C.ar      1 <0>        -0.1321
     20 C18         2.0490    1.2932    4.3139 C.ar      1 <0>        -0.1099
     21 C19         2.1284   -0.0565    4.6018 C.ar      1 <0>        -0.1072
     22 C20         1.3583   -0.9605    3.8944 C.ar      1 <0>        -0.1086
     23 C21         0.5088   -0.5149    2.8990 C.ar      1 <0>        -0.1102
     24 O1         -0.8059    1.3723   -0.8706 O.3       1 <0>        -0.5468
     25 H3          1.8863   -0.4561   -1.3302 H         1 <0>         0.0569
     26 H4          1.3635    1.0205   -2.1755 H         1 <0>         0.0630
     27 H5          3.0060    0.9174   -1.4974 H         1 <0>         0.0599
     28 H6          1.5324    2.2944   -0.0549 H         1 <0>         0.0673
     29 H7          2.0552    0.8178    0.7905 H         1 <0>         0.0803
     30 H8          0.5111    3.2228    1.4398 H         1 <0>         0.1225
     31 H9         -1.0889    3.2021    0.6601 H         1 <0>         0.0954
     32 H10        -1.5122    5.3350    2.0185 H         1 <0>         0.0840
     33 H11        -1.4622    5.2520    3.7958 H         1 <0>         0.0828
     34 H12         0.0473    5.1559    2.8576 H         1 <0>         0.1035
     35 H13        -3.0662    4.3245    4.3843 H         1 <0>         0.1219
     36 H14        -4.2138    2.9862    4.1392 H         1 <0>         0.1181
     37 H15        -2.6370    2.6775    4.9053 H         1 <0>         0.1157
     38 H16        -2.9210    3.4066    0.7993 H         1 <0>         0.1186
     39 H17        -4.3673    3.4437    1.8363 H         1 <0>         0.1187
     40 H18        -3.1917    4.7787    1.9004 H         1 <0>         0.1258
     41 H19        -1.3877   -0.0312    3.6879 H         1 <0>         0.1495
     42 H20        -3.6653   -0.8627    4.1174 H         1 <0>         0.1406
     43 H21        -5.4415   -0.5044    2.4501 H         1 <0>         0.1397
     44 H22        -4.9424    0.6936    0.3575 H         1 <0>         0.1416
     45 H23        -2.6671    1.5333   -0.0678 H         1 <0>         0.1584
     46 H24         1.1448    2.7924    3.0870 H         1 <0>         0.1263
     47 H25         2.6510    1.9996    4.8663 H         1 <0>         0.1294
     48 H26         2.7923   -0.4046    5.3792 H         1 <0>         0.1298
     49 H27         1.4205   -2.0151    4.1191 H         1 <0>         0.1303
     50 H28        -0.0926   -1.2213    2.3461 H         1 <0>         0.1261
     51 H29        -0.7151    2.3311   -0.9578 H         1 <0>         0.3707
     52 N1         -2.5724    2.9722    2.8254 N.4       1 <0>        -0.4122
     53 H30        -2.6435    1.9641    2.6440 H         1 <0>         0.4223
@<TRIPOS>BOND
     1    1    2 1
     2    1   25 1
     3    1   26 1
     4    1   27 1
     5    2    3 1
     6    2   28 1
     7    2   29 1
     8    3    4 1
     9    3    5 1
    10    3   24 1
    11    5    6 1
    12    5   12 1
    13    5   18 1
    14    6    7 1
    15    6   30 1
    16    6   31 1
    17    7    8 1
    18    7    9 1
    19    7   52 1
    20    9   32 1
    21    9   33 1
    22    9   34 1
    23   10   35 1
    24   10   36 1
    25   10   37 1
    26   10   52 1
    27   11   38 1
    28   11   39 1
    29   11   40 1
    30   11   52 1
    31   12   17 ar
    32   12   13 ar
    33   13   14 ar
    34   13   41 1
    35   14   15 ar
    36   14   42 1
    37   15   16 ar
    38   15   43 1
    39   16   17 ar
    40   16   44 1
    41   17   45 1
    42   18   23 ar
    43   18   19 ar
    44   19   20 ar
    45   19   46 1
    46   20   21 ar
    47   20   47 1
    48   21   22 ar
    49   21   48 1
    50   22   23 ar
    51   22   49 1
    52   23   50 1
    53   24   51 1
    54   52   53 1
@<TRIPOS>MOLECULE
ZINC01587665
   53    54     0     0     0
SMALL
USER_CHARGES
6-dimethylamino-4,4-diphenyl-heptan-3-ol
@<TRIPOS>ATOM
      1 C1         -0.9972    4.2091    3.7730 C.3       1 <0>        -0.1543
      2 C2         -1.6783    3.6388    2.5274 C.3       1 <0>        -0.1705
      3 C3         -1.5209    4.6212    1.3651 C.3       1 <0>         0.1143
      4 H1         -2.0194    5.5586    1.6116 H         1 <0>         0.1014
      5 C4         -2.1504    4.0249    0.1045 C.3       1 <0>         0.0096
      6 C5         -3.5618    3.5287    0.4250 C.3       1 <0>        -0.1379
      7 C6         -4.4093    4.6961    0.9347 C.3       1 <0>         0.0244
      8 H2         -3.8399    5.2645    1.6701 H         1 <0>         0.1386
      9 C7         -4.7807    5.6066   -0.2374 C.3       1 <0>        -0.2053
     10 C8         -5.3182    3.3629    2.7400 C.3       1 <0>        -0.0518
     11 C9         -6.5538    5.2691    1.9019 C.3       1 <0>        -0.0486
     12 C10        -1.3101    2.8711   -0.3791 C.ar      1 <0>        -0.0929
     13 C11        -1.4036    1.6398    0.2422 C.ar      1 <0>        -0.1207
     14 C12        -0.6292    0.5828   -0.1983 C.ar      1 <0>        -0.1164
     15 C13         0.2308    0.7543   -1.2669 C.ar      1 <0>        -0.1073
     16 C14         0.3204    1.9842   -1.8916 C.ar      1 <0>        -0.1130
     17 C15        -0.4501    3.0426   -1.4477 C.ar      1 <0>        -0.0975
     18 C16        -2.2206    5.0799   -0.9693 C.ar      1 <0>        -0.0872
     19 C17        -2.9177    4.8324   -2.1370 C.ar      1 <0>        -0.1134
     20 C18        -2.9862    5.8020   -3.1199 C.ar      1 <0>        -0.1196
     21 C19        -2.3487    7.0153   -2.9395 C.ar      1 <0>        -0.1109
     22 C20        -1.6472    7.2609   -1.7739 C.ar      1 <0>        -0.1155
     23 C21        -1.5831    6.2932   -0.7888 C.ar      1 <0>        -0.1131
     24 O1         -0.1323    4.8667    1.1336 O.3       1 <0>        -0.5430
     25 H3          0.0446    4.4356    3.5459 H         1 <0>         0.0698
     26 H4         -1.5084    5.1211    4.0813 H         1 <0>         0.0531
     27 H5         -1.0424    3.4770    4.5793 H         1 <0>         0.0588
     28 H6         -2.7378    3.4840    2.7313 H         1 <0>         0.0601
     29 H7         -1.2163    2.6873    2.2641 H         1 <0>         0.0824
     30 H8         -4.0155    3.1167   -0.4764 H         1 <0>         0.0983
     31 H9         -3.5098    2.7556    1.1916 H         1 <0>         0.0957
     32 H10        -5.2329    5.0115   -1.0307 H         1 <0>         0.0827
     33 H11        -5.4907    6.3618    0.0999 H         1 <0>         0.0795
     34 H12        -3.8832    6.0954   -0.6164 H         1 <0>         0.1260
     35 H13        -4.7216    3.9510    3.4374 H         1 <0>         0.1244
     36 H14        -6.2437    3.0529    3.2253 H         1 <0>         0.1265
     37 H15        -4.7552    2.4811    2.4341 H         1 <0>         0.1210
     38 H16        -6.8259    5.8129    0.9973 H         1 <0>         0.1257
     39 H17        -7.4518    4.8567    2.3620 H         1 <0>         0.1236
     40 H18        -6.0663    5.9483    2.6013 H         1 <0>         0.1230
     41 H19        -2.0788    1.5046    1.0742 H         1 <0>         0.1195
     42 H20        -0.6994   -0.3781    0.2895 H         1 <0>         0.1258
     43 H21         0.8325   -0.0727   -1.6139 H         1 <0>         0.1269
     44 H22         0.9921    2.1181   -2.7266 H         1 <0>         0.1269
     45 H23        -0.3803    4.0034   -1.9359 H         1 <0>         0.1277
     46 H24        -3.4121    3.8828   -2.2798 H         1 <0>         0.1192
     47 H25        -3.5340    5.6100   -4.0306 H         1 <0>         0.1249
     48 H26        -2.3985    7.7712   -3.7092 H         1 <0>         0.1257
     49 H27        -1.1488    8.2086   -1.6331 H         1 <0>         0.1267
     50 H28        -1.0348    6.4849    0.1216 H         1 <0>         0.1423
     51 H29         0.3736    4.0759    0.9016 H         1 <0>         0.3809
     52 N1         -5.6468    4.1598    1.5393 N.4       1 <0>        -0.3952
     53 H30        -6.1168    3.5546    0.8558 H         1 <0>         0.4286
@<TRIPOS>BOND
     1    1    2 1
     2    1   25 1
     3    1   26 1
     4    1   27 1
     5    2    3 1
     6    2   28 1
     7    2   29 1
     8    3    4 1
     9    3    5 1
    10    3   24 1
    11    5    6 1
    12    5   12 1
    13    5   18 1
    14    6    7 1
    15    6   30 1
    16    6   31 1
    17    7    8 1
    18    7    9 1
    19    7   52 1
    20    9   32 1
    21    9   33 1
    22    9   34 1
    23   10   35 1
    24   10   36 1
    25   10   37 1
    26   10   52 1
    27   11   38 1
    28   11   39 1
    29   11   40 1
    30   11   52 1
    31   12   17 ar
    32   12   13 ar
    33   13   14 ar
    34   13   41 1
    35   14   15 ar
    36   14   42 1
    37   15   16 ar
    38   15   43 1
    39   16   17 ar
    40   16   44 1
    41   17   45 1
    42   18   23 ar
    43   18   19 ar
    44   19   20 ar
    45   19   46 1
    46   20   21 ar
    47   20   47 1
    48   21   22 ar
    49   21   48 1
    50   22   23 ar
    51   22   49 1
    52   23   50 1
    53   24   51 1
    54   52   53 1
@<TRIPOS>MOLECULE
ZINC01587666
   53    54     0     0     0
SMALL
USER_CHARGES
6-dimethylamino-4,4-diphenyl-heptan-3-ol
@<TRIPOS>ATOM
      1 C1          0.4143    1.3028    1.4339 C.3       1 <0>        -0.1539
      2 C2          0.3485   -0.1467    0.9486 C.3       1 <0>        -0.1560
      3 C3         -1.1143   -0.5816    0.8383 C.3       1 <0>         0.1235
      4 H1         -1.6535    0.1161    0.1976 H         1 <0>         0.1106
      5 C4         -1.1846   -1.9862    0.2356 C.3       1 <0>         0.0089
      6 C5         -0.5036   -2.9804    1.1783 C.3       1 <0>        -0.1443
      7 C6         -0.6437   -4.3958    0.6144 C.3       1 <0>         0.0097
      8 H2         -0.3243   -4.4050   -0.4277 H         1 <0>         0.1561
      9 C7         -2.1057   -4.8379    0.7037 C.3       1 <0>        -0.2031
     10 C8          0.1997   -6.6585    0.7916 C.3       1 <0>        -0.0470
     11 C9          1.5620   -4.7976    1.5289 C.3       1 <0>        -0.0544
     12 C10        -2.6269   -2.3801    0.0467 C.ar      1 <0>        -0.0847
     13 C11        -3.1039   -2.6715   -1.2176 C.ar      1 <0>        -0.1272
     14 C12        -4.4257   -3.0376   -1.3902 C.ar      1 <0>        -0.1183
     15 C13        -5.2731   -3.1020   -0.2999 C.ar      1 <0>        -0.1112
     16 C14        -4.7973   -2.8055    0.9637 C.ar      1 <0>        -0.1188
     17 C15        -3.4743   -2.4445    1.1370 C.ar      1 <0>        -0.1014
     18 C16        -0.4823   -1.9964   -1.0978 C.ar      1 <0>        -0.0739
     19 C17         0.5902   -2.8429   -1.3076 C.ar      1 <0>        -0.1509
     20 C18         1.2313   -2.8557   -2.5322 C.ar      1 <0>        -0.1117
     21 C19         0.8065   -2.0145   -3.5436 C.ar      1 <0>        -0.1112
     22 C20        -0.2627   -1.1643   -3.3321 C.ar      1 <0>        -0.1029
     23 C21        -0.9071   -1.1552   -2.1092 C.ar      1 <0>        -0.1071
     24 O1         -1.7078   -0.5908    2.1381 O.3       1 <0>        -0.5420
     25 H3          1.4564    1.6127    1.5125 H         1 <0>         0.0584
     26 H4         -0.1039    1.9475    0.7240 H         1 <0>         0.0580
     27 H5         -0.0627    1.3809    2.4109 H         1 <0>         0.0631
     28 H6          0.8254   -0.2248   -0.0284 H         1 <0>         0.0783
     29 H7          0.8667   -0.7914    1.6585 H         1 <0>         0.0621
     30 H8          0.5530   -2.7288    1.2701 H         1 <0>         0.0982
     31 H9         -0.9753   -2.9319    2.1597 H         1 <0>         0.0970
     32 H10        -2.6702   -4.3942   -0.1165 H         1 <0>         0.1239
     33 H11        -2.1614   -5.9245    0.6370 H         1 <0>         0.0735
     34 H12        -2.5271   -4.5101    1.6540 H         1 <0>         0.0864
     35 H13         0.5922   -6.6007   -0.2237 H         1 <0>         0.1225
     36 H14         0.8281   -7.3210    1.3869 H         1 <0>         0.1245
     37 H15        -0.8178   -7.0487    0.7660 H         1 <0>         0.1237
     38 H16         1.5480   -3.8961    2.1415 H         1 <0>         0.1236
     39 H17         2.1912   -5.5501    2.0042 H         1 <0>         0.1271
     40 H18         1.9610   -4.5605    0.5427 H         1 <0>         0.1227
     41 H19        -2.4430   -2.6169   -2.0700 H         1 <0>         0.1311
     42 H20        -4.7975   -3.2689   -2.3775 H         1 <0>         0.1249
     43 H21        -6.3069   -3.3836   -0.4354 H         1 <0>         0.1250
     44 H22        -5.4595   -2.8555    1.8154 H         1 <0>         0.1252
     45 H23        -3.1027   -2.2125    2.1241 H         1 <0>         0.1329
     46 H24         0.9249   -3.4969   -0.5160 H         1 <0>         0.1165
     47 H25         2.0669   -3.5197   -2.6974 H         1 <0>         0.1254
     48 H26         1.3102   -2.0214   -4.4989 H         1 <0>         0.1290
     49 H27        -0.5943   -0.5069   -4.1221 H         1 <0>         0.1309
     50 H28        -1.7423   -0.4907   -1.9438 H         1 <0>         0.1281
     51 H29        -1.2239   -1.1189    2.7878 H         1 <0>         0.3668
     52 N1          0.1837   -5.3200    1.4182 N.4       1 <0>        -0.3957
     53 H30        -0.2203   -5.3969    2.3590 H         1 <0>         0.4280
@<TRIPOS>BOND
     1    1    2 1
     2    1   25 1
     3    1   26 1
     4    1   27 1
     5    2    3 1
     6    2   28 1
     7    2   29 1
     8    3    4 1
     9    3    5 1
    10    3   24 1
    11    5    6 1
    12    5   12 1
    13    5   18 1
    14    6    7 1
    15    6   30 1
    16    6   31 1
    17    7    8 1
    18    7    9 1
    19    7   52 1
    20    9   32 1
    21    9   33 1
    22    9   34 1
    23   10   35 1
    24   10   36 1
    25   10   37 1
    26   10   52 1
    27   11   38 1
    28   11   39 1
    29   11   40 1
    30   11   52 1
    31   12   17 ar
    32   12   13 ar
    33   13   14 ar
    34   13   41 1
    35   14   15 ar
    36   14   42 1
    37   15   16 ar
    38   15   43 1
    39   16   17 ar
    40   16   44 1
    41   17   45 1
    42   18   23 ar
    43   18   19 ar
    44   19   20 ar
    45   19   46 1
    46   20   21 ar
    47   20   47 1
    48   21   22 ar
    49   21   48 1
    50   22   23 ar
    51   22   49 1
    52   23   50 1
    53   24   51 1
    54   52   53 1
@<TRIPOS>MOLECULE
ZINC01587667
   53    54     0     0     0
SMALL
USER_CHARGES
6-dimethylamino-4,4-diphenyl-heptan-3-ol
@<TRIPOS>ATOM
      1 C1          4.0493   -1.3742    2.4650 C.3       1 <0>        -0.1527
      2 C2          3.9107   -0.3421    1.3441 C.3       1 <0>        -0.1560
      3 C3          2.4596    0.1370    1.2686 C.3       1 <0>         0.1260
      4 H1          1.8027   -0.7177    1.1071 H         1 <0>         0.1114
      5 C4          2.3078    1.1233    0.1088 C.3       1 <0>        -0.0105
      6 C5          3.1044    2.3938    0.4122 C.3       1 <0>        -0.1452
      7 C6          2.8338    3.4370   -0.6739 C.3       1 <0>         0.0207
      8 H2          3.0116    2.9952   -1.6544 H         1 <0>         0.1412
      9 C7          3.7674    4.6329   -0.4764 C.3       1 <0>        -0.1816
     10 C8          1.2253    4.7109    0.6117 C.3       1 <0>        -0.0539
     11 C9          1.0385    4.6079   -1.8002 C.3       1 <0>        -0.0481
     12 C10         0.8524    1.4726   -0.0664 C.ar      1 <0>        -0.1279
     13 C11         0.1215    1.9470    1.0068 C.ar      1 <0>        -0.1225
     14 C12        -1.2149    2.2625    0.8474 C.ar      1 <0>        -0.1195
     15 C13        -1.8179    2.1127   -0.3874 C.ar      1 <0>        -0.1025
     16 C14        -1.0868    1.6392   -1.4608 C.ar      1 <0>        -0.1184
     17 C15         0.2484    1.3191   -1.3002 C.ar      1 <0>        -0.1332
     18 C16         2.8292    0.4938   -1.1573 C.ar      1 <0>        -0.0896
     19 C17         3.9412    1.0231   -1.7852 C.ar      1 <0>        -0.1337
     20 C18         4.4223    0.4428   -2.9440 C.ar      1 <0>        -0.1093
     21 C19         3.7853   -0.6604   -3.4805 C.ar      1 <0>        -0.1074
     22 C20         2.6702   -1.1865   -2.8555 C.ar      1 <0>        -0.1079
     23 C21         2.1922   -0.6094   -1.6939 C.ar      1 <0>        -0.1103
     24 O1          2.1072    0.7839    2.4931 O.3       1 <0>        -0.5461
     25 H3          3.3967   -2.2229    2.2601 H         1 <0>         0.0565
     26 H4          5.0831   -1.7155    2.5188 H         1 <0>         0.0595
     27 H5          3.7669   -0.9196    3.4145 H         1 <0>         0.0632
     28 H6          4.1931   -0.7967    0.3946 H         1 <0>         0.0798
     29 H7          4.5633    0.5066    1.5490 H         1 <0>         0.0667
     30 H8          2.8005    2.7906    1.3808 H         1 <0>         0.0946
     31 H9          4.1686    2.1591    0.4334 H         1 <0>         0.1233
     32 H10         3.5896    5.0746    0.5041 H         1 <0>         0.0842
     33 H11         4.8032    4.2999   -0.5424 H         1 <0>         0.1031
     34 H12         3.5746    5.3760   -1.2501 H         1 <0>         0.0824
     35 H13         1.7847    5.6414    0.5153 H         1 <0>         0.1250
     36 H14         0.1635    4.9343    0.7151 H         1 <0>         0.1176
     37 H15         1.5701    4.1692    1.4925 H         1 <0>         0.1172
     38 H16         1.1399    3.9502   -2.6635 H         1 <0>         0.1155
     39 H17         0.0009    4.9288   -1.7078 H         1 <0>         0.1182
     40 H18         1.6784    5.4805   -1.9311 H         1 <0>         0.1217
     41 H19         0.5934    2.0670    1.9708 H         1 <0>         0.1569
     42 H20        -1.7871    2.6289    1.6869 H         1 <0>         0.1419
     43 H21        -2.8612    2.3625   -0.5128 H         1 <0>         0.1399
     44 H22        -1.5588    1.5189   -2.4247 H         1 <0>         0.1407
     45 H23         0.8195    0.9489   -2.1387 H         1 <0>         0.1490
     46 H24         4.4363    1.8877   -1.3684 H         1 <0>         0.1265
     47 H25         5.2933    0.8540   -3.4325 H         1 <0>         0.1295
     48 H26         4.1585   -1.1111   -4.3883 H         1 <0>         0.1299
     49 H27         2.1722   -2.0483   -3.2749 H         1 <0>         0.1304
     50 H28         1.3208   -1.0202   -1.2057 H         1 <0>         0.1260
     51 H29         2.6519    1.5553    2.7014 H         1 <0>         0.3694
     52 N1          1.4212    3.8624   -0.5826 N.4       1 <0>        -0.4134
     53 H30         0.8266    3.0293   -0.5010 H         1 <0>         0.4221
@<TRIPOS>BOND
     1    1    2 1
     2    1   25 1
     3    1   26 1
     4    1   27 1
     5    2    3 1
     6    2   28 1
     7    2   29 1
     8    3    4 1
     9    3    5 1
    10    3   24 1
    11    5    6 1
    12    5   12 1
    13    5   18 1
    14    6    7 1
    15    6   30 1
    16    6   31 1
    17    7    8 1
    18    7    9 1
    19    7   52 1
    20    9   32 1
    21    9   33 1
    22    9   34 1
    23   10   35 1
    24   10   36 1
    25   10   37 1
    26   10   52 1
    27   11   38 1
    28   11   39 1
    29   11   40 1
    30   11   52 1
    31   12   17 ar
    32   12   13 ar
    33   13   14 ar
    34   13   41 1
    35   14   15 ar
    36   14   42 1
    37   15   16 ar
    38   15   43 1
    39   16   17 ar
    40   16   44 1
    41   17   45 1
    42   18   23 ar
    43   18   19 ar
    44   19   20 ar
    45   19   46 1
    46   20   21 ar
    47   20   47 1
    48   21   22 ar
    49   21   48 1
    50   22   23 ar
    51   22   49 1
    52   23   50 1
    53   24   51 1
    54   52   53 1
@<TRIPOS>MOLECULE
ZINC00002433
   43    46     0     0     0
SMALL
USER_CHARGES

@<TRIPOS>ATOM
      1 C1         -0.0178    1.4648    0.0101 C.3       1 <0>        -0.0550
      2 N1          0.0021   -0.0041    0.0020 N.4       1 <0>        -0.3714
      3 C2         -1.3748   -0.4998    0.0742 C.3       1 <0>        -0.0158
      4 C3         -1.3696   -2.0331    0.0708 C.3       1 <0>        -0.1375
      5 C4         -0.5935   -2.4991    1.3116 C.3       1 <0>        -0.0151
      6 C5         -0.6092   -4.0201    1.3958 C.3       1 <0>        -0.1092
      7 C6          0.0268   -4.6041    0.1309 C.3       1 <0>        -0.1267
      8 C7          1.4649   -4.1003   -0.0021 C.3       1 <0>        -0.1212
      9 C8          1.4724   -2.5717   -0.0825 C.3       1 <0>        -0.1284
     10 C9          0.8483   -1.9980    1.1902 C.3       1 <0>        -0.0882
     11 H1          1.4232   -2.3207    2.0582 H         1 <0>         0.1207
     12 C10         0.8087   -0.4729    1.1195 C.3       1 <0>         0.0285
     13 H2          1.8289   -0.1228    0.9619 H         1 <0>         0.1360
     14 C11         0.3482    0.0928    2.4516 C.3       1 <0>        -0.0925
     15 C12        -0.8048   -0.6774    3.0363 C.ar      1 <0>        -0.1130
     16 C13        -1.2389   -1.8816    2.5243 C.ar      1 <0>        -0.0619
     17 C14        -2.2943   -2.5517    3.1214 C.ar      1 <0>        -0.1381
     18 C15        -2.9291   -2.0130    4.2289 C.ar      1 <0>         0.1247
     19 C16        -2.5015   -0.7955    4.7377 C.ar      1 <0>        -0.1362
     20 C17        -1.4467   -0.1359    4.1442 C.ar      1 <0>        -0.0937
     21 O1         -3.9640   -2.6728    4.8125 O.3       1 <0>        -0.4964
     22 H3          1.0041    1.8418    0.0490 H         1 <0>         0.1261
     23 H4         -0.5043    1.8265   -0.8958 H         1 <0>         0.1270
     24 H5         -0.5681    1.8159    0.8830 H         1 <0>         0.1241
     25 H6         -1.8424   -0.1404    0.9908 H         1 <0>         0.1320
     26 H7         -1.9369   -0.1368   -0.7862 H         1 <0>         0.1319
     27 H8         -2.3929   -2.4062    0.1132 H         1 <0>         0.1133
     28 H9         -0.8790   -2.3991   -0.8311 H         1 <0>         0.1002
     29 H10        -0.0427   -4.3419    2.2697 H         1 <0>         0.0769
     30 H11        -1.6383   -4.3692    1.4800 H         1 <0>         0.0781
     31 H12         0.0281   -5.6922    0.1947 H         1 <0>         0.0763
     32 H13        -0.5485   -4.2932   -0.7411 H         1 <0>         0.0669
     33 H14         2.0427   -4.4206    0.8648 H         1 <0>         0.0724
     34 H15         1.9113   -4.5131   -0.9068 H         1 <0>         0.0755
     35 H16         2.4988   -2.2170   -0.1765 H         1 <0>         0.0812
     36 H17         0.8942   -2.2497   -0.9486 H         1 <0>         0.0613
     37 H18         1.1820    0.0664    3.1531 H         1 <0>         0.1195
     38 H19         0.0432    1.1294    2.3081 H         1 <0>         0.0979
     39 H20        -2.6243   -3.4990    2.7211 H         1 <0>         0.1371
     40 H21        -2.9942   -0.3651    5.5970 H         1 <0>         0.1369
     41 H22        -1.1158    0.8114    4.5436 H         1 <0>         0.1319
     42 H23        -3.6960   -3.2850    5.5115 H         1 <0>         0.4009
     43 H24         0.4193   -0.3217   -0.8600 H         1 <0>         0.4233
@<TRIPOS>BOND
     1    1    2 1
     2    1   22 1
     3    1   23 1
     4    1   24 1
     5    2   12 1
     6    2    3 1
     7    2   43 1
     8    3    4 1
     9    3   25 1
    10    3   26 1
    11    4    5 1
    12    4   27 1
    13    4   28 1
    14    5   10 1
    15    5   16 1
    16    5    6 1
    17    6    7 1
    18    6   29 1
    19    6   30 1
    20    7    8 1
    21    7   31 1
    22    7   32 1
    23    8    9 1
    24    8   33 1
    25    8   34 1
    26    9   10 1
    27    9   35 1
    28    9   36 1
    29   10   11 1
    30   10   12 1
    31   12   13 1
    32   12   14 1
    33   14   15 1
    34   14   37 1
    35   14   38 1
    36   15   20 ar
    37   15   16 ar
    38   16   17 ar
    39   17   18 ar
    40   17   39 1
    41   18   19 ar
    42   18   21 1
    43   19   20 ar
    44   19   40 1
    45   20   41 1
    46   21   42 1
@<TRIPOS>MOLECULE
ZINC01280092
   43    46     0     0     0
SMALL
USER_CHARGES

@<TRIPOS>ATOM
      1 C1         -0.0178    1.4648    0.0101 C.3       1 <0>        -0.0546
      2 N1          0.0021   -0.0041    0.0020 N.4       1 <0>        -0.3707
      3 C2         -1.3750   -0.4988    0.0701 C.3       1 <0>        -0.0155
      4 C3         -1.3740   -2.0327    0.0720 C.3       1 <0>        -0.1328
      5 C4         -0.6000   -2.4924    1.3162 C.3       1 <0>        -0.0194
      6 C5         -0.6317   -4.0111    1.4284 C.3       1 <0>        -0.1090
      7 C6          0.1733   -4.4520    2.6537 C.3       1 <0>        -0.1248
      8 C7          1.6184   -3.9692    2.5143 C.3       1 <0>        -0.1198
      9 C8          1.6413   -2.4424    2.4159 C.3       1 <0>        -0.1145
     10 C9          0.8433   -1.9991    1.1883 C.3       1 <0>        -0.0855
     11 H1          1.2952   -2.4125    0.2866 H         1 <0>         0.1026
     12 C10         0.8089   -0.4721    1.1198 C.3       1 <0>         0.0265
     13 H2          1.8300   -0.1263    0.9584 H         1 <0>         0.1353
     14 C11         0.3561    0.0989    2.4510 C.3       1 <0>        -0.0931
     15 C12        -0.8070   -0.6582    3.0329 C.ar      1 <0>        -0.1135
     16 C13        -1.2457   -1.8607    2.5233 C.ar      1 <0>        -0.0538
     17 C14        -2.3081   -2.5221    3.1185 C.ar      1 <0>        -0.1388
     18 C15        -2.9456   -1.9742    4.2198 C.ar      1 <0>         0.1246
     19 C16        -2.5143   -0.7560    4.7243 C.ar      1 <0>        -0.1373
     20 C17        -1.4521   -0.1058    4.1333 C.ar      1 <0>        -0.0937
     21 O1         -3.9867   -2.6255    4.8018 O.3       1 <0>        -0.4965
     22 H3          1.0041    1.8418    0.0487 H         1 <0>         0.1258
     23 H4         -0.5046    1.8265   -0.8956 H         1 <0>         0.1269
     24 H5         -0.5678    1.8159    0.8832 H         1 <0>         0.1235
     25 H6         -1.8462   -0.1353    0.9832 H         1 <0>         0.1316
     26 H7         -1.9332   -0.1377   -0.7937 H         1 <0>         0.1320
     27 H8         -2.3981   -2.4035    0.1152 H         1 <0>         0.1141
     28 H9         -0.8828   -2.4037   -0.8275 H         1 <0>         0.0951
     29 H10        -1.6637   -4.3460    1.5323 H         1 <0>         0.0773
     30 H11        -0.1965   -4.4505    0.5308 H         1 <0>         0.0762
     31 H12        -0.2684   -4.0221    3.5527 H         1 <0>         0.0675
     32 H13         0.1589   -5.5395    2.7259 H         1 <0>         0.0728
     33 H14         2.1924   -4.2855    3.3853 H         1 <0>         0.0737
     34 H15         2.0591   -4.3977    1.6142 H         1 <0>         0.0675
     35 H16         1.1954   -2.0136    3.3134 H         1 <0>         0.0790
     36 H17         2.6718   -2.0996    2.3226 H         1 <0>         0.0745
     37 H18         1.1889    0.0610    3.1532 H         1 <0>         0.1199
     38 H19         0.0642    1.1393    2.3081 H         1 <0>         0.0969
     39 H20        -2.6412   -3.4697    2.7215 H         1 <0>         0.1370
     40 H21        -3.0097   -0.3180    5.5782 H         1 <0>         0.1363
     41 H22        -1.1179    0.8418    4.5290 H         1 <0>         0.1314
     42 H23        -3.7254   -3.2352    5.5054 H         1 <0>         0.4004
     43 H24         0.4207   -0.3210   -0.8596 H         1 <0>         0.4248
@<TRIPOS>BOND
     1    1    2 1
     2    1   22 1
     3    1   23 1
     4    1   24 1
     5    2   12 1
     6    2    3 1
     7    2   43 1
     8    3    4 1
     9    3   25 1
    10    3   26 1
    11    4    5 1
    12    4   27 1
    13    4   28 1
    14    5   10 1
    15    5   16 1
    16    5    6 1
    17    6    7 1
    18    6   29 1
    19    6   30 1
    20    7    8 1
    21    7   31 1
    22    7   32 1
    23    8    9 1
    24    8   33 1
    25    8   34 1
    26    9   10 1
    27    9   35 1
    28    9   36 1
    29   10   11 1
    30   10   12 1
    31   12   13 1
    32   12   14 1
    33   14   15 1
    34   14   37 1
    35   14   38 1
    36   15   20 ar
    37   15   16 ar
    38   16   17 ar
    39   17   18 ar
    40   17   39 1
    41   18   19 ar
    42   18   21 1
    43   19   20 ar
    44   19   40 1
    45   20   41 1
    46   21   42 1
@<TRIPOS>MOLECULE
ZINC27880224
   50    52     0     0     0
SMALL
USER_CHARGES
N-(2-methoxyphenyl)-1-phenethyl-piperidin-4-amine
@<TRIPOS>ATOM
      1 C1          4.7658    1.3257   -0.0377 C.3       1 <0>         0.0268
      2 O1          3.5607    2.0935   -0.0216 O.3       1 <0>        -0.3253
      3 C2          2.3888    1.4032   -0.0137 C.ar      1 <0>         0.0621
      4 C3          2.3989    0.0182   -0.0212 C.ar      1 <0>        -0.1609
      5 C4          1.2067   -0.6824   -0.0136 C.ar      1 <0>        -0.1285
      6 C5          0.0021   -0.0041    0.0020 C.ar      1 <0>        -0.1076
      7 C6         -0.0167    1.3780    0.0096 C.ar      1 <0>        -0.1721
      8 C7          1.1754    2.0875    0.0020 C.ar      1 <0>         0.1870
      9 N1          1.1591    3.4870    0.0093 N.pl3     1 <0>        -0.7549
     10 C8         -0.1180    4.2046    0.0248 C.3       1 <0>         0.1484
     11 C9         -0.6376    4.3556   -1.4076 C.3       1 <0>        -0.1658
     12 C10        -1.9395    5.1599   -1.3906 C.3       1 <0>        -0.0108
     13 N2         -1.6944    6.4803   -0.7966 N.4       1 <0>        -0.3987
     14 C11        -1.2406    6.3607    0.5949 C.3       1 <0>         0.0022
     15 C12         0.0830    5.5937    0.6370 C.3       1 <0>        -0.1532
     16 C13        -2.8896    7.3294   -0.8894 C.3       1 <0>        -0.0024
     17 C14        -3.4767    7.2314   -2.2989 C.3       1 <0>        -0.1027
     18 C15        -4.7028    8.1024   -2.3941 C.ar      1 <0>        -0.1082
     19 C16        -5.9470    7.5794   -2.0954 C.ar      1 <0>        -0.1106
     20 C17        -7.0711    8.3797   -2.1780 C.ar      1 <0>        -0.1141
     21 C18        -6.9521    9.7003   -2.5691 C.ar      1 <0>        -0.1047
     22 C19        -5.7086   10.2217   -2.8733 C.ar      1 <0>        -0.1140
     23 C20        -4.5838    9.4228   -2.7855 C.ar      1 <0>        -0.1105
     24 H1          5.6323    2.0034   -0.0426 H         1 <0>         0.1031
     25 H2          4.7875    0.6962   -0.9395 H         1 <0>         0.0571
     26 H3          4.8053    0.6865    0.8567 H         1 <0>         0.0574
     27 H4          3.3382   -0.5147   -0.0334 H         1 <0>         0.1307
     28 H5          1.2166   -1.7623   -0.0195 H         1 <0>         0.1255
     29 H6         -0.9266   -0.5554    0.0079 H         1 <0>         0.1246
     30 H7         -0.9591    1.9054    0.0170 H         1 <0>         0.1218
     31 H8          2.1052    4.0481    0.0034 H         1 <0>         0.4290
     32 H9         -0.8142    3.6072    0.6318 H         1 <0>         0.0920
     33 H10         0.1126    4.8817   -2.0162 H         1 <0>         0.0922
     34 H11        -0.8251    3.3602   -1.8365 H         1 <0>         0.1137
     35 H12        -2.3070    5.2844   -2.4199 H         1 <0>         0.1373
     36 H13        -2.6933    4.6249   -0.7944 H         1 <0>         0.1273
     37 H14        -1.0959    7.3645    1.0209 H         1 <0>         0.1355
     38 H15        -1.9967    5.8188    1.1819 H         1 <0>         0.1283
     39 H16         0.4157    5.4899    1.6803 H         1 <0>         0.1183
     40 H17         0.8445    6.1411    0.0621 H         1 <0>         0.0945
     41 H18        -3.6371    6.9916   -0.1565 H         1 <0>         0.1283
     42 H19        -2.6150    8.3735   -0.6784 H         1 <0>         0.1334
     43 H20        -2.7292    7.5692   -3.0318 H         1 <0>         0.0955
     44 H21        -3.7513    6.1874   -2.5100 H         1 <0>         0.0971
     45 H22        -6.0404    6.5466   -1.7938 H         1 <0>         0.1230
     46 H23        -8.0427    7.9722   -1.9407 H         1 <0>         0.1291
     47 H24        -7.8308   10.3245   -2.6373 H         1 <0>         0.1295
     48 H25        -5.6157   11.2533   -3.1791 H         1 <0>         0.1293
     49 H26        -3.6123    9.8302   -3.0232 H         1 <0>         0.1239
     50 H27        -0.8898    6.9622   -1.3714 H         1 <0>         0.4412
@<TRIPOS>BOND
     1    1    2 1
     2    1   24 1
     3    1   25 1
     4    1   26 1
     5    2    3 1
     6    3    8 ar
     7    3    4 ar
     8    4    5 ar
     9    4   27 1
    10    5    6 ar
    11    5   28 1
    12    6    7 ar
    13    6   29 1
    14    7    8 ar
    15    7   30 1
    16    8    9 1
    17    9   10 1
    18    9   31 1
    19   10   15 1
    20   10   11 1
    21   10   32 1
    22   11   12 1
    23   11   33 1
    24   11   34 1
    25   12   13 1
    26   12   35 1
    27   12   36 1
    28   13   14 1
    29   13   16 1
    30   13   50 1
    31   14   15 1
    32   14   37 1
    33   14   38 1
    34   15   39 1
    35   15   40 1
    36   16   17 1
    37   16   41 1
    38   16   42 1
    39   17   18 1
    40   17   43 1
    41   17   44 1
    42   18   23 ar
    43   18   19 ar
    44   19   20 ar
    45   19   45 1
    46   20   21 ar
    47   20   46 1
    48   21   22 ar
    49   21   47 1
    50   22   23 ar
    51   22   48 1
    52   23   49 1
@<TRIPOS>MOLECULE
ZINC02517042
   59    62     0     0     0
SMALL
USER_CHARGES

@<TRIPOS>ATOM
      1 C1          0.2448    1.1223   -0.1423 C.3       1 <0>         0.0578
      2 N1          0.0632   -0.3228    0.0153 N.am      1 <0>        -0.6354
      3 C2          0.0106   -0.9126    1.3553 C.3       1 <0>         0.1233
      4 H1         -0.1318   -1.9901    1.2725 H         1 <0>         0.1267
      5 C3          1.3219   -0.6268    2.0899 C.3       1 <0>        -0.1215
      6 C4          1.2690   -1.2477    3.4876 C.3       1 <0>        -0.1292
      7 C5          0.0981   -0.6496    4.2664 C.3       1 <0>         0.1192
      8 C6          0.2992    0.8733    4.4050 C.3       1 <0>        -0.1537
      9 C7         -0.1962    1.1392    5.8531 C.3       1 <0>        -0.1581
     10 C8          0.2428   -0.1685    6.5593 C.3       1 <0>         0.0465
     11 O1          0.0492   -1.2054    5.5834 O.3       1 <0>        -0.3611
     12 C9         -1.2143   -0.9235    3.5328 C.3       1 <0>        -0.1428
     13 C10        -1.1559   -0.3028    2.1351 C.3       1 <0>         0.0163
     14 H2         -1.0118    0.7742    2.2213 H         1 <0>         0.1419
     15 N2         -2.4137   -0.5737    1.4263 N.4       1 <0>        -0.3874
     16 C11        -2.6982   -2.0315    1.4268 C.3       1 <0>        -0.0229
     17 C12        -4.2274   -2.0943    1.1852 C.3       1 <0>        -0.1411
     18 C13        -4.7546   -0.8847    1.9907 C.3       1 <0>        -0.1423
     19 C14        -3.5461    0.0584    2.1373 C.3       1 <0>        -0.0168
     20 C15        -0.0554   -1.1097   -1.0724 C.2       1 <0>         0.5138
     21 O2         -0.2057   -2.3061   -0.9419 O.2       1 <0>        -0.5097
     22 C16        -0.0013   -0.5030   -2.4509 C.3       1 <0>        -0.0979
     23 C17        -0.1571   -1.5889   -3.4841 C.ar      1 <0>        -0.0834
     24 C18         0.9584   -2.2422   -3.9738 C.ar      1 <0>        -0.1025
     25 C19         0.8155   -3.2383   -4.9216 C.ar      1 <0>        -0.1141
     26 C20        -0.4429   -3.5814   -5.3794 C.ar      1 <0>        -0.1106
     27 C21        -1.5585   -2.9288   -4.8890 C.ar      1 <0>        -0.1172
     28 C22        -1.4159   -1.9356   -3.9380 C.ar      1 <0>        -0.1080
     29 H3          1.3091    1.3508   -0.1986 H         1 <0>         0.0767
     30 H4         -0.2466    1.4525   -1.0575 H         1 <0>         0.0880
     31 H5         -0.1931    1.6388    0.7118 H         1 <0>         0.0720
     32 H6          2.1526   -1.0584    1.5317 H         1 <0>         0.0943
     33 H7          1.4627    0.4507    2.1760 H         1 <0>         0.0811
     34 H8          1.1351   -2.3260    3.4014 H         1 <0>         0.0821
     35 H9          2.2003   -1.0381    4.0138 H         1 <0>         0.0902
     36 H10         1.3517    1.1369    4.3003 H         1 <0>         0.0915
     37 H11        -0.3110    1.4129    3.6808 H         1 <0>         0.0768
     38 H12         0.3030    2.0061    6.2861 H         1 <0>         0.0923
     39 H13        -1.2794    1.2568    5.8823 H         1 <0>         0.0788
     40 H14         1.2928   -0.1097    6.8456 H         1 <0>         0.0705
     41 H15        -0.3793   -0.3525    7.4353 H         1 <0>         0.0943
     42 H16        -1.3648   -1.9996    3.4468 H         1 <0>         0.1017
     43 H17        -2.0411   -0.4844    4.0911 H         1 <0>         0.0986
     44 H18        -2.1605   -2.5287    0.6195 H         1 <0>         0.1406
     45 H19        -2.4425   -2.4730    2.3900 H         1 <0>         0.1402
     46 H20        -4.4554   -1.9809    0.1254 H         1 <0>         0.0967
     47 H21        -4.6411   -3.0254    1.5724 H         1 <0>         0.1181
     48 H22        -5.5578   -0.3885    1.4459 H         1 <0>         0.1057
     49 H23        -5.1044   -1.2067    2.9715 H         1 <0>         0.1050
     50 H24        -3.2990    0.1842    3.1915 H         1 <0>         0.1331
     51 H25        -3.7731    1.0254    1.6885 H         1 <0>         0.1313
     52 H26        -0.8081    0.2216   -2.5608 H         1 <0>         0.1056
     53 H27         0.9574   -0.0034   -2.5905 H         1 <0>         0.1108
     54 H28         1.9416   -1.9741   -3.6162 H         1 <0>         0.1196
     55 H29         1.6871   -3.7482   -5.3048 H         1 <0>         0.1262
     56 H30        -0.5545   -4.3591   -6.1204 H         1 <0>         0.1260
     57 H31        -2.5416   -3.1966   -5.2468 H         1 <0>         0.1246
     58 H32        -2.2877   -1.4283   -3.5521 H         1 <0>         0.1151
     59 H33        -2.3612   -0.2288    0.4795 H         1 <0>         0.4223
@<TRIPOS>BOND
     1    1    2 1
     2    1   29 1
     3    1   30 1
     4    1   31 1
     5    2    3 1
     6    2   20 am
     7    3    4 1
     8    3   13 1
     9    3    5 1
    10    5    6 1
    11    5   32 1
    12    5   33 1
    13    6    7 1
    14    6   34 1
    15    6   35 1
    16    7   11 1
    17    7    8 1
    18    7   12 1
    19    8    9 1
    20    8   36 1
    21    8   37 1
    22    9   10 1
    23    9   38 1
    24    9   39 1
    25   10   11 1
    26   10   40 1
    27   10   41 1
    28   12   13 1
    29   12   42 1
    30   12   43 1
    31   13   14 1
    32   13   15 1
    33   15   19 1
    34   15   16 1
    35   15   59 1
    36   16   17 1
    37   16   44 1
    38   16   45 1
    39   17   18 1
    40   17   46 1
    41   17   47 1
    42   18   19 1
    43   18   48 1
    44   18   49 1
    45   19   50 1
    46   19   51 1
    47   20   21 2
    48   20   22 1
    49   22   23 1
    50   22   52 1
    51   22   53 1
    52   23   28 ar
    53   23   24 ar
    54   24   25 ar
    55   24   54 1
    56   25   26 ar
    57   25   55 1
    58   26   27 ar
    59   26   56 1
    60   27   28 ar
    61   27   57 1
    62   28   58 1
@<TRIPOS>MOLECULE
ZINC00643032
   51    53     0     0     0
SMALL
USER_CHARGES

@<TRIPOS>ATOM
      1 C1          0.1306    1.7085    0.1467 C.3       1 <0>         0.0574
      2 N1          0.0612    0.2513    0.0119 N.am      1 <0>        -0.6347
      3 C2          0.1236   -0.5984    1.2037 C.3       1 <0>         0.1238
      4 H1          0.1481   -1.6456    0.9024 H         1 <0>         0.1243
      5 C3         -1.1091   -0.3469    2.0745 C.3       1 <0>        -0.1255
      6 C4         -1.0439   -1.2343    3.3191 C.3       1 <0>        -0.1279
      7 C5          0.2196   -0.9032    4.1159 C.3       1 <0>        -0.1185
      8 C6          1.4522   -1.1547    3.2452 C.3       1 <0>        -0.1397
      9 C7          1.3870   -0.2673    2.0005 C.3       1 <0>         0.0187
     10 H2          1.3626    0.7800    2.3018 H         1 <0>         0.1398
     11 N2          2.5705   -0.5087    1.1645 N.4       1 <0>        -0.3894
     12 C8          3.8089   -0.2489    1.9425 C.3       1 <0>        -0.0140
     13 C9          4.8859   -1.0554    1.1743 C.3       1 <0>        -0.1435
     14 C10         4.1220   -2.3279    0.7419 C.3       1 <0>        -0.1414
     15 C11         2.6339   -1.9326    0.7693 C.3       1 <0>        -0.0209
     16 C12        -0.0601   -0.3075   -1.2085 C.2       1 <0>         0.5142
     17 O1         -0.1176   -1.5138   -1.3201 O.2       1 <0>        -0.5086
     18 C13        -0.1243    0.5666   -2.4345 C.3       1 <0>        -0.0996
     19 C14        -0.2585   -0.2981   -3.6614 C.ar      1 <0>        -0.0664
     20 C15         0.8729   -0.7471   -4.3173 C.ar      1 <0>        -0.0908
     21 C16         0.7513   -1.5398   -5.4429 C.ar      1 <0>        -0.0952
     22 C17        -0.5030   -1.8848   -5.9137 C.ar      1 <0>        -0.0261
     23 C18        -1.6358   -1.4355   -5.2567 C.ar      1 <0>        -0.0280
     24 C19        -1.5122   -0.6464   -4.1271 C.ar      1 <0>        -0.0826
     25 Cl1        -3.2105   -1.8671   -5.8466 Cl        1 <0>        -0.0367
     26 Cl2        -0.6564   -2.8799   -7.3279 Cl        1 <0>        -0.0364
     27 H3          1.1744    2.0216    0.1725 H         1 <0>         0.0581
     28 H4         -0.3681    2.1761   -0.7022 H         1 <0>         0.0929
     29 H5         -0.3627    2.0118    1.0702 H         1 <0>         0.0851
     30 H6         -1.1336    0.7003    2.3758 H         1 <0>         0.0783
     31 H7         -2.0092   -0.5828    1.5068 H         1 <0>         0.0881
     32 H8         -1.9221   -1.0551    3.9395 H         1 <0>         0.0857
     33 H9         -1.0194   -2.2815    3.0178 H         1 <0>         0.0734
     34 H10         0.1951    0.1440    4.4172 H         1 <0>         0.0767
     35 H11         0.2660   -1.5354    5.0027 H         1 <0>         0.0893
     36 H12         2.3523   -0.9188    3.8129 H         1 <0>         0.0948
     37 H13         1.4767   -2.2019    2.9439 H         1 <0>         0.0913
     38 H14         4.0492    0.8143    1.9393 H         1 <0>         0.1348
     39 H15         3.7067   -0.6182    2.9629 H         1 <0>         0.1394
     40 H16         5.2351   -0.5006    0.3035 H         1 <0>         0.0970
     41 H17         5.7185   -1.3095    1.8304 H         1 <0>         0.1179
     42 H18         4.4168   -2.6223   -0.2653 H         1 <0>         0.1047
     43 H19         4.3108   -3.1396    1.4446 H         1 <0>         0.1045
     44 H20         2.1006   -2.5440    1.4971 H         1 <0>         0.1344
     45 H21         2.1968   -2.0630   -0.2207 H         1 <0>         0.1322
     46 H22        -0.9854    1.2310   -2.3623 H         1 <0>         0.1159
     47 H23         0.7873    1.1598   -2.5059 H         1 <0>         0.1122
     48 H24         1.8522   -0.4780   -3.9500 H         1 <0>         0.1333
     49 H25         1.6354   -1.8896   -5.9551 H         1 <0>         0.1461
     50 H26        -2.3954   -0.2990   -3.6118 H         1 <0>         0.1406
     51 H27         2.5438    0.0790    0.3448 H         1 <0>         0.4210
@<TRIPOS>BOND
     1    1    2 1
     2    1   27 1
     3    1   28 1
     4    1   29 1
     5    2    3 1
     6    2   16 am
     7    3    4 1
     8    3    9 1
     9    3    5 1
    10    5    6 1
    11    5   30 1
    12    5   31 1
    13    6    7 1
    14    6   32 1
    15    6   33 1
    16    7    8 1
    17    7   34 1
    18    7   35 1
    19    8    9 1
    20    8   36 1
    21    8   37 1
    22    9   10 1
    23    9   11 1
    24   11   15 1
    25   11   12 1
    26   11   51 1
    27   12   13 1
    28   12   38 1
    29   12   39 1
    30   13   14 1
    31   13   40 1
    32   13   41 1
    33   14   15 1
    34   14   42 1
    35   14   43 1
    36   15   44 1
    37   15   45 1
    38   16   17 2
    39   16   18 1
    40   18   19 1
    41   18   46 1
    42   18   47 1
    43   19   24 ar
    44   19   20 ar
    45   20   21 ar
    46   20   48 1
    47   21   22 ar
    48   21   49 1
    49   22   23 ar
    50   22   26 1
    51   23   24 ar
    52   23   25 1
    53   24   50 1
@<TRIPOS>MOLECULE
ZINC13607514
   59    62     0     0     0
SMALL
USER_CHARGES

@<TRIPOS>ATOM
      1 C1         -0.4357    1.7542    0.5288 C.3       1 <0>        -0.1461
      2 C2         -0.3487    0.2525    0.4381 C.2       1 <0>         0.4644
      3 O1         -0.3274   -0.4134    1.4460 O.2       1 <0>        -0.5086
      4 O2         -0.2950   -0.3454   -0.7625 O.3       1 <0>        -0.3301
      5 C3         -0.2136   -1.7722   -0.7738 C.3       1 <0>         0.0415
      6 H1         -0.7203   -2.1720    0.1052 H         1 <0>         0.1191
      7 C4         -0.8688   -2.3169   -2.0411 C.3       1 <0>        -0.1091
      8 C5         -0.5773   -3.8003   -2.2464 C.3       1 <0>        -0.0730
      9 H2         -0.9922   -4.3736   -1.4153 H         1 <0>         0.1193
     10 C6          0.9373   -4.0644   -2.3109 C.3       1 <0>        -0.0221
     11 C7          1.1877   -5.5410   -2.5993 C.3       1 <0>        -0.1184
     12 C8          2.6637   -5.9043   -2.4013 C.3       1 <0>        -0.1031
     13 C9          3.0702   -5.5857   -0.9734 C.3       1 <0>        -0.1318
     14 H3          2.4118   -6.1175   -0.2806 H         1 <0>         0.1121
     15 C10         4.5003   -5.9672   -0.6813 C.2       1 <0>         0.5012
     16 O3          5.1978   -6.5084   -1.5030 O.2       1 <0>        -0.4391
     17 O4          4.9537   -5.6702    0.5573 O.3       1 <0>        -0.3715
     18 C11         4.7443   -4.3390    1.0299 C.3       1 <0>         0.1894
     19 H4          5.4620   -3.6675    0.5561 H         1 <0>         0.0898
     20 C12         3.3172   -3.8616    0.7661 C.3       1 <0>        -0.1491
     21 C13         2.9439   -4.0734   -0.7115 C.3       1 <0>        -0.0280
     22 C14         1.5159   -3.6587   -0.9593 C.3       1 <0>        -0.1093
     23 H5          0.8994   -4.1915   -0.1890 H         1 <0>         0.1048
     24 C15         1.2465   -2.1910   -0.7424 C.2       1 <0>         0.3597
     25 O5          2.1096   -1.3779   -0.5407 O.2       1 <0>        -0.4150
     26 C16         3.9524   -3.3146   -1.5694 C.3       1 <0>        -0.1696
     27 C17         4.9977   -4.3122    2.5152 C.2       1 <0>        -0.1946
     28 C18         5.5648   -3.2486    3.2541 C.2       1 <0>        -0.2001
     29 C19         5.6067   -3.6453    4.5387 C.2       1 <0>        -0.0351
     30 O6          5.0978   -4.8857    4.6166 O.3       1 <0>        -0.1737
     31 C20         4.7222   -5.2933    3.3933 C.2       1 <0>        -0.0053
     32 C21         1.5002   -3.2263   -3.4584 C.3       1 <0>        -0.1672
     33 C22        -1.2209   -4.2546   -3.5321 C.2       1 <0>         0.4690
     34 O7         -0.5401   -4.7092   -4.4208 O.2       1 <0>        -0.4841
     35 O8         -2.5502   -4.1542   -3.6893 O.3       1 <0>        -0.3509
     36 C23        -3.0922   -4.6037   -4.9328 C.3       1 <0>         0.0321
     37 H6          0.5692    2.1747    0.5675 H         1 <0>         0.1084
     38 H7         -0.9581    2.1414   -0.3460 H         1 <0>         0.0961
     39 H8         -0.9811    2.0328    1.4305 H         1 <0>         0.1060
     40 H9         -1.9587   -2.1897   -1.9463 H         1 <0>         0.0988
     41 H10        -0.5531   -1.7339   -2.9040 H         1 <0>         0.0952
     42 H11         0.5758   -6.1488   -1.9299 H         1 <0>         0.0647
     43 H12         0.9160   -5.7681   -3.6331 H         1 <0>         0.1048
     44 H13         2.7837   -6.9821   -2.5738 H         1 <0>         0.0770
     45 H14         3.2855   -5.3773   -3.1174 H         1 <0>         0.0801
     46 H15         2.6187   -4.4242    1.3873 H         1 <0>         0.0815
     47 H16         3.2340   -2.8000    1.0015 H         1 <0>         0.0994
     48 H17         3.8397   -3.6125   -2.6118 H         1 <0>         0.0734
     49 H18         3.7751   -2.2431   -1.4764 H         1 <0>         0.0862
     50 H19         4.9629   -3.5462   -1.2326 H         1 <0>         0.0564
     51 H20         5.9007   -2.2999    2.8622 H         1 <0>         0.1515
     52 H21         5.9855   -3.0649    5.3670 H         1 <0>         0.2060
     53 H22         4.2768   -6.2478    3.1546 H         1 <0>         0.2045
     54 H23         1.4301   -2.1687   -3.2042 H         1 <0>         0.0523
     55 H24         2.5444   -3.4917   -3.6239 H         1 <0>         0.0721
     56 H25         0.9277   -3.4208   -4.3652 H         1 <0>         0.0874
     57 H26        -2.6563   -4.0271   -5.7487 H         1 <0>         0.0632
     58 H27        -2.8601   -5.6598   -5.0697 H         1 <0>         0.0634
     59 H28        -4.1735   -4.4669   -4.9284 H         1 <0>         0.1042
@<TRIPOS>BOND
     1    1    2 1
     2    1   37 1
     3    1   38 1
     4    1   39 1
     5    2    3 2
     6    2    4 1
     7    4    5 1
     8    5    6 1
     9    5   24 1
    10    5    7 1
    11    7    8 1
    12    7   40 1
    13    7   41 1
    14    8    9 1
    15    8   10 1
    16    8   33 1
    17   10   22 1
    18   10   11 1
    19   10   32 1
    20   11   12 1
    21   11   42 1
    22   11   43 1
    23   12   13 1
    24   12   44 1
    25   12   45 1
    26   13   14 1
    27   13   21 1
    28   13   15 1
    29   15   16 2
    30   15   17 1
    31   17   18 1
    32   18   19 1
    33   18   20 1
    34   18   27 1
    35   20   21 1
    36   20   46 1
    37   20   47 1
    38   21   22 1
    39   21   26 1
    40   22   23 1
    41   22   24 1
    42   24   25 2
    43   26   48 1
    44   26   49 1
    45   26   50 1
    46   27   31 2
    47   27   28 1
    48   28   29 2
    49   28   51 1
    50   29   30 1
    51   29   52 1
    52   30   31 1
    53   31   53 1
    54   32   54 1
    55   32   55 1
    56   32   56 1
    57   33   34 2
    58   33   35 1
    59   35   36 1
    60   36   57 1
    61   36   58 1
    62   36   59 1
@<TRIPOS>MOLECULE
ZINC00009073
   38    41     0     0     0
SMALL
USER_CHARGES

@<TRIPOS>ATOM
      1 C1         -0.0178    1.4648    0.0101 C.3       1 <0>        -0.0530
      2 N1          0.0021   -0.0041    0.0020 N.4       1 <0>        -0.3818
      3 C2         -1.3707   -0.5099    0.0093 C.3       1 <0>        -0.0045
      4 C3         -1.3945   -2.0165   -0.1908 C.3       1 <0>        -0.1054
      5 C4         -0.2778   -2.7021    0.5444 C.ar      1 <0>        -0.0840
      6 C5         -0.2629   -4.0910    0.5709 C.ar      1 <0>        -0.1053
      7 C6          0.7244   -4.7743    1.2518 C.ar      1 <0>        -0.0885
      8 C7          1.7146   -4.0754    1.9128 C.ar      1 <0>        -0.0992
      9 C8          1.7194   -2.6860    1.8733 C.ar      1 <0>        -0.0068
     10 C9          0.7130   -1.9965    1.1919 C.ar      1 <0>        -0.1248
     11 C10         0.7133   -0.4906    1.1934 C.3       1 <0>         0.0895
     12 H1          0.2077   -0.1297    2.0890 H         1 <0>         0.1464
     13 C11         2.1391    0.0560    1.1696 C.3       1 <0>        -0.0929
     14 C12         2.9742   -0.5785    2.2479 C.ar      1 <0>        -0.0798
     15 C13         2.7759   -1.9188    2.5745 C.ar      1 <0>        -0.0653
     16 C14         3.5639   -2.5230    3.5530 C.ar      1 <0>         0.1042
     17 C15         4.5367   -1.7751    4.2088 C.ar      1 <0>         0.0998
     18 C16         4.7147   -0.4388    3.8881 C.ar      1 <0>        -0.1167
     19 C17         3.9357    0.1560    2.9107 C.ar      1 <0>        -0.0938
     20 O1          5.3124   -2.3551    5.1634 O.3       1 <0>        -0.4826
     21 O2          3.3828   -3.8338    3.8646 O.3       1 <0>        -0.4754
     22 H2          1.0047    1.8421    0.0024 H         1 <0>         0.1274
     23 H3         -0.5450    1.8259   -0.8730 H         1 <0>         0.1292
     24 H4         -0.5280    1.8163    0.9069 H         1 <0>         0.1253
     25 H5         -1.8367   -0.2679    0.9645 H         1 <0>         0.1303
     26 H6         -1.9326   -0.0329   -0.7937 H         1 <0>         0.1395
     27 H7         -2.3469   -2.4064    0.1685 H         1 <0>         0.1232
     28 H8         -1.3037   -2.2338   -1.2551 H         1 <0>         0.1049
     29 H9         -1.0333   -4.6427    0.0527 H         1 <0>         0.1363
     30 H10         0.7220   -5.8542    1.2677 H         1 <0>         0.1404
     31 H11         2.4813   -4.6056    2.4582 H         1 <0>         0.1525
     32 H12         2.5874   -0.1542    0.1986 H         1 <0>         0.1009
     33 H13         2.1121    1.1345    1.3252 H         1 <0>         0.1081
     34 H14         5.4652    0.1418    4.4038 H         1 <0>         0.1453
     35 H15         4.0810    1.1979    2.6663 H         1 <0>         0.1401
     36 H16         6.1269   -2.7493    4.8224 H         1 <0>         0.3972
     37 H17         3.9208   -4.4411    3.3384 H         1 <0>         0.3936
     38 H18         0.4752   -0.3291   -0.8278 H         1 <0>         0.4258
@<TRIPOS>BOND
     1    1    2 1
     2    1   22 1
     3    1   23 1
     4    1   24 1
     5    2   11 1
     6    2    3 1
     7    2   38 1
     8    3    4 1
     9    3   25 1
    10    3   26 1
    11    4    5 1
    12    4   27 1
    13    4   28 1
    14    5   10 ar
    15    5    6 ar
    16    6    7 ar
    17    6   29 1
    18    7    8 ar
    19    7   30 1
    20    8    9 ar
    21    8   31 1
    22    9   15 1
    23    9   10 ar
    24   10   11 1
    25   11   12 1
    26   11   13 1
    27   13   14 1
    28   13   32 1
    29   13   33 1
    30   14   19 ar
    31   14   15 ar
    32   15   16 ar
    33   16   17 ar
    34   16   21 1
    35   17   18 ar
    36   17   20 1
    37   18   19 ar
    38   18   34 1
    39   19   35 1
    40   20   36 1
    41   21   37 1
@<TRIPOS>MOLECULE
ZINC00009073
   37    40     0     0     0
SMALL
USER_CHARGES

@<TRIPOS>ATOM
      1 C1         -0.0178    1.4648    0.0101 C.3       1 <0>         0.0190
      2 N1          0.0021   -0.0041    0.0020 N.3       1 <0>        -0.5347
      3 C2         -1.3554   -0.5468   -0.0771 C.3       1 <0>         0.0548
      4 C3         -1.3255   -2.0437   -0.3363 C.3       1 <0>        -0.0776
      5 C4         -0.2136   -2.7298    0.4050 C.ar      1 <0>        -0.0660
      6 C5         -0.1676   -4.1185    0.3764 C.ar      1 <0>        -0.1168
      7 C6          0.8160   -4.8083    1.0555 C.ar      1 <0>        -0.1183
      8 C7          1.7732   -4.1167    1.7707 C.ar      1 <0>        -0.1100
      9 C8          1.7473   -2.7271    1.7884 C.ar      1 <0>        -0.0402
     10 C9          0.7422   -2.0318    1.1101 C.ar      1 <0>        -0.0602
     11 C10         0.7070   -0.5281    1.1816 C.3       1 <0>         0.1292
     12 H1          0.1788   -0.2212    2.0843 H         1 <0>         0.0565
     13 C11         2.1199    0.0508    1.2084 C.3       1 <0>        -0.0723
     14 C12         2.9454   -0.6100    2.2786 C.ar      1 <0>        -0.0656
     15 C13         2.7694   -1.9666    2.5450 C.ar      1 <0>        -0.0523
     16 C14         3.5484   -2.5938    3.5165 C.ar      1 <0>         0.0945
     17 C15         4.4897   -1.8532    4.2246 C.ar      1 <0>         0.0806
     18 C16         4.6455   -0.5013    3.9627 C.ar      1 <0>        -0.1259
     19 C17         3.8757    0.1166    2.9923 C.ar      1 <0>        -0.1047
     20 O1          5.2558   -2.4554    5.1733 O.3       1 <0>        -0.4864
     21 O2          3.3897   -3.9199    3.7698 O.3       1 <0>        -0.4768
     22 H2          1.0047    1.8421    0.0024 H         1 <0>         0.0749
     23 H3         -0.5450    1.8259   -0.8730 H         1 <0>         0.0732
     24 H4         -0.5280    1.8163    0.9069 H         1 <0>         0.0286
     25 H5         -1.8730   -0.3560    0.8630 H         1 <0>         0.0357
     26 H6         -1.8920   -0.0533   -0.8874 H         1 <0>         0.0839
     27 H7         -2.2767   -2.4752   -0.0246 H         1 <0>         0.0807
     28 H8         -1.1956   -2.2145   -1.4050 H         1 <0>         0.0833
     29 H9         -0.9115   -4.6650   -0.1844 H         1 <0>         0.1227
     30 H10         0.8367   -5.8878    1.0279 H         1 <0>         0.1259
     31 H11         2.5378   -4.6525    2.3137 H         1 <0>         0.1407
     32 H12         2.5925   -0.1106    0.2395 H         1 <0>         0.0936
     33 H13         2.0656    1.1213    1.4066 H         1 <0>         0.0843
     34 H14         5.3712    0.0734    4.5190 H         1 <0>         0.1363
     35 H15         4.0042    1.1703    2.7931 H         1 <0>         0.1343
     36 H16         6.0862   -2.8185    4.8360 H         1 <0>         0.3882
     37 H17         3.9530   -4.4932    3.2322 H         1 <0>         0.3868
@<TRIPOS>BOND
     1    1    2 1
     2    1   22 1
     3    1   23 1
     4    1   24 1
     5    2   11 1
     6    2    3 1
     7    3    4 1
     8    3   25 1
     9    3   26 1
    10    4    5 1
    11    4   27 1
    12    4   28 1
    13    5   10 ar
    14    5    6 ar
    15    6    7 ar
    16    6   29 1
    17    7    8 ar
    18    7   30 1
    19    8    9 ar
    20    8   31 1
    21    9   15 1
    22    9   10 ar
    23   10   11 1
    24   11   12 1
    25   11   13 1
    26   13   14 1
    27   13   32 1
    28   13   33 1
    29   14   19 ar
    30   14   15 ar
    31   15   16 ar
    32   16   17 ar
    33   16   21 1
    34   17   18 ar
    35   17   20 1
    36   18   19 ar
    37   18   34 1
    38   19   35 1
    39   20   36 1
    40   21   37 1
@<TRIPOS>MOLECULE
ZINC00001910
   50    52     0     0     0
SMALL
USER_CHARGES
1-(4-fluorophenyl)-4-(4-hydroxy-4-phenyl-1-piperidyl)-butan-1-one
@<TRIPOS>ATOM
      1 C1         10.3095   -3.4107   -0.6874 C.ar      1 <0>        -0.1059
      2 C2          9.7291   -3.2232   -1.9279 C.ar      1 <0>        -0.1099
      3 C3          8.7074   -2.3048   -2.0814 C.ar      1 <0>        -0.1072
      4 C4          8.2661   -1.5738   -0.9942 C.ar      1 <0>        -0.1293
      5 C5          8.8500   -1.7575    0.2452 C.ar      1 <0>        -0.1144
      6 C6          9.8681   -2.6797    0.3997 C.ar      1 <0>        -0.1126
      7 C7          7.1526   -0.5722   -1.1616 C.3       1 <0>         0.1745
      8 C8          7.3314    0.5651   -0.1521 C.3       1 <0>        -0.1337
      9 C9          6.1660    1.5479   -0.2866 C.3       1 <0>         0.0028
     10 C10         4.6843   -0.2211   -1.0266 C.3       1 <0>        -0.0065
     11 C11         5.8054   -1.2567   -0.9142 C.3       1 <0>        -0.1702
     12 C12         3.7710    1.7844   -0.0244 C.3       1 <0>        -0.0045
     13 C13         2.4566    1.0014   -0.0160 C.3       1 <0>        -0.1469
     14 C14         1.2803    1.9797    0.0005 C.3       1 <0>        -0.1550
     15 C15        -0.0144    1.2085    0.0087 C.2       1 <0>         0.4033
     16 O1          0.0021   -0.0041    0.0020 O.2       1 <0>        -0.4480
     17 C16        -1.2974    1.9262    0.0187 C.ar      1 <0>        -0.1971
     18 C17        -1.3199    3.3254    0.0322 C.ar      1 <0>        -0.0430
     19 C18        -2.5255    3.9917    0.0347 C.ar      1 <0>        -0.1669
     20 C19        -3.7155    3.2788    0.0369 C.ar      1 <0>         0.1442
     21 C20        -3.7002    1.8917    0.0298 C.ar      1 <0>        -0.1650
     22 C21        -2.5015    1.2132    0.0205 C.ar      1 <0>        -0.0257
     23 F1         -4.8945    3.9384    0.0456 F         1 <0>        -0.1256
     24 O2          7.1824   -0.0422   -2.4883 O.3       1 <0>        -0.5497
     25 H1         11.1079   -4.1280   -0.5676 H         1 <0>         0.1298
     26 H2         10.0742   -3.7940   -2.7774 H         1 <0>         0.1300
     27 H3          8.2543   -2.1580   -3.0506 H         1 <0>         0.1221
     28 H4          8.5082   -1.1833    1.0936 H         1 <0>         0.1230
     29 H5         10.3218   -2.8259    1.3688 H         1 <0>         0.1292
     30 H6          8.2694    1.0836   -0.3504 H         1 <0>         0.1223
     31 H7          7.3480    0.1564    0.8583 H         1 <0>         0.1035
     32 H8          6.1587    1.9671   -1.2927 H         1 <0>         0.1390
     33 H9          6.2828    2.3513    0.4408 H         1 <0>         0.1311
     34 H10         3.7249   -0.7024   -0.8368 H         1 <0>         0.1360
     35 H11         4.6840    0.2064   -2.0293 H         1 <0>         0.1363
     36 H12         5.6533   -2.0398   -1.6569 H         1 <0>         0.1157
     37 H13         5.7979   -1.6952    0.0837 H         1 <0>         0.0996
     38 H14         3.8118    2.4165   -0.9114 H         1 <0>         0.1333
     39 H15         3.8288    2.4070    0.8685 H         1 <0>         0.1316
     40 H16         2.4158    0.3693    0.8710 H         1 <0>         0.0951
     41 H17         2.3988    0.3788   -0.9088 H         1 <0>         0.0971
     42 H18         1.3177    2.5596   -0.8133 H         1 <0>         0.1003
     43 H19         1.3381    2.6023    0.8933 H         1 <0>         0.1126
     44 H20        -0.3941    3.8815    0.0353 H         1 <0>         0.1411
     45 H21        -2.5443    5.0716    0.0399 H         1 <0>         0.1471
     46 H22        -4.6302    1.3426    0.0313 H         1 <0>         0.1479
     47 H23        -2.4910    0.1332    0.0143 H         1 <0>         0.1460
     48 H24         7.0747   -0.7087   -3.1806 H         1 <0>         0.3903
     49 N1          4.9014    0.8330   -0.0128 N.4       1 <0>        -0.3933
     50 H25         4.9599    0.3961    0.9146 H         1 <0>         0.4256
@<TRIPOS>BOND
     1    1    6 ar
     2    1    2 ar
     3    1   25 1
     4    2    3 ar
     5    2   26 1
     6    3    4 ar
     7    3   27 1
     8    4    5 ar
     9    4    7 1
    10    5    6 ar
    11    5   28 1
    12    6   29 1
    13    7   11 1
    14    7    8 1
    15    7   24 1
    16    8    9 1
    17    8   30 1
    18    8   31 1
    19    9   32 1
    20    9   33 1
    21    9   49 1
    22   10   11 1
    23   10   34 1
    24   10   35 1
    25   10   49 1
    26   11   36 1
    27   11   37 1
    28   12   13 1
    29   12   38 1
    30   12   39 1
    31   12   49 1
    32   13   14 1
    33   13   40 1
    34   13   41 1
    35   14   15 1
    36   14   42 1
    37   14   43 1
    38   15   16 2
    39   15   17 1
    40   17   22 ar
    41   17   18 ar
    42   18   19 ar
    43   18   44 1
    44   19   20 ar
    45   19   45 1
    46   20   21 ar
    47   20   23 1
    48   21   22 ar
    49   21   46 1
    50   22   47 1
    51   24   48 1
    52   49   50 1
@<TRIPOS>MOLECULE
ZINC03812983
   41    45     0     0     0
SMALL
USER_CHARGES
methylBLAHdiol
@<TRIPOS>ATOM
      1 C1          2.5532   -4.0281   -1.2929 C.3       1 <0>        -0.0484
      2 C2          3.5947   -1.8745   -0.9415 C.3       1 <0>        -0.0043
      3 C3          3.6019   -0.5992   -0.0995 C.3       1 <0>        -0.1260
      4 C4          2.2189    0.0434   -0.2379 C.3       1 <0>        -0.0574
      5 C5          1.9436    0.2694   -1.7033 C.ar      1 <0>        -0.1864
      6 C6          1.3321   -0.5987   -2.5755 C.ar      1 <0>        -0.0564
      7 C7          1.2190   -0.1564   -3.8812 C.ar      1 <0>        -0.1265
      8 C8          1.6669    1.1083   -4.2290 C.ar      1 <0>        -0.1009
      9 C9          2.2257    2.0020   -3.3175 C.ar      1 <0>         0.1075
     10 C10         2.3451    1.5675   -1.9939 C.ar      1 <0>         0.1517
     11 O1          2.7949    2.1721   -0.8702 O.3       1 <0>        -0.2745
     12 C11         2.1727    1.4792    0.2740 C.3       1 <0>         0.1100
     13 H1          2.6983    1.6223    1.2181 H         1 <0>         0.1502
     14 C12         0.7367    2.0155    0.2661 C.3       1 <0>         0.1097
     15 H2          0.6482    2.7733    1.0446 H         1 <0>         0.0803
     16 C13        -0.3150    0.9908    0.4879 C.2       1 <0>        -0.1525
     17 C14        -0.1527   -0.2942    0.4717 C.2       1 <0>        -0.1355
     18 C15         1.1799   -0.9197    0.2862 C.3       1 <0>        -0.0479
     19 H3          1.5192   -1.2471    1.2689 H         1 <0>         0.1004
     20 C16         1.1821   -2.1468   -0.6151 C.3       1 <0>         0.0590
     21 H4          0.4619   -2.8606   -0.2153 H         1 <0>         0.1363
     22 C17         0.8134   -1.9003   -2.0558 C.3       1 <0>        -0.0882
     23 O2          0.4964    2.6425   -0.9953 O.3       1 <0>        -0.5359
     24 O3          2.6371    3.2410   -3.6984 O.3       1 <0>        -0.4796
     25 H5          2.4612   -3.8104   -2.3570 H         1 <0>         0.1267
     26 H6          3.4994   -4.5361   -1.1065 H         1 <0>         0.1256
     27 H7          1.7289   -4.6694   -0.9807 H         1 <0>         0.1244
     28 H8          4.5493   -2.3884   -0.8287 H         1 <0>         0.1314
     29 H9          3.4563   -1.6019   -1.9877 H         1 <0>         0.1340
     30 H10         4.3670    0.0825   -0.4709 H         1 <0>         0.1194
     31 H11         3.7955   -0.8428    0.9451 H         1 <0>         0.0984
     32 H12         0.7809   -0.7981   -4.6314 H         1 <0>         0.1324
     33 H13         1.5779    1.4173   -5.2600 H         1 <0>         0.1363
     34 H14        -1.3148    1.3526    0.6772 H         1 <0>         0.1225
     35 H15        -1.0158   -0.9312    0.5970 H         1 <0>         0.1292
     36 H16        -0.2725   -1.9066   -2.1492 H         1 <0>         0.1227
     37 H17         1.2210   -2.7075   -2.6645 H         1 <0>         0.1017
     38 H18        -0.3623    3.0826   -1.0586 H         1 <0>         0.3865
     39 H19         3.5594    3.2780   -3.9865 H         1 <0>         0.3923
     40 N1          2.5173   -2.7921   -0.4927 N.4       1 <0>        -0.3970
     41 H20         2.6774   -3.0298    0.4933 H         1 <0>         0.4294
@<TRIPOS>BOND
     1    1   25 1
     2    1   26 1
     3    1   27 1
     4    1   40 1
     5    2    3 1
     6    2   28 1
     7    2   29 1
     8    2   40 1
     9    3    4 1
    10    3   30 1
    11    3   31 1
    12    4   12 1
    13    4   18 1
    14    4    5 1
    15    5   10 ar
    16    5    6 ar
    17    6   22 1
    18    6    7 ar
    19    7    8 ar
    20    7   32 1
    21    8    9 ar
    22    8   33 1
    23    9   10 ar
    24    9   24 1
    25   10   11 1
    26   11   12 1
    27   12   13 1
    28   12   14 1
    29   14   15 1
    30   14   16 1
    31   14   23 1
    32   16   17 2
    33   16   34 1
    34   17   18 1
    35   17   35 1
    36   18   19 1
    37   18   20 1
    38   20   21 1
    39   20   22 1
    40   20   40 1
    41   22   36 1
    42   22   37 1
    43   23   38 1
    44   24   39 1
    45   40   41 1
@<TRIPOS>MOLECULE
ZINC03875420
   45    49     0     0     0
SMALL
USER_CHARGES

@<TRIPOS>ATOM
      1 C1          0.1871    1.4217    0.0965 C.2       1 <0>        -0.1012
      2 C2          0.0818    0.1160    0.0982 C.2       1 <0>        -0.2375
      3 C3          1.3172   -0.7397   -0.0145 C.3       1 <0>         0.0223
      4 N1          1.3676   -1.6781    1.1146 N.4       1 <0>        -0.3776
      5 C4          0.2328   -2.5982    1.0205 C.3       1 <0>        -0.0143
      6 C5          0.2418   -3.6083    2.1783 C.3       1 <0>        -0.1227
      7 C6          1.5804   -4.3491    2.1135 C.3       1 <0>        -0.0575
      8 C7          1.7110   -4.9715    0.7459 C.ar      1 <0>        -0.1844
      9 C8          2.2775   -4.4063   -0.3712 C.ar      1 <0>        -0.0560
     10 C9          2.2629   -5.1888   -1.5118 C.ar      1 <0>        -0.1259
     11 C10         1.7378   -6.4708   -1.4697 C.ar      1 <0>        -0.0998
     12 C11         1.2215   -7.0515   -0.3130 C.ar      1 <0>         0.1064
     13 C12         1.2265   -6.2698    0.8463 C.ar      1 <0>         0.1514
     14 O1          0.8737   -6.5320    2.1259 O.3       1 <0>        -0.2739
     15 C13         1.6224   -5.5974    2.9871 C.3       1 <0>         0.1098
     16 H1          1.1810   -5.4536    3.9733 H         1 <0>         0.1503
     17 C14         3.0318   -6.2000    3.0118 C.3       1 <0>         0.1140
     18 H2          3.1649   -6.7248    3.9578 H         1 <0>         0.0812
     19 C15         4.1352   -5.2176    2.8617 C.2       1 <0>        -0.1574
     20 C16         4.0183   -3.9760    2.5115 C.2       1 <0>        -0.1302
     21 C17         2.6971   -3.3443    2.2737 C.3       1 <0>        -0.0482
     22 H3          2.4635   -2.7496    3.1568 H         1 <0>         0.1001
     23 C18         2.6550   -2.3903    1.0885 C.3       1 <0>         0.0513
     24 H4          3.4459   -1.6527    1.2245 H         1 <0>         0.1410
     25 C19         2.8726   -3.0395   -0.2677 C.3       1 <0>        -0.0921
     26 O2          3.1335   -7.1527    1.9516 O.3       1 <0>        -0.5426
     27 O3          0.7340   -8.3211   -0.3119 O.3       1 <0>        -0.4834
     28 H5          1.1592    1.8850    0.0144 H         1 <0>         0.1120
     29 H6         -0.6986    2.0350    0.1728 H         1 <0>         0.1237
     30 H7         -0.8903   -0.3473    0.1804 H         1 <0>         0.1340
     31 H8          1.2882   -1.2982   -0.9501 H         1 <0>         0.1381
     32 H9          2.2024   -0.1038    0.0018 H         1 <0>         0.1336
     33 H10        -0.6947   -2.0264    1.0520 H         1 <0>         0.1350
     34 H11         0.2872   -3.1376    0.0749 H         1 <0>         0.1329
     35 H12         0.1522   -3.0844    3.1299 H         1 <0>         0.0983
     36 H13        -0.5802   -4.3146    2.0623 H         1 <0>         0.1199
     37 H14         2.6612   -4.7997   -2.4372 H         1 <0>         0.1326
     38 H15         1.7286   -7.0502   -2.3812 H         1 <0>         0.1361
     39 H16         5.1343   -5.5735    3.0651 H         1 <0>         0.1230
     40 H17         4.9115   -3.3815    2.3883 H         1 <0>         0.1297
     41 H18         3.9443   -3.1096   -0.4540 H         1 <0>         0.1213
     42 H19         2.4277   -2.4053   -1.0345 H         1 <0>         0.1020
     43 H20         3.9964   -7.5851    1.8927 H         1 <0>         0.3861
     44 H21         1.3955   -8.9963   -0.1081 H         1 <0>         0.3961
     45 H22         1.2971   -1.1585    1.9766 H         1 <0>         0.4226
@<TRIPOS>BOND
     1    1    2 2
     2    1   28 1
     3    1   29 1
     4    2    3 1
     5    2   30 1
     6    3    4 1
     7    3   31 1
     8    3   32 1
     9    4   23 1
    10    4    5 1
    11    4   45 1
    12    5    6 1
    13    5   33 1
    14    5   34 1
    15    6    7 1
    16    6   35 1
    17    6   36 1
    18    7   15 1
    19    7   21 1
    20    7    8 1
    21    8   13 ar
    22    8    9 ar
    23    9   25 1
    24    9   10 ar
    25   10   11 ar
    26   10   37 1
    27   11   12 ar
    28   11   38 1
    29   12   13 ar
    30   12   27 1
    31   13   14 1
    32   14   15 1
    33   15   16 1
    34   15   17 1
    35   17   18 1
    36   17   19 1
    37   17   26 1
    38   19   20 2
    39   19   39 1
    40   20   21 1
    41   20   40 1
    42   21   22 1
    43   21   23 1
    44   23   24 1
    45   23   25 1
    46   25   41 1
    47   25   42 1
    48   26   43 1
    49   27   44 1
@<TRIPOS>MOLECULE
ZINC26259212
   45    49     0     0     0
SMALL
USER_CHARGES
allylBLAHdiol
@<TRIPOS>ATOM
      1 C1          5.2921    5.2738   -2.9729 C.2       1 <0>        -0.1102
      2 C2          5.1974    3.9799   -2.7910 C.2       1 <0>        -0.2396
      3 C3          5.0109    3.4260   -1.4020 C.3       1 <0>         0.0250
      4 N1          3.8150    2.5734   -1.3713 N.4       1 <0>        -0.4013
      5 C4          3.8092    1.6187   -2.5010 C.3       1 <0>        -0.0067
      6 C5          2.4885    0.8498   -2.5210 C.3       1 <0>        -0.1190
      7 C6          2.1763    0.2354   -1.1780 C.3       1 <0>        -0.0423
      8 C7          3.1312   -0.8620   -0.7492 C.ar      1 <0>        -0.1503
      9 C8          4.4155   -0.6241   -0.3032 C.ar      1 <0>        -0.0935
     10 C9          5.1560   -1.7637   -0.0517 C.ar      1 <0>        -0.0853
     11 C10         4.5783   -3.0144   -0.2133 C.ar      1 <0>        -0.1313
     12 C11         3.2496   -3.2183   -0.5804 C.ar      1 <0>         0.1697
     13 C12         2.4751   -2.0719   -0.8118 C.ar      1 <0>         0.0505
     14 O1          1.1669   -1.8902   -1.0734 O.3       1 <0>        -0.2817
     15 C13         0.8333   -0.4937   -1.1826 C.3       1 <0>         0.1157
     16 H1          0.2370   -0.3683   -2.0984 H         1 <0>         0.1282
     17 C14         0.0021   -0.0041    0.0020 C.3       1 <0>         0.1223
     18 H2         -1.0196   -0.4106   -0.0281 H         1 <0>         0.0779
     19 C15        -0.0185    1.5136    0.0104 C.2       1 <0>        -0.1676
     20 C16         1.1604    2.1422    0.0025 C.2       1 <0>        -0.1719
     21 C17         2.3509    1.2078    0.0025 C.3       1 <0>        -0.0651
     22 H3          2.3398    0.7556    1.0052 H         1 <0>         0.1407
     23 C18         3.7302    1.8219   -0.0945 C.3       1 <0>         0.0537
     24 H4          3.8456    2.4695    0.7871 H         1 <0>         0.1497
     25 C19         4.8649    0.7876   -0.1357 C.3       1 <0>        -0.0853
     26 O2          0.5805   -0.4796    1.2191 O.3       1 <0>        -0.5807
     27 O3          2.7291   -4.4681   -0.7084 O.3       1 <0>        -0.4984
     28 H5          5.4282    5.6782   -3.9868 H         1 <0>         0.1256
     29 H6          5.2355    5.9559   -2.1118 H         1 <0>         0.1141
     30 H7          5.2540    3.2978   -3.6521 H         1 <0>         0.1365
     31 H8          5.8929    2.8307   -1.1232 H         1 <0>         0.1326
     32 H9          4.8883    4.2554   -0.6899 H         1 <0>         0.1327
     33 H10         3.9245    2.1688   -3.4465 H         1 <0>         0.1396
     34 H11         4.6418    0.9092   -2.3857 H         1 <0>         0.1343
     35 H12         1.6695    1.5347   -2.7859 H         1 <0>         0.0978
     36 H13         2.5459    0.0417   -3.2651 H         1 <0>         0.1160
     37 H14         6.1834   -1.6805    0.2707 H         1 <0>         0.1362
     38 H15         5.1964   -3.8837   -0.0443 H         1 <0>         0.1383
     39 H16        -0.9520    2.0954    0.0225 H         1 <0>         0.1395
     40 H17         1.1975    3.2416   -0.0032 H         1 <0>         0.1382
     41 H18         5.4193    0.8862    0.8092 H         1 <0>         0.1125
     42 H19         5.5187    1.0663   -0.9752 H         1 <0>         0.0957
     43 H20         0.1169   -0.2266    2.1840 H         1 <0>         0.4184
     44 H21         1.6764   -4.5983   -0.9997 H         1 <0>         0.4490
     45 H22         2.9474    3.2434   -1.4627 H         1 <0>         0.4397
@<TRIPOS>BOND
     1    1    2 2
     2    1   28 1
     3    1   29 1
     4    2    3 1
     5    2   30 1
     6    3    4 1
     7    3   31 1
     8    3   32 1
     9    4   23 1
    10    4    5 1
    11    4   45 1
    12    5    6 1
    13    5   33 1
    14    5   34 1
    15    6    7 1
    16    6   35 1
    17    6   36 1
    18    7   15 1
    19    7   21 1
    20    7    8 1
    21    8   13 ar
    22    8    9 ar
    23    9   25 1
    24    9   10 ar
    25   10   11 ar
    26   10   37 1
    27   11   12 ar
    28   11   38 1
    29   12   13 ar
    30   12   27 1
    31   13   14 1
    32   14   15 1
    33   15   16 1
    34   15   17 1
    35   17   18 1
    36   17   19 1
    37   17   26 1
    38   19   20 2
    39   19   39 1
    40   20   21 1
    41   20   40 1
    42   21   22 1
    43   21   23 1
    44   23   24 1
    45   23   25 1
    46   25   41 1
    47   25   42 1
    48   26   43 1
    49   27   44 1
@<TRIPOS>MOLECULE
ZINC03874479
   58    65     0     0     0
SMALL
USER_CHARGES
cyclopropylmethylBLAHdiol
@<TRIPOS>ATOM
      1 C1          2.9104    3.8420   -0.0057 C.ar      1 <0>        -0.1324
      2 C2          3.3419    2.5263   -0.0286 C.ar      1 <0>        -0.0968
      3 C3          2.4593    1.4607   -0.0259 C.ar      1 <0>        -0.1183
      4 C4          1.1008    1.7658    0.0010 C.ar      1 <0>         0.0897
      5 C5          0.6593    3.1181    0.0309 C.ar      1 <0>        -0.0740
      6 C6          1.5800    4.1739    0.0245 C.ar      1 <0>        -0.0773
      7 C7         -0.7700    3.0646    0.0598 C.2       1 <0>        -0.1678
      8 C8         -1.1262    1.7230    0.0162 C.2       1 <0>         0.0837
      9 N1         -0.0111    0.9658    0.0074 N.pl3     1 <0>        -0.5457
     10 H1          0.0021   -0.0041    0.0020 H         1 <0>         0.4221
     11 C9         -2.5816    1.5112   -0.0422 C.3       1 <0>         0.1626
     12 H2         -2.9244    2.0520   -0.9243 H         1 <0>         0.0952
     13 C10        -3.2046    2.2676    1.1373 C.3       1 <0>        -0.0563
     14 C11        -3.1720    1.6846    2.5425 C.3       1 <0>        -0.0910
     15 C12        -4.2373    2.5141    3.2967 C.3       1 <0>         0.0044
     16 C13        -3.9101    4.5273    1.8149 C.3       1 <0>         0.0571
     17 H3         -3.6274    5.5791    1.8584 H         1 <0>         0.1526
     18 C14        -2.7672    3.7006    1.2598 C.3       1 <0>         0.1355
     19 C15        -1.8510    4.1372    0.1494 C.3       1 <0>        -0.0443
     20 O1         -1.8811    3.6185    2.3779 O.3       1 <0>        -0.5614
     21 C16        -5.2504    4.4002    1.1160 C.3       1 <0>        -0.0933
     22 C17        -5.6062    3.0317    0.6566 C.ar      1 <0>        -0.0633
     23 C18        -4.6108    2.0940    0.6387 C.ar      1 <0>        -0.1732
     24 C19        -4.6380    0.8223    0.0560 C.ar      1 <0>         0.0717
     25 C20        -5.8678    0.3938   -0.4305 C.ar      1 <0>         0.1324
     26 C21        -6.9291    1.2962   -0.3389 C.ar      1 <0>        -0.1100
     27 C22        -6.8205    2.5836    0.1710 C.ar      1 <0>        -0.0947
     28 O2         -6.0291   -0.8442   -0.9698 O.3       1 <0>        -0.4801
     29 O3         -3.3534    0.3148    0.0205 O.3       1 <0>        -0.2585
     30 C23        -5.1376    4.6559    3.9286 C.3       1 <0>         0.0229
     31 C24        -5.1135    4.2203    5.3951 C.3       1 <0>        -0.2112
     32 C25        -6.3404    3.4811    5.9328 C.3       1 <0>        -0.1672
     33 C26        -6.0703    4.9267    6.3577 C.3       1 <0>        -0.1500
     34 H4          3.6459    4.6329   -0.0115 H         1 <0>         0.1235
     35 H5          4.4028    2.3253   -0.0496 H         1 <0>         0.1274
     36 H6          2.8081    0.4388   -0.0442 H         1 <0>         0.1326
     37 H7          1.2564    5.2041    0.0422 H         1 <0>         0.1293
     38 H8         -3.4418    0.6286    2.5279 H         1 <0>         0.1075
     39 H9         -2.1901    1.8240    2.9948 H         1 <0>         0.1214
     40 H10        -4.2192    2.2407    4.3517 H         1 <0>         0.1228
     41 H11        -5.2110    2.2438    2.8880 H         1 <0>         0.1230
     42 H12        -1.4044    5.1025    0.3877 H         1 <0>         0.1001
     43 H13        -2.4004    4.1970   -0.7902 H         1 <0>         0.0913
     44 H14        -1.4455    4.4537    2.5967 H         1 <0>         0.3794
     45 H15        -5.2463    5.0605    0.2487 H         1 <0>         0.1291
     46 H16        -6.0293    4.7446    1.7963 H         1 <0>         0.1068
     47 H17        -7.8984    0.9720   -0.6879 H         1 <0>         0.1444
     48 H18        -7.6832    3.2331    0.1888 H         1 <0>         0.1420
     49 H19        -6.2794   -1.5231   -0.3283 H         1 <0>         0.4014
     50 H20        -4.9723    5.7314    3.8662 H         1 <0>         0.1285
     51 H21        -6.1063    4.4113    3.4928 H         1 <0>         0.1331
     52 H22        -4.1382    3.9245    5.7816 H         1 <0>         0.1236
     53 H23        -7.1648    3.3051    5.2418 H         1 <0>         0.1050
     54 H24        -6.1724    2.6992    6.6734 H         1 <0>         0.1089
     55 H25        -5.7246    5.0952    7.3776 H         1 <0>         0.1113
     56 H26        -6.7166    5.7020    5.9462 H         1 <0>         0.1072
     57 N2         -4.0325    3.9897    3.2451 N.4       1 <0>        -0.3911
     58 H27        -3.1604    4.2067    3.7417 H         1 <0>         0.4282
@<TRIPOS>BOND
     1    1    6 ar
     2    1    2 ar
     3    1   34 1
     4    2    3 ar
     5    2   35 1
     6    3    4 ar
     7    3   36 1
     8    4    9 1
     9    4    5 ar
    10    5    6 ar
    11    5    7 1
    12    6   37 1
    13    7   19 1
    14    7    8 2
    15    8    9 1
    16    8   11 1
    17    9   10 1
    18   11   12 1
    19   11   29 1
    20   11   13 1
    21   13   18 1
    22   13   23 1
    23   13   14 1
    24   14   15 1
    25   14   38 1
    26   14   39 1
    27   15   40 1
    28   15   41 1
    29   15   57 1
    30   16   17 1
    31   16   18 1
    32   16   21 1
    33   16   57 1
    34   18   19 1
    35   18   20 1
    36   19   42 1
    37   19   43 1
    38   20   44 1
    39   21   22 1
    40   21   45 1
    41   21   46 1
    42   22   27 ar
    43   22   23 ar
    44   23   24 ar
    45   24   25 ar
    46   24   29 1
    47   25   26 ar
    48   25   28 1
    49   26   27 ar
    50   26   47 1
    51   27   48 1
    52   28   49 1
    53   30   31 1
    54   30   50 1
    55   30   51 1
    56   30   57 1
    57   31   33 1
    58   31   32 1
    59   31   52 1
    60   32   33 1
    61   32   53 1
    62   32   54 1
    63   33   55 1
    64   33   56 1
    65   57   58 1
@<TRIPOS>MOLECULE
ZINC03995590
   94   106     0     0     0
SMALL
USER_CHARGES
bis(cyclopropylmethyl)BLAHtetrol
@<TRIPOS>ATOM
      1 C1         -4.2408    4.0532   -3.2394 C.ar      1 <0>        -0.1134
      2 C2         -3.9584    2.9337   -4.0047 C.ar      1 <0>        -0.0957
      3 C3         -3.4900    1.7383   -3.4645 C.ar      1 <0>         0.1094
      4 C4         -3.3426    1.6840   -2.0731 C.ar      1 <0>         0.1114
      5 C5         -3.7142    2.7988   -1.3374 C.ar      1 <0>        -0.1823
      6 C6         -4.0855    4.0158   -1.8650 C.ar      1 <0>        -0.0582
      7 C7         -4.2780    5.1826   -0.9520 C.3       1 <0>        -0.0880
      8 C8         -4.0391    4.8548    0.5130 C.3       1 <0>         0.0115
      9 H1         -3.6893    5.7683    0.9939 H         1 <0>         0.1392
     10 C9         -2.9780    3.7683    0.7399 C.3       1 <0>         0.1527
     11 C10        -3.5100    2.4821    0.1226 C.3       1 <0>        -0.0219
     12 C11        -4.8355    2.0867    0.7671 C.3       1 <0>        -0.1286
     13 C12        -5.8408    3.2279    0.5811 C.3       1 <0>        -0.0020
     14 C13        -6.2781    5.5492    1.1099 C.3       1 <0>         0.0260
     15 C14        -7.4603    5.2115    2.0206 C.3       1 <0>        -0.2142
     16 C15        -8.8285    5.0242    1.3619 C.3       1 <0>        -0.1670
     17 C16        -8.5446    6.2768    2.1948 C.3       1 <0>        -0.1470
     18 C17        -2.5614    1.2894    0.0418 C.3       1 <0>         0.1736
     19 H2         -2.7499    0.5782    0.8460 H         1 <0>         0.1394
     20 O1         -2.8749    0.7162   -1.2570 O.3       1 <0>        -0.2785
     21 C18        -1.1278    1.7451    0.0163 C.2       1 <0>         0.0152
     22 C19        -0.7352    3.0399    0.0193 C.2       1 <0>        -0.1254
     23 C20         0.6630    3.0595    0.0048 C.2       1 <0>        -0.1242
     24 C21         1.0842    1.7753    0.0012 C.2       1 <0>         0.0123
     25 N1         -0.0111    0.9658    0.0074 N.pl3     1 <0>        -0.5109
     26 H3          0.0021   -0.0041    0.0020 H         1 <0>         0.4259
     27 C22         2.5295    1.3513   -0.0087 C.3       1 <0>         0.1722
     28 H4          2.7638    0.7176   -0.8640 H         1 <0>         0.1455
     29 C23         3.4428    2.5749    0.0709 C.3       1 <0>        -0.0234
     30 C24         4.8494    2.2442   -0.4175 C.3       1 <0>        -0.1282
     31 C25         5.7854    3.4013   -0.0504 C.3       1 <0>        -0.0016
     32 C26         3.9344    4.9735   -0.1492 C.3       1 <0>         0.0088
     33 H5          3.6143    5.8881   -0.6483 H         1 <0>         0.1384
     34 C27         2.9439    3.8686   -0.5553 C.3       1 <0>         0.1542
     35 C28         1.5707    4.2581    0.0037 C.3       1 <0>        -0.0683
     36 O2          2.8992    3.7431   -1.9781 O.3       1 <0>        -0.5369
     37 C29         3.9583    5.2454    1.3465 C.3       1 <0>        -0.0866
     38 C30         3.6963    4.0323    2.1788 C.ar      1 <0>        -0.0592
     39 C31         3.4539    2.8277    1.5575 C.ar      1 <0>        -0.1765
     40 C32         3.0679    1.6548    2.1891 C.ar      1 <0>         0.1085
     41 C33         3.0234    1.6495    3.5874 C.ar      1 <0>         0.1115
     42 C34         3.3380    2.8428    4.2339 C.ar      1 <0>        -0.0980
     43 C35         3.6585    4.0111    3.5616 C.ar      1 <0>        -0.1114
     44 O3          2.6878    0.5306    4.2839 O.3       1 <0>        -0.4777
     45 O4          2.7993    0.6991    1.2704 O.3       1 <0>        -0.2801
     46 C36         6.2059    5.7573   -0.4118 C.3       1 <0>         0.0258
     47 C37         7.5054    5.4992   -1.1771 C.3       1 <0>        -0.2144
     48 C38         8.7843    5.3184   -0.3570 C.3       1 <0>        -0.1670
     49 C39         8.5655    6.6022   -1.1614 C.3       1 <0>        -0.1470
     50 C40        -1.6879    4.2064    0.0330 C.3       1 <0>        -0.0685
     51 O5         -2.7343    3.5798    2.1353 O.3       1 <0>        -0.5353
     52 O6         -3.1890    0.6720   -4.2531 O.3       1 <0>        -0.4775
     53 H6         -4.5841    4.9588   -3.7174 H         1 <0>         0.1408
     54 H7         -4.1084    2.9906   -5.0728 H         1 <0>         0.1447
     55 H8         -5.2981    5.5495   -1.0653 H         1 <0>         0.1062
     56 H9         -3.5889    5.9731   -1.2493 H         1 <0>         0.1253
     57 H10        -5.2172    1.1832    0.2915 H         1 <0>         0.1198
     58 H11        -4.6833    1.9025    1.8306 H         1 <0>         0.1075
     59 H12        -6.0270    3.3786   -0.4823 H         1 <0>         0.1343
     60 H13        -6.7754    2.9741    1.0813 H         1 <0>         0.1389
     61 H14        -5.8132    6.4758    1.4465 H         1 <0>         0.1326
     62 H15        -6.6315    5.6711    0.0860 H         1 <0>         0.1327
     63 H16        -7.2265    4.5858    2.8819 H         1 <0>         0.1250
     64 H17        -8.8864    5.1415    0.2798 H         1 <0>         0.1064
     65 H18        -9.4950    4.2755    1.7902 H         1 <0>         0.1115
     66 H19        -9.0245    6.3516    3.1706 H         1 <0>         0.1136
     67 H20        -8.4156    7.2183    1.6609 H         1 <0>         0.1081
     68 H21         5.1962    1.3281    0.0607 H         1 <0>         0.1205
     69 H22         4.8383    2.1099   -1.4992 H         1 <0>         0.1079
     70 H23         5.8294    3.5037    1.0339 H         1 <0>         0.1339
     71 H24         6.7840    3.1984   -0.4375 H         1 <0>         0.1386
     72 H25         1.6857    4.6264    1.0231 H         1 <0>         0.0973
     73 H26         1.1352    5.0407   -0.6175 H         1 <0>         0.0881
     74 H27         2.5883    4.5376   -2.4334 H         1 <0>         0.3928
     75 H28         4.9364    5.6462    1.6125 H         1 <0>         0.1059
     76 H29         3.2008    5.9945    1.5770 H         1 <0>         0.1246
     77 H30         3.3314    2.8581    5.3137 H         1 <0>         0.1437
     78 H31         3.8802    4.9090    4.1195 H         1 <0>         0.1402
     79 H32         1.7406    0.4455    4.4588 H         1 <0>         0.3963
     80 H33         5.7558    6.6859   -0.7628 H         1 <0>         0.1325
     81 H34         6.4217    5.8381    0.6536 H         1 <0>         0.1325
     82 H35         7.4049    4.9107   -2.0891 H         1 <0>         0.1252
     83 H36         8.6999    5.3833    0.7278 H         1 <0>         0.1062
     84 H37         9.5253    4.6112   -0.7296 H         1 <0>         0.1114
     85 H38         9.1628    6.7392   -2.0628 H         1 <0>         0.1136
     86 H39         8.3371    7.5119   -0.6061 H         1 <0>         0.1080
     87 H40        -1.2390    5.0408    0.5719 H         1 <0>         0.0875
     88 H41        -1.9132    4.5085   -0.9897 H         1 <0>         0.0978
     89 H42        -2.4218    4.3736    2.5907 H         1 <0>         0.3912
     90 H43        -2.2713    0.6546   -4.5575 H         1 <0>         0.3970
     91 N2         -5.2894    4.4569    1.1948 N.4       1 <0>        -0.3861
     92 H44        -5.0834    4.2703    2.1832 H         1 <0>         0.4321
     93 N3          5.2765    4.6435   -0.6752 N.4       1 <0>        -0.3850
     94 H45         5.2085    4.4998   -1.6896 H         1 <0>         0.4327
@<TRIPOS>BOND
     1    1    6 ar
     2    1    2 ar
     3    1   53 1
     4    2    3 ar
     5    2   54 1
     6    3    4 ar
     7    3   52 1
     8    4   20 1
     9    4    5 ar
    10    5   11 1
    11    5    6 ar
    12    6    7 1
    13    7    8 1
    14    7   55 1
    15    7   56 1
    16    8    9 1
    17    8   10 1
    18    8   91 1
    19   10   50 1
    20   10   11 1
    21   10   51 1
    22   11   12 1
    23   11   18 1
    24   12   13 1
    25   12   57 1
    26   12   58 1
    27   13   59 1
    28   13   60 1
    29   13   91 1
    30   14   15 1
    31   14   61 1
    32   14   62 1
    33   14   91 1
    34   15   17 1
    35   15   16 1
    36   15   63 1
    37   16   17 1
    38   16   64 1
    39   16   65 1
    40   17   66 1
    41   17   67 1
    42   18   19 1
    43   18   20 1
    44   18   21 1
    45   21   25 1
    46   21   22 2
    47   22   23 1
    48   22   50 1
    49   23   35 1
    50   23   24 2
    51   24   25 1
    52   24   27 1
    53   25   26 1
    54   27   28 1
    55   27   45 1
    56   27   29 1
    57   29   34 1
    58   29   39 1
    59   29   30 1
    60   30   31 1
    61   30   68 1
    62   30   69 1
    63   31   70 1
    64   31   71 1
    65   31   93 1
    66   32   33 1
    67   32   34 1
    68   32   37 1
    69   32   93 1
    70   34   35 1
    71   34   36 1
    72   35   72 1
    73   35   73 1
    74   36   74 1
    75   37   38 1
    76   37   75 1
    77   37   76 1
    78   38   43 ar
    79   38   39 ar
    80   39   40 ar
    81   40   41 ar
    82   40   45 1
    83   41   42 ar
    84   41   44 1
    85   42   43 ar
    86   42   77 1
    87   43   78 1
    88   44   79 1
    89   46   47 1
    90   46   80 1
    91   46   81 1
    92   46   93 1
    93   47   49 1
    94   47   48 1
    95   47   82 1
    96   48   49 1
    97   48   83 1
    98   48   84 1
    99   49   85 1
   100   49   86 1
   101   50   87 1
   102   50   88 1
   103   51   89 1
   104   52   90 1
   105   91   92 1
   106   93   94 1
@<TRIPOS>MOLECULE
ZINC00033882
   23    23     0     0     0
SMALL
USER_CHARGES

@<TRIPOS>ATOM
      1 C1         -0.0167    1.3779    0.0096 C.ar      1 <0>        -0.1006
      2 C2          1.1696    2.0886    0.0021 C.ar      1 <0>        -0.1264
      3 C3          2.3802    1.4154   -0.0130 C.ar      1 <0>         0.0999
      4 C4          2.3990    0.0236   -0.0206 C.ar      1 <0>         0.0875
      5 C5          1.2071   -0.6822   -0.0130 C.ar      1 <0>        -0.1216
      6 C6          0.0021   -0.0041    0.0020 C.ar      1 <0>        -0.1052
      7 C7         -1.2936   -0.7736    0.0102 C.3       1 <0>        -0.1010
      8 C8         -1.7458   -1.0263   -1.4294 C.3       1 <0>        -0.0078
      9 N1         -3.0088   -1.7764   -1.4215 N.4       1 <0>        -0.6379
     10 O1          3.5850   -0.6417   -0.0359 O.3       1 <0>        -0.4857
     11 O2          3.5476    2.1129   -0.0209 O.3       1 <0>        -0.4857
     12 H1         -0.9598    1.9038    0.0259 H         1 <0>         0.1332
     13 H2          1.1522    3.1684    0.0077 H         1 <0>         0.1416
     14 H3          1.2190   -1.7621   -0.0189 H         1 <0>         0.1358
     15 H4         -1.1467   -1.7271    0.5175 H         1 <0>         0.0975
     16 H5         -2.0555   -0.1967    0.5344 H         1 <0>         0.0990
     17 H6         -1.8927   -0.0728   -1.9368 H         1 <0>         0.1365
     18 H7         -0.9839   -1.6032   -1.9536 H         1 <0>         0.1360
     19 H8         -2.8729   -2.6590   -0.9518 H         1 <0>         0.4357
     20 H9         -3.7141   -1.2424   -0.9362 H         1 <0>         0.4357
     21 H10         3.9367   -0.8389    0.8430 H         1 <0>         0.3958
     22 H11         3.8938    2.3101    0.8602 H         1 <0>         0.3975
     23 H12        -3.3071   -1.9430   -2.3709 H         1 <0>         0.4400
@<TRIPOS>BOND
     1    1    6 ar
     2    1    2 ar
     3    1   12 1
     4    2    3 ar
     5    2   13 1
     6    3    4 ar
     7    3   11 1
     8    4    5 ar
     9    4   10 1
    10    5    6 ar
    11    5   14 1
    12    6    7 1
    13    7    8 1
    14    7   15 1
    15    7   16 1
    16    8    9 1
    17    8   17 1
    18    8   18 1
    19    9   19 1
    20    9   20 1
    21    9   23 1
    22   10   21 1
    23   11   22 1
@<TRIPOS>MOLECULE
ZINC05839491
   40    41     0     0     0
SMALL
USER_CHARGES
1-(4-fluorophenyl)-4-(4-hydroxy-1-piperidyl)-butan-1-one
@<TRIPOS>ATOM
      1 C1         -0.5872   -2.8721   -0.0135 C.ar      1 <0>        -0.0431
      2 C2         -0.8274   -4.2284   -0.0127 C.ar      1 <0>        -0.1669
      3 C3         -2.1300   -4.7053   -0.0028 C.ar      1 <0>         0.1445
      4 C4         -3.1987   -3.8210    0.0121 C.ar      1 <0>        -0.1649
      5 C5         -2.9724   -2.4623    0.0172 C.ar      1 <0>        -0.0255
      6 C6         -1.6607   -1.9746    0.0073 C.ar      1 <0>        -0.1974
      7 C7         -1.4117   -0.5257    0.0127 C.2       1 <0>         0.4028
      8 O1         -2.3441    0.2498    0.0258 O.2       1 <0>        -0.4475
      9 C8          0.0021   -0.0041    0.0020 C.3       1 <0>        -0.1544
     10 C9         -0.0187    1.5258    0.0104 C.3       1 <0>        -0.1458
     11 C10         1.4167    2.0553   -0.0004 C.3       1 <0>        -0.0057
     12 C11         0.8156    4.0494   -1.2344 C.3       1 <0>        -0.0029
     13 C12         0.6771    5.5700   -1.1312 C.3       1 <0>        -0.1848
     14 C13         2.0571    6.1882   -0.8901 C.3       1 <0>         0.0963
     15 C14         2.6608    5.5886    0.3829 C.3       1 <0>        -0.1457
     16 C15         2.7418    4.0675    0.2358 C.3       1 <0>         0.0036
     17 O2          1.9264    7.6028   -0.7363 O.3       1 <0>        -0.5534
     18 F1         -2.3588   -6.0367   -0.0072 F         1 <0>        -0.1254
     19 H1          0.4274   -2.5021   -0.0257 H         1 <0>         0.1409
     20 H2          0.0003   -4.9222   -0.0242 H         1 <0>         0.1471
     21 H3         -4.2105   -4.1987    0.0201 H         1 <0>         0.1481
     22 H4         -3.8053   -1.7749    0.0292 H         1 <0>         0.1461
     23 H5          0.4702   -0.3266   -0.8207 H         1 <0>         0.1003
     24 H6          0.5293   -0.3651    0.8851 H         1 <0>         0.1130
     25 H7         -0.5459    1.8868   -0.8726 H         1 <0>         0.0945
     26 H8         -0.5289    1.8773    0.9072 H         1 <0>         0.0957
     27 H9          1.9439    1.6943    0.8826 H         1 <0>         0.1331
     28 H10         1.9269    1.7038   -0.8972 H         1 <0>         0.1337
     29 H11         1.4654    3.8001   -2.0733 H         1 <0>         0.1326
     30 H12        -0.1672    3.6051   -1.3918 H         1 <0>         0.1339
     31 H13         0.0164    5.8198   -0.3010 H         1 <0>         0.0970
     32 H14         0.2599    5.9618   -2.0589 H         1 <0>         0.1145
     33 H15         2.7065    5.9715   -1.7383 H         1 <0>         0.0729
     34 H16         2.0314    5.8386    1.2369 H         1 <0>         0.0963
     35 H17         3.6613    5.9931    0.5366 H         1 <0>         0.1199
     36 H18         3.1581    3.6362    1.1462 H         1 <0>         0.1360
     37 H19         3.3826    3.8180   -0.6100 H         1 <0>         0.1332
     38 H20         1.5495    8.0491   -1.5069 H         1 <0>         0.3945
     39 N1          1.3793    3.5320    0.0307 N.4       1 <0>        -0.3965
     40 H21         0.7821    3.8340    0.8095 H         1 <0>         0.4293
@<TRIPOS>BOND
     1    1    6 ar
     2    1    2 ar
     3    1   19 1
     4    2    3 ar
     5    2   20 1
     6    3    4 ar
     7    3   18 1
     8    4    5 ar
     9    4   21 1
    10    5    6 ar
    11    5   22 1
    12    6    7 1
    13    7    8 2
    14    7    9 1
    15    9   10 1
    16    9   23 1
    17    9   24 1
    18   10   11 1
    19   10   25 1
    20   10   26 1
    21   11   27 1
    22   11   28 1
    23   11   39 1
    24   12   13 1
    25   12   29 1
    26   12   30 1
    27   12   39 1
    28   13   14 1
    29   13   31 1
    30   13   32 1
    31   14   15 1
    32   14   17 1
    33   14   33 1
    34   15   16 1
    35   15   34 1
    36   15   35 1
    37   16   36 1
    38   16   37 1
    39   16   39 1
    40   17   38 1
    41   39   40 1
@<TRIPOS>MOLECULE
ZINC02522669
   54    56     0     0     0
SMALL
USER_CHARGES

@<TRIPOS>ATOM
      1 C1         -4.1700   -4.6057   -0.1771 C.3       1 <0>        -0.1450
      2 C2         -2.7436   -4.0614   -0.0761 C.3       1 <0>        -0.1421
      3 C3         -2.7798   -2.5548   -0.0739 C.2       1 <0>         0.5109
      4 O1         -3.8315   -1.9732   -0.2372 O.2       1 <0>        -0.4896
      5 N1         -1.6434   -1.8538    0.1095 N.am      1 <0>        -0.5527
      6 C4         -1.6940   -0.4619    0.2437 C.ar      1 <0>         0.1484
      7 C5         -0.5193    0.2786    0.2615 C.ar      1 <0>        -0.1862
      8 C6         -0.5727    1.6523    0.3941 C.ar      1 <0>        -0.0955
      9 C7         -1.7941    2.2904    0.5092 C.ar      1 <0>        -0.1364
     10 C8         -2.9656    1.5559    0.4923 C.ar      1 <0>        -0.0851
     11 C9         -2.9193    0.1825    0.3537 C.ar      1 <0>        -0.1559
     12 C10        -0.3552   -2.5490    0.1684 C.3       1 <0>         0.1259
     13 C11         0.3795   -2.1577    1.4538 C.3       1 <0>        -0.1795
     14 C12         1.7567   -2.8246    1.4708 C.3       1 <0>        -0.0013
     15 N2          2.5335   -2.3811    0.3071 N.4       1 <0>        -0.3871
     16 C13         1.8713   -2.8155   -0.9288 C.3       1 <0>        -0.0079
     17 C14         0.4986   -2.1483   -1.0381 C.3       1 <0>        -0.1782
     18 C15         3.8811   -2.9625    0.3692 C.3       1 <0>        -0.0064
     19 C16         4.7309   -2.4036   -0.7737 C.3       1 <0>        -0.1003
     20 C17         6.1134   -3.0001   -0.7099 C.ar      1 <0>        -0.1090
     21 C18         7.1017   -2.3767    0.0286 C.ar      1 <0>        -0.1100
     22 C19         8.3698   -2.9239    0.0871 C.ar      1 <0>        -0.1136
     23 C20         8.6494   -4.0947   -0.5925 C.ar      1 <0>        -0.1037
     24 C21         7.6608   -4.7186   -1.3303 C.ar      1 <0>        -0.1139
     25 C22         6.3916   -4.1737   -1.3853 C.ar      1 <0>        -0.1102
     26 H1         -4.1438   -5.6953   -0.1787 H         1 <0>         0.0700
     27 H2         -4.7529   -4.2575    0.6756 H         1 <0>         0.0658
     28 H3         -4.6293   -4.2519   -1.1001 H         1 <0>         0.0681
     29 H4         -2.2842   -4.4152    0.8469 H         1 <0>         0.0959
     30 H5         -2.1606   -4.4096   -0.9288 H         1 <0>         0.0976
     31 H6          0.4349   -0.2192    0.1721 H         1 <0>         0.1211
     32 H7          0.3405    2.2288    0.4084 H         1 <0>         0.1268
     33 H8         -1.8331    3.3647    0.6128 H         1 <0>         0.1271
     34 H9         -3.9179    2.0571    0.5827 H         1 <0>         0.1309
     35 H10        -3.8348   -0.3902    0.3354 H         1 <0>         0.1750
     36 H11        -0.5215   -3.6262    0.1557 H         1 <0>         0.1190
     37 H12         0.4990   -1.0749    1.4896 H         1 <0>         0.1124
     38 H13        -0.1963   -2.4897    2.3177 H         1 <0>         0.1214
     39 H14         2.2824   -2.5483    2.3848 H         1 <0>         0.1385
     40 H15         1.6360   -3.9073    1.4353 H         1 <0>         0.1337
     41 H16         2.4817   -2.5325   -1.7863 H         1 <0>         0.1394
     42 H17         1.7482   -3.8984   -0.9131 H         1 <0>         0.1347
     43 H18         0.0078   -2.4735   -1.9554 H         1 <0>         0.1207
     44 H19         0.6206   -1.0652   -1.0541 H         1 <0>         0.1092
     45 H20         4.3428   -2.7082    1.3233 H         1 <0>         0.1345
     46 H21         3.8138   -4.0464    0.2756 H         1 <0>         0.1333
     47 H22         4.2691   -2.6579   -1.7278 H         1 <0>         0.0951
     48 H23         4.7982   -1.3197   -0.6800 H         1 <0>         0.0953
     49 H24         6.8832   -1.4620    0.5596 H         1 <0>         0.1242
     50 H25         9.1422   -2.4364    0.6635 H         1 <0>         0.1296
     51 H26         9.6404   -4.5218   -0.5474 H         1 <0>         0.1299
     52 H27         7.8794   -5.6331   -1.8616 H         1 <0>         0.1295
     53 H28         5.6182   -4.6631   -1.9587 H         1 <0>         0.1235
     54 H29         2.6030   -1.3745    0.3142 H         1 <0>         0.4225
@<TRIPOS>BOND
     1    1    2 1
     2    1   26 1
     3    1   27 1
     4    1   28 1
     5    2    3 1
     6    2   29 1
     7    2   30 1
     8    3    4 2
     9    3    5 am
    10    5    6 1
    11    5   12 1
    12    6   11 ar
    13    6    7 ar
    14    7    8 ar
    15    7   31 1
    16    8    9 ar
    17    8   32 1
    18    9   10 ar
    19    9   33 1
    20   10   11 ar
    21   10   34 1
    22   11   35 1
    23   12   17 1
    24   12   13 1
    25   12   36 1
    26   13   14 1
    27   13   37 1
    28   13   38 1
    29   14   15 1
    30   14   39 1
    31   14   40 1
    32   15   16 1
    33   15   18 1
    34   15   54 1
    35   16   17 1
    36   16   41 1
    37   16   42 1
    38   17   43 1
    39   17   44 1
    40   18   19 1
    41   18   45 1
    42   18   46 1
    43   19   20 1
    44   19   47 1
    45   19   48 1
    46   20   25 ar
    47   20   21 ar
    48   21   22 ar
    49   21   49 1
    50   22   23 ar
    51   22   50 1
    52   23   24 ar
    53   23   51 1
    54   24   25 ar
    55   24   52 1
    56   25   53 1
@<TRIPOS>MOLECULE
ZINC02015833
   49    51     0     0     0
SMALL
USER_CHARGES
dimethyl-(3-methylbut-2-enyl)BLAHol
@<TRIPOS>ATOM
      1 C1          0.7871    0.1681   -2.3664 C.3       1 <0>        -0.1543
      2 C2          1.0290   -0.5044   -1.0136 C.3       1 <0>        -0.0895
      3 H1          0.9448   -1.5859   -1.1195 H         1 <0>         0.1004
      4 C3          0.0021   -0.0041    0.0020 C.3       1 <0>         0.0336
      5 H2         -0.9756   -0.3489   -0.3348 H         1 <0>         0.1315
      6 C4         -0.0185    1.5145    0.0104 C.3       1 <0>        -0.0878
      7 C5          1.3688    2.0979    0.0003 C.ar      1 <0>        -0.1107
      8 C6          1.4961    3.4605    0.2480 C.ar      1 <0>        -0.0947
      9 C7          2.7354    4.0629    0.2406 C.ar      1 <0>        -0.1368
     10 C8          3.8693    3.3057   -0.0171 C.ar      1 <0>         0.1241
     11 C9          3.7439    1.9476   -0.2579 C.ar      1 <0>        -0.1402
     12 C10         2.4949    1.3454   -0.2437 C.ar      1 <0>        -0.0591
     13 C11         2.4261   -0.1424   -0.4986 C.3       1 <0>        -0.0216
     14 C12         2.6280   -0.8493    0.8536 C.3       1 <0>        -0.1333
     15 C13         1.5895   -0.2893    1.8323 C.3       1 <0>        -0.0057
     16 C14        -0.7814   -0.1176    2.2799 C.3       1 <0>         0.0302
     17 C15        -0.6498   -0.9004    3.5609 C.2       1 <0>        -0.2601
     18 C16        -0.5056   -0.2716    4.7010 C.2       1 <0>        -0.0349
     19 C17        -0.4712    1.2347    4.7315 C.3       1 <0>        -0.1490
     20 C18        -0.3740   -1.0544    5.9819 C.3       1 <0>        -0.1387
     21 C19         3.5063   -0.5678   -1.4950 C.3       1 <0>        -0.1465
     22 O1          5.0948    3.8930   -0.0336 O.3       1 <0>        -0.4968
     23 H3          0.8836    1.2483   -2.2576 H         1 <0>         0.0720
     24 H4          1.5214   -0.1915   -3.0873 H         1 <0>         0.0794
     25 H5         -0.2159   -0.0736   -2.7181 H         1 <0>         0.0685
     26 H6         -0.5573    1.8664   -0.8694 H         1 <0>         0.1214
     27 H7         -0.5404    1.8569    0.9040 H         1 <0>         0.0930
     28 H8          0.6150    4.0523    0.4477 H         1 <0>         0.1314
     29 H9          2.8240    5.1215    0.4351 H         1 <0>         0.1363
     30 H10         4.6239    1.3543   -0.4581 H         1 <0>         0.1374
     31 H11         3.6325   -0.6513    1.2276 H         1 <0>         0.1128
     32 H12         2.4822   -1.9229    0.7346 H         1 <0>         0.0938
     33 H13         1.7273    0.7874    1.9314 H         1 <0>         0.1312
     34 H14         1.7154   -0.7629    2.8059 H         1 <0>         0.1266
     35 H15        -0.6455    0.9439    2.4872 H         1 <0>         0.1326
     36 H16        -1.7715   -0.2808    1.8543 H         1 <0>         0.1321
     37 H17        -0.6745   -1.9799    3.5390 H         1 <0>         0.1342
     38 H18        -1.4054    1.6277    4.3304 H         1 <0>         0.0808
     39 H19        -0.3457    1.5745    5.7596 H         1 <0>         0.0815
     40 H20         0.3625    1.5915    4.1267 H         1 <0>         0.0749
     41 H21         0.6784   -1.2641    6.1732 H         1 <0>         0.0847
     42 H22        -0.7844   -0.4724    6.8072 H         1 <0>         0.0790
     43 H23        -0.9210   -1.9929    5.8920 H         1 <0>         0.0755
     44 H24         3.4546   -1.6456   -1.6488 H         1 <0>         0.0698
     45 H25         3.3461   -0.0572   -2.4446 H         1 <0>         0.0731
     46 H26         4.4879   -0.3036   -1.1015 H         1 <0>         0.0712
     47 H27         5.3605    4.2244   -0.9024 H         1 <0>         0.4006
     48 N1          0.2298   -0.6075    1.3328 N.4       1 <0>        -0.3809
     49 H28         0.1410   -1.6271    1.2509 H         1 <0>         0.4267
@<TRIPOS>BOND
     1    1    2 1
     2    1   23 1
     3    1   24 1
     4    1   25 1
     5    2    3 1
     6    2   13 1
     7    2    4 1
     8    4    5 1
     9    4    6 1
    10    4   48 1
    11    6    7 1
    12    6   26 1
    13    6   27 1
    14    7   12 ar
    15    7    8 ar
    16    8    9 ar
    17    8   28 1
    18    9   10 ar
    19    9   29 1
    20   10   11 ar
    21   10   22 1
    22   11   12 ar
    23   11   30 1
    24   12   13 1
    25   13   14 1
    26   13   21 1
    27   14   15 1
    28   14   31 1
    29   14   32 1
    30   15   33 1
    31   15   34 1
    32   15   48 1
    33   16   17 1
    34   16   35 1
    35   16   36 1
    36   16   48 1
    37   17   18 2
    38   17   37 1
    39   18   19 1
    40   18   20 1
    41   19   38 1
    42   19   39 1
    43   19   40 1
    44   20   41 1
    45   20   42 1
    46   20   43 1
    47   21   44 1
    48   21   45 1
    49   21   46 1
    50   22   47 1
    51   48   49 1
@<TRIPOS>MOLECULE
ZINC00001681
   40    41     0     0     0
SMALL
USER_CHARGES
ethyl 1-methyl-4-phenyl-piperidine-4-carboxylate
@<TRIPOS>ATOM
      1 C1          3.5677    2.0652   -0.0209 C.3       1 <0>        -0.1571
      2 C2          2.3672    1.1168   -0.0145 C.3       1 <0>         0.0617
      3 O1          1.1389    1.8910    0.0013 O.3       1 <0>        -0.3457
      4 C3         -0.0143    1.2041    0.0087 C.2       1 <0>         0.4691
      5 O2          0.0021   -0.0041    0.0020 O.2       1 <0>        -0.4997
      6 C4         -1.3295    1.9397    0.0189 C.3       1 <0>        -0.0092
      7 C5         -1.4192    2.8101    1.2755 C.3       1 <0>        -0.1353
      8 C6         -1.3795    1.9111    2.5150 C.3       1 <0>        -0.0071
      9 C7         -2.4095    0.0867    1.2971 C.3       1 <0>        -0.0155
     10 C8         -2.4806    0.9300    0.0221 C.3       1 <0>        -0.1304
     11 C9         -2.5751    0.1785    3.7106 C.3       1 <0>        -0.0419
     12 C10        -1.4281    2.8121   -1.2060 C.ar      1 <0>        -0.1077
     13 C11        -2.4513    2.6149   -2.1144 C.ar      1 <0>        -0.1098
     14 C12        -2.5445    3.4182   -3.2355 C.ar      1 <0>        -0.1151
     15 C13        -1.6086    4.4119   -3.4536 C.ar      1 <0>        -0.1002
     16 C14        -0.5824    4.6057   -2.5478 C.ar      1 <0>        -0.1135
     17 C15        -0.4922    3.8058   -1.4241 C.ar      1 <0>        -0.0965
     18 H1          3.5259    2.6984   -0.9071 H         1 <0>         0.0712
     19 H2          3.5429    2.6889    0.8727 H         1 <0>         0.0689
     20 H3          4.4898    1.4841   -0.0328 H         1 <0>         0.0877
     21 H4          2.4091    0.4836    0.8717 H         1 <0>         0.0733
     22 H5          2.3921    0.4932   -0.9082 H         1 <0>         0.0766
     23 H6         -0.5779    3.5027    1.2993 H         1 <0>         0.1270
     24 H7         -2.3533    3.3716    1.2633 H         1 <0>         0.1104
     25 H8         -1.4581    2.5258    3.4117 H         1 <0>         0.1406
     26 H9         -0.4392    1.3601    2.5336 H         1 <0>         0.1245
     27 H10        -3.2361   -0.6236    1.3093 H         1 <0>         0.1363
     28 H11        -1.4643   -0.4555    1.3217 H         1 <0>         0.1477
     29 H12        -3.4314    1.4620   -0.0098 H         1 <0>         0.1089
     30 H13        -2.3971    0.2803   -0.8491 H         1 <0>         0.1247
     31 H14        -1.6814   -0.4384    3.8039 H         1 <0>         0.1222
     32 H15        -2.6420    0.8527    4.5645 H         1 <0>         0.1236
     33 H16        -3.4571   -0.4613    3.6829 H         1 <0>         0.1244
     34 H17        -3.1799    1.8356   -1.9463 H         1 <0>         0.1276
     35 H18        -3.3460    3.2666   -3.9433 H         1 <0>         0.1307
     36 H19        -1.6789    5.0366   -4.3317 H         1 <0>         0.1305
     37 H20         0.1490    5.3818   -2.7184 H         1 <0>         0.1310
     38 H21         0.3097    3.9569   -0.7166 H         1 <0>         0.1329
     39 N1         -2.5265    0.9792    2.4698 N.4       1 <0>        -0.3958
     40 H22        -3.3940    1.5225    2.3895 H         1 <0>         0.4289
@<TRIPOS>BOND
     1    1    2 1
     2    1   18 1
     3    1   19 1
     4    1   20 1
     5    2    3 1
     6    2   21 1
     7    2   22 1
     8    3    4 1
     9    4    5 2
    10    4    6 1
    11    6   10 1
    12    6    7 1
    13    6   12 1
    14    7    8 1
    15    7   23 1
    16    7   24 1
    17    8   25 1
    18    8   26 1
    19    8   39 1
    20    9   10 1
    21    9   27 1
    22    9   28 1
    23    9   39 1
    24   10   29 1
    25   10   30 1
    26   11   31 1
    27   11   32 1
    28   11   33 1
    29   11   39 1
    30   12   17 ar
    31   12   13 ar
    32   13   14 ar
    33   13   34 1
    34   14   15 ar
    35   14   35 1
    36   15   16 ar
    37   15   36 1
    38   16   17 ar
    39   16   37 1
    40   17   38 1
    41   39   40 1
@<TRIPOS>MOLECULE
ZINC05599905
   47    50     0     0     0
SMALL
USER_CHARGES
dihydroxy-methoxy-methyl-BLAHone
@<TRIPOS>ATOM
      1 C1         -0.8324    1.9837   -1.0955 C.3       1 <0>        -0.0501
      2 C2          0.0021   -0.0041    0.0020 C.3       1 <0>        -0.0079
      3 C3          0.7835   -0.5068    1.2212 C.3       1 <0>        -0.1313
      4 C4          2.2144    0.0437    1.1250 C.3       1 <0>         0.0111
      5 C5          3.0513   -0.5100    2.2743 C.3       1 <0>        -0.1909
      6 C6          4.3984    0.1776    2.2794 C.2       1 <0>         0.3583
      7 O1          5.4228   -0.4610    2.3159 O.2       1 <0>        -0.4272
      8 C7          4.4236    1.6902    2.2377 C.3       1 <0>        -0.1589
      9 C8          3.5617    2.1550    1.0611 C.3       1 <0>        -0.1391
     10 C9          2.1515    1.5712    1.1900 C.3       1 <0>         0.1365
     11 C10         1.3134    2.0515    0.0005 C.3       1 <0>         0.0029
     12 H1          1.2011    3.1308    0.1039 H         1 <0>         0.1356
     13 C11         2.0603    1.7847   -1.2942 C.3       1 <0>        -0.0832
     14 C12         2.7033    0.4245   -1.3165 C.ar      1 <0>        -0.1316
     15 C13         2.7907   -0.3804   -0.2012 C.ar      1 <0>        -0.0753
     16 C14         3.4204   -1.6162   -0.2812 C.ar      1 <0>         0.0893
     17 C15         3.9565   -2.0527   -1.4869 C.ar      1 <0>         0.1259
     18 C16         3.8568   -1.2470   -2.6093 C.ar      1 <0>        -0.1836
     19 C17         3.2340   -0.0191   -2.5221 C.ar      1 <0>        -0.0729
     20 O2          4.5744   -3.2617   -1.5642 O.3       1 <0>        -0.2985
     21 C18         5.1004   -3.6413   -2.8375 C.3       1 <0>         0.0209
     22 O3          3.5121   -2.4023    0.8248 O.3       1 <0>        -0.4571
     23 O4          1.5452    1.9851    2.4160 O.3       1 <0>        -0.5385
     24 H2         -1.8366    1.5640   -1.0363 H         1 <0>         0.1255
     25 H3         -0.8878    3.0700   -1.0250 H         1 <0>         0.1233
     26 H4         -0.3772    1.7040   -2.0456 H         1 <0>         0.1256
     27 H5         -1.0195   -0.3820    0.0434 H         1 <0>         0.1316
     28 H6          0.4837   -0.3564   -0.9101 H         1 <0>         0.1340
     29 H7          0.3110   -0.1480    2.1356 H         1 <0>         0.1088
     30 H8          0.8060   -1.5966    1.2210 H         1 <0>         0.1137
     31 H9          2.5818   -0.3397    3.1407 H         1 <0>         0.0959
     32 H10         3.1900   -1.5828    2.1406 H         1 <0>         0.1594
     33 H11         5.3655    2.0047    2.1198 H         1 <0>         0.0868
     34 H12         4.0207    2.0898    3.1683 H         1 <0>         0.1066
     35 H13         4.0102    1.8163    0.1271 H         1 <0>         0.0943
     36 H14         3.5048    3.2435    1.0611 H         1 <0>         0.0905
     37 H15         2.8337    2.5427   -1.4181 H         1 <0>         0.1231
     38 H16         1.3592    1.8573   -2.1257 H         1 <0>         0.1013
     39 H17         4.2660   -1.5798   -3.5517 H         1 <0>         0.1431
     40 H18         3.1575    0.6043   -3.4007 H         1 <0>         0.1361
     41 H19         5.8446   -2.9112   -3.1555 H         1 <0>         0.0616
     42 H20         5.5654   -4.6241   -2.7603 H         1 <0>         0.1109
     43 H21         4.2923   -3.6781   -3.5681 H         1 <0>         0.0606
     44 H22         2.7678   -3.0090    0.9389 H         1 <0>         0.3873
     45 H23         1.4766    2.9444    2.5166 H         1 <0>         0.3931
     46 N1         -0.0474    1.4789    0.0391 N.4       1 <0>        -0.3818
     47 H24        -0.5019    1.7703    0.9124 H         1 <0>         0.4343
@<TRIPOS>BOND
     1    1   24 1
     2    1   25 1
     3    1   26 1
     4    1   46 1
     5    2    3 1
     6    2   27 1
     7    2   28 1
     8    2   46 1
     9    3    4 1
    10    3   29 1
    11    3   30 1
    12    4   10 1
    13    4   15 1
    14    4    5 1
    15    5    6 1
    16    5   31 1
    17    5   32 1
    18    6    7 2
    19    6    8 1
    20    8    9 1
    21    8   33 1
    22    8   34 1
    23    9   10 1
    24    9   35 1
    25    9   36 1
    26   10   11 1
    27   10   23 1
    28   11   12 1
    29   11   13 1
    30   11   46 1
    31   13   14 1
    32   13   37 1
    33   13   38 1
    34   14   19 ar
    35   14   15 ar
    36   15   16 ar
    37   16   17 ar
    38   16   22 1
    39   17   18 ar
    40   17   20 1
    41   18   19 ar
    42   18   39 1
    43   19   40 1
    44   20   21 1
    45   21   41 1
    46   21   42 1
    47   21   43 1
    48   22   44 1
    49   23   45 1
    50   46   47 1
