@<TRIPOS>MOLECULE
ZINC01543566
   51    54     0     0     0
SMALL
USER_CHARGES
3-hydroxy-2-phenyl-N-(1-phenylpropyl)quinoline-4-carboxamide
@<TRIPOS>ATOM
      1 C1          1.6797    2.1494   -5.4302 C.3       1 <0>        -0.1505
      2 C2          1.6218    0.6235   -5.5259 C.3       1 <0>        -0.1293
      3 C3          0.7549    0.0738   -4.3914 C.3       1 <0>         0.1865
      4 H1         -0.2258    0.5486   -4.4207 H         1 <0>         0.1009
      5 C4          0.5970   -1.4158   -4.5564 C.ar      1 <0>        -0.0945
      6 C5          1.6099   -2.2668   -4.1555 C.ar      1 <0>        -0.1156
      7 C6          1.4632   -3.6335   -4.3029 C.ar      1 <0>        -0.1149
      8 C7          0.3074   -4.1486   -4.8594 C.ar      1 <0>        -0.1165
      9 C8         -0.7033   -3.2972   -5.2651 C.ar      1 <0>        -0.1138
     10 C9         -0.5584   -1.9308   -5.1138 C.ar      1 <0>        -0.1055
     11 N1          1.3965    0.3573   -3.1052 N.am      1 <0>        -0.7155
     12 C10         1.2025    1.5475   -2.5033 C.2       1 <0>         0.5767
     13 O1          0.4949    2.3859   -3.0277 O.2       1 <0>        -0.5050
     14 C11         1.8482    1.8329   -1.2088 C.ar      1 <0>        -0.1037
     15 C12         3.1761    2.4457   -1.1381 C.ar      1 <0>        -0.0609
     16 C13         3.8856    2.7840   -2.2951 C.ar      1 <0>        -0.1058
     17 C14         5.1200    3.3537   -2.1862 C.ar      1 <0>        -0.0985
     18 C15         5.6831    3.6018   -0.9368 C.ar      1 <0>        -0.1016
     19 C16         5.0194    3.2843    0.2085 C.ar      1 <0>        -0.0816
     20 C17         3.7435    2.6957    0.1358 C.ar      1 <0>         0.1232
     21 N2          3.0716    2.3742    1.2436 N.ar      1 <0>        -0.4401
     22 C18         1.8763    1.8287    1.2111 C.ar      1 <0>         0.1917
     23 C19         1.2190    1.5307   -0.0014 C.ar      1 <0>         0.1103
     24 O2         -0.0110    0.9628    0.0073 O.3       1 <0>        -0.4734
     25 C20         1.1990    1.5104    2.4903 C.ar      1 <0>        -0.0632
     26 C21        -0.1852    1.6380    2.6000 C.ar      1 <0>        -0.0803
     27 C22        -0.8109    1.3342    3.7918 C.ar      1 <0>        -0.1272
     28 C23        -0.0664    0.9152    4.8799 C.ar      1 <0>        -0.1020
     29 C24         1.3078    0.7926    4.7789 C.ar      1 <0>        -0.1291
     30 C25         1.9441    1.0876    3.5905 C.ar      1 <0>        -0.0750
     31 H2          0.6721    2.5571   -5.5125 H         1 <0>         0.0633
     32 H3          2.1108    2.4372   -4.4713 H         1 <0>         0.0544
     33 H4          2.2973    2.5410   -6.2385 H         1 <0>         0.0521
     34 H5          2.6294    0.2158   -5.4436 H         1 <0>         0.0664
     35 H6          1.1907    0.3357   -6.4848 H         1 <0>         0.0767
     36 H7          2.5144   -1.8642   -3.7242 H         1 <0>         0.1188
     37 H8          2.2527   -4.2986   -3.9856 H         1 <0>         0.1243
     38 H9          0.1939   -5.2161   -4.9770 H         1 <0>         0.1241
     39 H10        -1.6063   -3.6996   -5.6999 H         1 <0>         0.1258
     40 H11        -1.3481   -1.2657   -5.4307 H         1 <0>         0.1256
     41 H12         1.9609   -0.3115   -2.6869 H         1 <0>         0.4007
     42 H13         3.4584    2.5956   -3.2689 H         1 <0>         0.1306
     43 H14         5.6676    3.6152   -3.0796 H         1 <0>         0.1334
     44 H15         6.6623    4.0532   -0.8756 H         1 <0>         0.1361
     45 H16         5.4703    3.4839    1.1694 H         1 <0>         0.1417
     46 H17         0.0021   -0.0041    0.0020 H         1 <0>         0.3956
     47 H18        -0.7669    1.9694    1.7526 H         1 <0>         0.1378
     48 H19        -1.8835    1.4281    3.8766 H         1 <0>         0.1271
     49 H20        -0.5601    0.6825    5.8119 H         1 <0>         0.1247
     50 H21         1.8839    0.4650    5.6317 H         1 <0>         0.1266
     51 H22         3.0169    0.9909    3.5125 H         1 <0>         0.1288
@<TRIPOS>BOND
     1    1    2 1
     2    1   31 1
     3    1   32 1
     4    1   33 1
     5    2    3 1
     6    2   34 1
     7    2   35 1
     8    3    4 1
     9    3    5 1
    10    3   11 1
    11    5   10 ar
    12    5    6 ar
    13    6    7 ar
    14    6   36 1
    15    7    8 ar
    16    7   37 1
    17    8    9 ar
    18    8   38 1
    19    9   10 ar
    20    9   39 1
    21   10   40 1
    22   11   12 am
    23   11   41 1
    24   12   13 2
    25   12   14 1
    26   14   23 ar
    27   14   15 ar
    28   15   20 ar
    29   15   16 ar
    30   16   17 ar
    31   16   42 1
    32   17   18 ar
    33   17   43 1
    34   18   19 ar
    35   18   44 1
    36   19   20 ar
    37   19   45 1
    38   20   21 ar
    39   21   22 ar
    40   22   23 ar
    41   22   25 1
    42   23   24 1
    43   24   46 1
    44   25   30 ar
    45   25   26 ar
    46   26   27 ar
    47   26   47 1
    48   27   28 ar
    49   27   48 1
    50   28   29 ar
    51   28   49 1
    52   29   30 ar
    53   29   50 1
    54   30   51 1
@<TRIPOS>MOLECULE
ZINC01608615
   37    38     0     0     0
SMALL
USER_CHARGES

@<TRIPOS>ATOM
      1 C1         -0.0187    1.5258    0.0104 C.3       1 <0>        -0.1562
      2 C2          0.0021   -0.0041    0.0020 C.3       1 <0>         0.0589
      3 O1          0.6709   -0.4649   -1.1737 O.3       1 <0>        -0.3398
      4 C3          0.7755   -1.7935   -1.3341 C.2       1 <0>         0.4675
      5 O2          0.3143   -2.5404   -0.5039 O.2       1 <0>        -0.4978
      6 C4          1.4679   -2.3535   -2.5498 C.3       1 <0>        -0.0092
      7 C5          0.7357   -1.8933   -3.8137 C.3       1 <0>        -0.1358
      8 C6         -0.6869   -2.4568   -3.8061 C.3       1 <0>        -0.0122
      9 N1         -0.6359   -3.9234   -3.7749 N.4       1 <0>        -0.5044
     10 C7          0.0010   -4.3734   -2.5314 C.3       1 <0>        -0.0208
     11 C8          1.4501   -3.8836   -2.4900 C.3       1 <0>        -0.1305
     12 C9          2.8939   -1.8671   -2.5863 C.ar      1 <0>        -0.1084
     13 C10         3.9349   -2.7763   -2.5660 C.ar      1 <0>        -0.1099
     14 C11         5.2429   -2.3302   -2.5995 C.ar      1 <0>        -0.1149
     15 C12         5.5098   -0.9750   -2.6537 C.ar      1 <0>        -0.0999
     16 C13         4.4687   -0.0658   -2.6748 C.ar      1 <0>        -0.1133
     17 C14         3.1607   -0.5121   -2.6457 C.ar      1 <0>        -0.0966
     18 H1          1.0039    1.9031    0.0027 H         1 <0>         0.0710
     19 H2         -0.5459    1.8868   -0.8726 H         1 <0>         0.0688
     20 H3         -0.5289    1.8773    0.9072 H         1 <0>         0.0872
     21 H4          0.5293   -0.3651    0.8851 H         1 <0>         0.0742
     22 H5         -1.0205   -0.3814    0.0098 H         1 <0>         0.0711
     23 H6          0.6957   -0.8043   -3.8350 H         1 <0>         0.1275
     24 H7          1.2662   -2.2560   -4.6941 H         1 <0>         0.1117
     25 H8         -1.2165   -2.0933   -2.9255 H         1 <0>         0.1250
     26 H9         -1.2111   -2.1310   -4.7045 H         1 <0>         0.1457
     27 H10        -1.5737   -4.2927   -3.8240 H         1 <0>         0.4348
     28 H11        -0.5433   -3.9690   -1.6780 H         1 <0>         0.1468
     29 H12        -0.0153   -5.4624   -2.4888 H         1 <0>         0.1418
     30 H13         1.9954   -4.2876   -3.3429 H         1 <0>         0.1103
     31 H14         1.9208   -4.2172   -1.5651 H         1 <0>         0.1253
     32 H15         3.7264   -3.8352   -2.5237 H         1 <0>         0.1277
     33 H16         6.0563   -3.0405   -2.5829 H         1 <0>         0.1310
     34 H17         6.5317   -0.6264   -2.6791 H         1 <0>         0.1308
     35 H18         4.6772    0.9930   -2.7168 H         1 <0>         0.1312
     36 H19         2.3472    0.1981   -2.6660 H         1 <0>         0.1330
     37 H20        -0.1035   -4.2573   -4.5643 H         1 <0>         0.4285
@<TRIPOS>BOND
     1    1    2 1
     2    1   18 1
     3    1   19 1
     4    1   20 1
     5    2    3 1
     6    2   21 1
     7    2   22 1
     8    3    4 1
     9    4    5 2
    10    4    6 1
    11    6   11 1
    12    6    7 1
    13    6   12 1
    14    7    8 1
    15    7   23 1
    16    7   24 1
    17    8    9 1
    18    8   25 1
    19    8   26 1
    20    9   10 1
    21    9   27 1
    22    9   37 1
    23   10   11 1
    24   10   28 1
    25   10   29 1
    26   11   30 1
    27   11   31 1
    28   12   17 ar
    29   12   13 ar
    30   13   14 ar
    31   13   32 1
    32   14   15 ar
    33   14   33 1
    34   15   16 ar
    35   15   34 1
    36   16   17 ar
    37   16   35 1
    38   17   36 1
@<TRIPOS>MOLECULE
ZINC02534401
   36    38     0     0     0
SMALL
USER_CHARGES
dimethylBLAHol
@<TRIPOS>ATOM
      1 C1         -1.5660    3.5822    2.4837 C.3       1 <0>        -0.1713
      2 C2         -1.0584    3.0545    1.1403 C.3       1 <0>        -0.0877
      3 H1         -0.1899    3.6317    0.8229 H         1 <0>         0.1214
      4 C3         -0.6989    1.5633    1.2760 C.3       1 <0>         0.0328
      5 H2          0.0129    1.4691    2.0961 H         1 <0>         0.1356
      6 C4         -0.0127    1.0858    0.0080 C.3       1 <0>        -0.0882
      7 C5         -0.7165    1.5724   -1.2301 C.ar      1 <0>        -0.1149
      8 C6         -0.3426    1.0107   -2.4463 C.ar      1 <0>        -0.0932
      9 C7         -0.9388    1.4171   -3.6203 C.ar      1 <0>        -0.1362
     10 C8         -1.9207    2.3972   -3.5926 C.ar      1 <0>         0.1248
     11 C9         -2.2962    2.9544   -2.3815 C.ar      1 <0>        -0.1397
     12 C10        -1.6977    2.5370   -1.2023 C.ar      1 <0>        -0.0649
     13 C11        -2.1668    3.1674    0.0882 C.3       1 <0>        -0.0211
     14 C12        -3.3825    2.3603    0.5776 C.3       1 <0>        -0.1371
     15 C13        -2.9615    0.8891    0.6611 C.3       1 <0>        -0.0093
     16 C14        -2.5479    4.6321   -0.1362 C.3       1 <0>        -0.1477
     17 O1         -2.5104    2.8074   -4.7463 O.3       1 <0>        -0.4966
     18 H3         -2.4275    2.9954    2.8025 H         1 <0>         0.0558
     19 H4         -0.7746    3.5000    3.2288 H         1 <0>         0.0754
     20 H5         -1.8574    4.6271    2.3770 H         1 <0>         0.0871
     21 H6          0.0021   -0.0041    0.0020 H         1 <0>         0.0959
     22 H7          1.0132    1.4539    0.0002 H         1 <0>         0.1214
     23 H8          0.4227    0.2490   -2.4708 H         1 <0>         0.1326
     24 H9         -0.6424    0.9742   -4.5596 H         1 <0>         0.1372
     25 H10        -3.0591    3.7184   -2.3554 H         1 <0>         0.1376
     26 H11        -3.6903    2.7155    1.5610 H         1 <0>         0.0986
     27 H12        -4.2056    2.4671   -0.1290 H         1 <0>         0.1133
     28 H13        -2.6339    0.5457   -0.3202 H         1 <0>         0.1334
     29 H14        -3.8079    0.2877    0.9925 H         1 <0>         0.1314
     30 H15        -3.3516    4.6900   -0.8703 H         1 <0>         0.0715
     31 H16        -2.8832    5.0685    0.8047 H         1 <0>         0.0722
     32 H17        -1.6806    5.1811   -0.5028 H         1 <0>         0.0706
     33 H18        -2.0621    3.5492   -5.1749 H         1 <0>         0.4011
     34 N1         -1.8611    0.7376    1.6400 N.4       1 <0>        -0.5089
     35 H19        -2.1971    1.0245    2.5669 H         1 <0>         0.4318
     36 H20        -1.5742   -0.2478    1.6698 H         1 <0>         0.4349
@<TRIPOS>BOND
     1    1    2 1
     2    1   18 1
     3    1   19 1
     4    1   20 1
     5    2    3 1
     6    2   13 1
     7    2    4 1
     8    4    5 1
     9    4    6 1
    10    4   34 1
    11    6    7 1
    12    6   21 1
    13    6   22 1
    14    7   12 ar
    15    7    8 ar
    16    8    9 ar
    17    8   23 1
    18    9   10 ar
    19    9   24 1
    20   10   11 ar
    21   10   17 1
    22   11   12 ar
    23   11   25 1
    24   12   13 1
    25   13   14 1
    26   13   16 1
    27   14   15 1
    28   14   26 1
    29   14   27 1
    30   15   28 1
    31   15   29 1
    32   15   34 1
    33   16   30 1
    34   16   31 1
    35   16   32 1
    36   17   33 1
    37   34   35 1
    38   34   36 1
@<TRIPOS>MOLECULE
ZINC38321402
   76    82     0     0     0
SMALL
USER_CHARGES

@<TRIPOS>ATOM
      1 C1          0.4310    1.5076   -1.3639 C.3       1 <0>        -0.1699
      2 C2         -0.0188    0.3493   -0.4713 C.3       1 <0>         0.1576
      3 C3          0.8533    0.3050    0.7849 C.3       1 <0>        -0.1001
      4 H1          0.9533   -0.7284    1.1169 H         1 <0>         0.0974
      5 C4          2.2417    0.8672    0.4567 C.3       1 <0>        -0.1345
      6 C5          2.5263    2.0512    1.3689 C.3       1 <0>        -0.0586
      7 C6          1.4722    3.1390    1.1281 C.3       1 <0>        -0.1114
      8 C7          0.0822    2.5870    1.4447 C.3       1 <0>        -0.1498
      9 C8          0.1872    1.1290    1.8917 C.3       1 <0>         0.1392
     10 C9          1.0327    1.0439    3.1653 C.3       1 <0>         0.0737
     11 H2          1.0947    0.0154    3.5210 H         1 <0>         0.1169
     12 C10         2.4211    1.5903    2.8308 C.3       1 <0>        -0.0454
     13 C11         3.5334    0.6459    3.2104 C.3       1 <0>        -0.1211
     14 C12         4.8977    1.2224    2.8250 C.3       1 <0>        -0.0107
     15 N1          4.9039    1.5632    1.3942 N.4       1 <0>        -0.3880
     16 C13         3.9169    2.6439    1.1753 C.3       1 <0>         0.0573
     17 H3          4.0109    3.0155    0.1550 H         1 <0>         0.1466
     18 C14         4.2611    3.7755    2.1430 C.3       1 <0>        -0.0941
     19 C15         3.3087    3.9382    3.2785 C.ar      1 <0>        -0.0530
     20 C16         2.4464    2.8973    3.5666 C.ar      1 <0>        -0.1746
     21 C17         1.3619    2.9528    4.4179 C.ar      1 <0>         0.1067
     22 C18         1.2530    4.0777    5.2475 C.ar      1 <0>         0.1057
     23 C19         2.1993    5.0849    5.0689 C.ar      1 <0>        -0.1016
     24 C20         3.1915    5.0414    4.1010 C.ar      1 <0>        -0.1156
     25 O1          0.2703    4.1813    6.1819 O.3       1 <0>        -0.4801
     26 O2          0.5194    1.9113    4.1927 O.3       1 <0>        -0.2684
     27 C21         6.2414    2.0255    1.0000 C.3       1 <0>         0.0212
     28 C22         7.2410    0.8761    1.1433 C.3       1 <0>        -0.2106
     29 C23         8.3675    1.0428    2.1650 C.3       1 <0>        -0.1682
     30 C24         8.6743    1.1230    0.6683 C.3       1 <0>        -0.1475
     31 O3         -1.1209    0.6142    2.1484 O.3       1 <0>        -0.3618
     32 C25        -1.8316    1.3163    3.1702 C.3       1 <0>         0.0249
     33 C26         0.1216   -0.9683   -1.2363 C.3       1 <0>        -0.0923
     34 C27         1.5655   -1.1278   -1.7166 C.3       1 <0>        -0.1503
     35 C28        -0.2410   -2.1344   -0.3145 C.3       1 <0>        -0.1511
     36 C29        -0.8193   -0.9603   -2.4428 C.3       1 <0>        -0.1409
     37 O4         -1.3846    0.5392   -0.0965 O.3       1 <0>        -0.5375
     38 H4          1.4583    1.3396   -1.6870 H         1 <0>         0.0768
     39 H5         -0.2192    1.5675   -2.2367 H         1 <0>         0.0727
     40 H6          0.3742    2.4411   -0.8040 H         1 <0>         0.0769
     41 H7          2.9945    0.0951    0.6157 H         1 <0>         0.0626
     42 H8          2.2663    1.1937   -0.5830 H         1 <0>         0.1156
     43 H9          1.6787    3.9934    1.7726 H         1 <0>         0.0852
     44 H10         1.5083    3.4547    0.0854 H         1 <0>         0.0824
     45 H11        -0.3688    3.1782    2.2417 H         1 <0>         0.0742
     46 H12        -0.5427    2.6480    0.5537 H         1 <0>         0.1053
     47 H13         3.5075    0.4765    4.2868 H         1 <0>         0.1160
     48 H14         3.3878   -0.3039    2.6958 H         1 <0>         0.0964
     49 H15         5.0916    2.1197    3.4126 H         1 <0>         0.1353
     50 H16         5.6736    0.4834    3.0253 H         1 <0>         0.1376
     51 H17         5.2547    3.5897    2.5508 H         1 <0>         0.1003
     52 H18         4.2922    4.7101    1.5830 H         1 <0>         0.1186
     53 H19         2.1577    5.9460    5.7194 H         1 <0>         0.1408
     54 H20         3.8735    5.8714    3.9904 H         1 <0>         0.1369
     55 H21         0.5111    3.8231    7.0472 H         1 <0>         0.3974
     56 H22         6.2190    2.3604   -0.0370 H         1 <0>         0.1355
     57 H23         6.5440    2.8524    1.6425 H         1 <0>         0.1310
     58 H24         6.8303   -0.1241    1.0052 H         1 <0>         0.1241
     59 H25         8.3965    1.9714    2.7352 H         1 <0>         0.1057
     60 H26         8.6981    0.1522    2.6995 H         1 <0>         0.1101
     61 H27         9.2067    0.2852    0.2180 H         1 <0>         0.1125
     62 H28         8.9051    2.1044    0.2537 H         1 <0>         0.1080
     63 H29        -2.8145    0.8648    3.3049 H         1 <0>         0.0882
     64 H30        -1.2743    1.2592    4.1052 H         1 <0>         0.0627
     65 H31        -1.9481    2.3605    2.8799 H         1 <0>         0.0458
     66 H32         2.1889   -1.4642   -0.8881 H         1 <0>         0.0512
     67 H33         1.6018   -1.8631   -2.5205 H         1 <0>         0.0620
     68 H34         1.9343   -0.1699   -2.0833 H         1 <0>         0.0601
     69 H35        -1.2697   -2.0207    0.0277 H         1 <0>         0.0606
     70 H36        -0.1410   -3.0730   -0.8595 H         1 <0>         0.0624
     71 H37         0.4292   -2.1401    0.5450 H         1 <0>         0.0560
     72 H38        -0.5609   -0.1296   -3.0995 H         1 <0>         0.0572
     73 H39        -0.7193   -1.8990   -2.9878 H         1 <0>         0.0552
     74 H40        -1.8479   -0.8467   -2.1006 H         1 <0>         0.0645
     75 H41        -1.7375   -0.1594    0.4713 H         1 <0>         0.3835
     76 H42         4.6485    0.7530    0.8497 H         1 <0>         0.4222
@<TRIPOS>BOND
     1    1    2 1
     2    1   38 1
     3    1   39 1
     4    1   40 1
     5    2    3 1
     6    2   33 1
     7    2   37 1
     8    3    4 1
     9    3    9 1
    10    3    5 1
    11    5    6 1
    12    5   41 1
    13    5   42 1
    14    6   12 1
    15    6   16 1
    16    6    7 1
    17    7    8 1
    18    7   43 1
    19    7   44 1
    20    8    9 1
    21    8   45 1
    22    8   46 1
    23    9   10 1
    24    9   31 1
    25   10   11 1
    26   10   26 1
    27   10   12 1
    28   12   20 1
    29   12   13 1
    30   13   14 1
    31   13   47 1
    32   13   48 1
    33   14   15 1
    34   14   49 1
    35   14   50 1
    36   15   16 1
    37   15   27 1
    38   15   76 1
    39   16   17 1
    40   16   18 1
    41   18   19 1
    42   18   51 1
    43   18   52 1
    44   19   24 ar
    45   19   20 ar
    46   20   21 ar
    47   21   22 ar
    48   21   26 1
    49   22   23 ar
    50   22   25 1
    51   23   24 ar
    52   23   53 1
    53   24   54 1
    54   25   55 1
    55   27   28 1
    56   27   56 1
    57   27   57 1
    58   28   30 1
    59   28   29 1
    60   28   58 1
    61   29   30 1
    62   29   59 1
    63   29   60 1
    64   30   61 1
    65   30   62 1
    66   31   32 1
    67   32   63 1
    68   32   64 1
    69   32   65 1
    70   33   34 1
    71   33   35 1
    72   33   36 1
    73   34   66 1
    74   34   67 1
    75   34   68 1
    76   35   69 1
    77   35   70 1
    78   35   71 1
    79   36   72 1
    80   36   73 1
    81   36   74 1
    82   37   75 1
@<TRIPOS>MOLECULE
ZINC58590440
   50    53     0     0     0
SMALL
USER_CHARGES

@<TRIPOS>ATOM
      1 C1          1.0173    1.7686   -0.9090 C.3       1 <0>        -0.0885
      2 C2          0.8331    0.2798   -0.7657 C.2       1 <0>        -0.0818
      3 C3         -0.3152   -0.4402   -0.7458 C.2       1 <0>        -0.1907
      4 C4         -0.2431   -1.8132   -0.6031 C.2       1 <0>        -0.0785
      5 C5          0.9738   -2.3990   -0.4874 C.2       1 <0>        -0.2682
      6 S1          2.0709   -0.9941   -0.5861 S.3       1 <0>         0.0826
      7 C6          1.3129   -3.8582   -0.3236 C.3       1 <0>         0.1025
      8 N1          1.4867   -4.4720   -1.6469 N.4       1 <0>        -0.3958
      9 C7          0.1786   -4.5929   -2.3440 C.3       1 <0>         0.0356
     10 H1         -0.4185   -3.6848   -2.2610 H         1 <0>         0.1465
     11 C8         -0.5024   -5.8043   -1.6665 C.3       1 <0>        -0.1395
     12 C9          0.6612   -6.6563   -1.1184 C.3       1 <0>        -0.1368
     13 C10         1.9396   -5.8824   -1.5145 C.3       1 <0>         0.0341
     14 H2          2.7338   -5.9929   -0.7762 H         1 <0>         0.1540
     15 C11         2.3628   -6.3581   -2.9135 C.3       1 <0>        -0.1348
     16 C12         1.1360   -6.3554   -3.8302 C.3       1 <0>         0.0707
     17 C13         0.4744   -4.9596   -3.8071 C.3       1 <0>        -0.1672
     18 O1          0.2030   -7.3391   -3.3785 O.3       1 <0>        -0.2924
     19 C14        -0.6401   -7.8622   -4.3073 C.ar      1 <0>         0.0993
     20 C15        -0.6474   -7.3570   -5.6007 C.ar      1 <0>        -0.1812
     21 C16        -1.5028   -7.8851   -6.5496 C.ar      1 <0>        -0.0833
     22 C17        -2.3557   -8.9180   -6.2174 C.ar      1 <0>        -0.1126
     23 C18        -2.3555   -9.4323   -4.9200 C.ar      1 <0>        -0.0940
     24 C19        -1.4873   -8.9024   -3.9650 C.ar      1 <0>        -0.0867
     25 C20        -3.2683  -10.5386   -4.5603 C.2       1 <0>         0.5605
     26 O2         -3.2663  -10.9849   -3.4297 O.2       1 <0>        -0.5321
     27 N2         -4.1024  -11.0520   -5.4861 N.am      1 <0>        -0.8457
     28 H3          2.0808    2.0067   -0.8892 H         1 <0>         0.0813
     29 H4          0.5887    2.0983   -1.8554 H         1 <0>         0.0941
     30 H5          0.5156    2.2777   -0.0861 H         1 <0>         0.0951
     31 H6         -1.2722    0.0515   -0.8396 H         1 <0>         0.1468
     32 H7         -1.1428   -2.4103   -0.5838 H         1 <0>         0.1398
     33 H8          2.2372   -3.9548    0.2459 H         1 <0>         0.1383
     34 H9          0.5048   -4.3617    0.2071 H         1 <0>         0.1444
     35 H10        -1.1453   -5.4713   -0.8517 H         1 <0>         0.0885
     36 H11        -1.0779   -6.3732   -2.3967 H         1 <0>         0.1271
     37 H12         0.5905   -6.7422   -0.0341 H         1 <0>         0.0932
     38 H13         0.6578   -7.6442   -1.5790 H         1 <0>         0.1323
     39 H14         3.1198   -5.6844   -3.3148 H         1 <0>         0.1066
     40 H15         2.7678   -7.3680   -2.8487 H         1 <0>         0.1253
     41 H16         1.4442   -6.5900   -4.8490 H         1 <0>         0.1046
     42 H17        -0.4577   -4.9900   -4.3714 H         1 <0>         0.1176
     43 H18         1.1423   -4.2161   -4.2420 H         1 <0>         0.1035
     44 H19         0.0173   -6.5483   -5.8662 H         1 <0>         0.1330
     45 H20        -1.5039   -7.4880   -7.5539 H         1 <0>         0.1373
     46 H21        -3.0232   -9.3278   -6.9610 H         1 <0>         0.1336
     47 H22        -1.4792   -9.2994   -2.9606 H         1 <0>         0.1466
     48 H23        -4.1040  -10.6959   -6.3883 H         1 <0>         0.4029
     49 H24        -4.7012  -11.7777   -5.2501 H         1 <0>         0.4114
     50 H25         2.1398   -3.9398   -2.2021 H         1 <0>         0.4207
@<TRIPOS>BOND
     1    1    2 1
     2    1   28 1
     3    1   29 1
     4    1   30 1
     5    2    6 1
     6    2    3 2
     7    3    4 1
     8    3   31 1
     9    4    5 2
    10    4   32 1
    11    5    6 1
    12    5    7 1
    13    7    8 1
    14    7   33 1
    15    7   34 1
    16    8   13 1
    17    8    9 1
    18    8   50 1
    19    9   10 1
    20    9   17 1
    21    9   11 1
    22   11   12 1
    23   11   35 1
    24   11   36 1
    25   12   13 1
    26   12   37 1
    27   12   38 1
    28   13   14 1
    29   13   15 1
    30   15   16 1
    31   15   39 1
    32   15   40 1
    33   16   17 1
    34   16   18 1
    35   16   41 1
    36   17   42 1
    37   17   43 1
    38   18   19 1
    39   19   24 ar
    40   19   20 ar
    41   20   21 ar
    42   20   44 1
    43   21   22 ar
    44   21   45 1
    45   22   23 ar
    46   22   46 1
    47   23   24 ar
    48   23   25 1
    49   24   47 1
    50   25   26 2
    51   25   27 am
    52   27   48 1
    53   27   49 1
@<TRIPOS>MOLECULE
ZINC58590440
   49    52     0     0     0
SMALL
USER_CHARGES

@<TRIPOS>ATOM
      1 C1          0.9868    1.7886   -0.9076 C.3       1 <0>        -0.0712
      2 C2          0.8051    0.2991   -0.7684 C.2       1 <0>        -0.1449
      3 C3         -0.3414   -0.4238   -0.7592 C.2       1 <0>        -0.1641
      4 C4         -0.2671   -1.7968   -0.6183 C.2       1 <0>        -0.1523
      5 C5          0.9502   -2.3798   -0.4935 C.2       1 <0>        -0.1304
      6 S1          2.0446   -0.9720   -0.5807 S.3       1 <0>         0.0484
      7 C6          1.2916   -3.8385   -0.3295 C.3       1 <0>         0.1262
      8 N1          1.4779   -4.4495   -1.6523 N.3       1 <0>        -0.4991
      9 C7          0.1703   -4.6767   -2.3234 C.3       1 <0>         0.0643
     10 H1         -0.4972   -3.8204   -2.2267 H         1 <0>         0.0933
     11 C8         -0.3957   -5.9399   -1.6347 C.3       1 <0>        -0.1495
     12 C9          0.8444   -6.6942   -1.1116 C.3       1 <0>        -0.1469
     13 C10         2.0471   -5.8182   -1.5317 C.3       1 <0>         0.0627
     14 H2          2.8623   -5.8637   -0.8096 H         1 <0>         0.0970
     15 C11         2.4795   -6.2574   -2.9398 C.3       1 <0>        -0.1007
     16 C12         1.2385   -6.3546   -3.8318 C.3       1 <0>         0.0823
     17 C13         0.4656   -5.0176   -3.7928 C.3       1 <0>        -0.1291
     18 O1          0.3982   -7.4114   -3.3635 O.3       1 <0>        -0.2858
     19 C14        -0.4178   -8.0014   -4.2763 C.ar      1 <0>         0.1174
     20 C15        -0.4923   -7.4981   -5.5682 C.ar      1 <0>        -0.1829
     21 C16        -1.3206   -8.0941   -6.5009 C.ar      1 <0>        -0.0859
     22 C17        -2.0794   -9.1933   -6.1537 C.ar      1 <0>        -0.1264
     23 C18        -2.0111   -9.7063   -4.8576 C.ar      1 <0>        -0.1007
     24 C19        -1.1701   -9.1074   -3.9191 C.ar      1 <0>        -0.0942
     25 C20        -2.8230  -10.8835   -4.4819 C.2       1 <0>         0.5632
     26 O2         -2.7619  -11.3285   -3.3524 O.2       1 <0>        -0.5349
     27 N2         -3.6309  -11.4632   -5.3918 N.am      1 <0>        -0.8493
     28 H3          2.0495    2.0293   -0.8786 H         1 <0>         0.0720
     29 H4          0.5653    2.1189   -1.8570 H         1 <0>         0.0798
     30 H5          0.4771    2.2950   -0.0880 H         1 <0>         0.0799
     31 H6         -1.2988    0.0658   -0.8601 H         1 <0>         0.1296
     32 H7         -1.1655   -2.3961   -0.6075 H         1 <0>         0.1266
     33 H8          2.2114   -3.9337    0.2476 H         1 <0>         0.0882
     34 H9          0.4804   -4.3448    0.1937 H         1 <0>         0.0641
     35 H10        -1.0472   -5.6608   -0.8067 H         1 <0>         0.0538
     36 H11        -0.9374   -6.5538   -2.3544 H         1 <0>         0.0913
     37 H12         0.8027   -6.7859   -0.0263 H         1 <0>         0.0581
     38 H13         0.9125   -7.6789   -1.5740 H         1 <0>         0.0964
     39 H14         3.1708   -5.5239   -3.3548 H         1 <0>         0.0921
     40 H15         2.9669   -7.2308   -2.8850 H         1 <0>         0.0791
     41 H16         1.5443   -6.5629   -4.8570 H         1 <0>         0.0764
     42 H17        -0.4720   -5.1239   -4.3384 H         1 <0>         0.0722
     43 H18         1.0617   -4.2218   -4.2395 H         1 <0>         0.0879
     44 H19         0.0987   -6.6377   -5.8454 H         1 <0>         0.1348
     45 H20        -1.3743   -7.6980   -7.5042 H         1 <0>         0.1320
     46 H21        -2.7260   -9.6561   -6.8846 H         1 <0>         0.1273
     47 H22        -1.1094   -9.5028   -2.9159 H         1 <0>         0.1429
     48 H23        -3.6796  -11.1080   -6.2931 H         1 <0>         0.4018
     49 H24        -4.1635  -12.2355   -5.1453 H         1 <0>         0.4072
@<TRIPOS>BOND
     1    1    2 1
     2    1   28 1
     3    1   29 1
     4    1   30 1
     5    2    6 1
     6    2    3 2
     7    3    4 1
     8    3   31 1
     9    4    5 2
    10    4   32 1
    11    5    6 1
    12    5    7 1
    13    7    8 1
    14    7   33 1
    15    7   34 1
    16    8   13 1
    17    8    9 1
    18    9   10 1
    19    9   17 1
    20    9   11 1
    21   11   12 1
    22   11   35 1
    23   11   36 1
    24   12   13 1
    25   12   37 1
    26   12   38 1
    27   13   14 1
    28   13   15 1
    29   15   16 1
    30   15   39 1
    31   15   40 1
    32   16   17 1
    33   16   18 1
    34   16   41 1
    35   17   42 1
    36   17   43 1
    37   18   19 1
    38   19   24 ar
    39   19   20 ar
    40   20   21 ar
    41   20   44 1
    42   21   22 ar
    43   21   45 1
    44   22   23 ar
    45   22   46 1
    46   23   24 ar
    47   23   25 1
    48   24   47 1
    49   25   26 2
    50   25   27 am
    51   27   48 1
    52   27   49 1
@<TRIPOS>MOLECULE
ZINC00000853
   45    46     0     0     0
SMALL
USER_CHARGES

@<TRIPOS>ATOM
      1 C1         -0.0178    1.4648    0.0101 C.3       1 <0>        -0.0563
      2 N1          0.0021   -0.0041    0.0020 N.4       1 <0>        -0.3878
      3 C2          0.7126   -0.4907    1.1921 C.3       1 <0>        -0.0471
      4 C3         -1.3761   -0.5125    0.0124 C.3       1 <0>        -0.0103
      5 C4         -2.0780   -0.1101   -1.2861 C.3       1 <0>        -0.0949
      6 H1         -2.0144    0.9705   -1.4137 H         1 <0>         0.1057
      7 C5         -1.3995   -0.8041   -2.4688 C.3       1 <0>        -0.1251
      8 C6         -2.1014   -0.4017   -3.7674 C.3       1 <0>        -0.1201
      9 C7         -3.5711   -0.8221   -3.7042 C.3       1 <0>        -0.1213
     10 C8         -4.2497   -0.1281   -2.5214 C.3       1 <0>        -0.1420
     11 C9         -3.5477   -0.5306   -1.2229 C.3       1 <0>         0.1949
     12 C10        -4.2161    0.1530   -0.0579 C.ar      1 <0>        -0.0843
     13 C11        -3.7786    1.3977    0.3564 C.ar      1 <0>        -0.1707
     14 C12        -4.3896    2.0274    1.4247 C.ar      1 <0>        -0.0707
     15 C13        -5.4390    1.4140    2.0816 C.ar      1 <0>        -0.2039
     16 C14        -5.8796    0.1655    1.6680 C.ar      1 <0>         0.1450
     17 C15        -5.2687   -0.4618    0.5916 C.ar      1 <0>        -0.1429
     18 O1         -6.9117   -0.4400    2.3124 O.3       1 <0>        -0.3132
     19 C16        -7.4965    0.2669    3.4080 C.3       1 <0>         0.0238
     20 O2         -3.6311   -1.9473   -1.0556 O.3       1 <0>        -0.5509
     21 H2          1.0047    1.8421    0.0024 H         1 <0>         0.1265
     22 H3         -0.5450    1.8259   -0.8730 H         1 <0>         0.1223
     23 H4         -0.5280    1.8163    0.9069 H         1 <0>         0.1237
     24 H5          0.2024   -0.1392    2.0889 H         1 <0>         0.1216
     25 H6          0.7273   -1.5806    1.1861 H         1 <0>         0.1240
     26 H7          1.7352   -0.1134    1.1844 H         1 <0>         0.1249
     27 H8         -1.3618   -1.5992    0.0961 H         1 <0>         0.1405
     28 H9         -1.9129   -0.0898    0.8617 H         1 <0>         0.1336
     29 H10        -0.3524   -0.5046   -2.5139 H         1 <0>         0.0574
     30 H11        -1.4631   -1.8847   -2.3413 H         1 <0>         0.0907
     31 H12        -2.0378    0.6790   -3.8950 H         1 <0>         0.0659
     32 H13        -1.6180   -0.8961   -4.6100 H         1 <0>         0.0759
     33 H14        -4.0712   -0.5354   -4.6293 H         1 <0>         0.0732
     34 H15        -3.6347   -1.9028   -3.5766 H         1 <0>         0.0755
     35 H16        -4.1861    0.9525   -2.6490 H         1 <0>         0.0782
     36 H17        -5.2967   -0.4277   -2.4764 H         1 <0>         0.0788
     37 H18        -2.9581    1.8786   -0.1553 H         1 <0>         0.1199
     38 H19        -4.0462    2.9995    1.7463 H         1 <0>         0.1301
     39 H20        -5.9155    1.9060    2.9166 H         1 <0>         0.1343
     40 H21        -5.6131   -1.4318    0.2646 H         1 <0>         0.1327
     41 H22        -7.8899    1.2207    3.0566 H         1 <0>         0.0603
     42 H23        -8.3067   -0.3263    3.8321 H         1 <0>         0.1081
     43 H24        -6.7389    0.4453    4.1712 H         1 <0>         0.0591
     44 H25        -4.5359   -2.2851   -1.0074 H         1 <0>         0.3908
     45 H26         0.4743   -0.3295   -0.8281 H         1 <0>         0.4241
@<TRIPOS>BOND
     1    1    2 1
     2    1   21 1
     3    1   22 1
     4    1   23 1
     5    2    3 1
     6    2    4 1
     7    2   45 1
     8    3   24 1
     9    3   25 1
    10    3   26 1
    11    4    5 1
    12    4   27 1
    13    4   28 1
    14    5    6 1
    15    5   11 1
    16    5    7 1
    17    7    8 1
    18    7   29 1
    19    7   30 1
    20    8    9 1
    21    8   31 1
    22    8   32 1
    23    9   10 1
    24    9   33 1
    25    9   34 1
    26   10   11 1
    27   10   35 1
    28   10   36 1
    29   11   12 1
    30   11   20 1
    31   12   17 ar
    32   12   13 ar
    33   13   14 ar
    34   13   37 1
    35   14   15 ar
    36   14   38 1
    37   15   16 ar
    38   15   39 1
    39   16   17 ar
    40   16   18 1
    41   17   40 1
    42   18   19 1
    43   19   41 1
    44   19   42 1
    45   19   43 1
    46   20   44 1
@<TRIPOS>MOLECULE
ZINC00002200
   45    46     0     0     0
SMALL
USER_CHARGES
2-(dimethylaminomethyl)-1-(3-methoxyphenyl)-cyclohexan-1-ol
@<TRIPOS>ATOM
      1 C1         -4.3360    0.0060   -2.3149 C.3       1 <0>        -0.0424
      2 C2         -3.4265   -2.0815   -1.4917 C.3       1 <0>        -0.0505
      3 H1         -2.8695   -2.5368   -0.6728 H         1 <0>         0.1199
      4 H2         -4.4311   -2.5031   -1.5264 H         1 <0>         0.1245
      5 H3         -2.9159   -2.2814   -2.4337 H         1 <0>         0.1245
      6 C3         -2.1733   -0.0268   -1.2266 C.3       1 <0>        -0.0051
      7 C4         -1.4333   -0.5336    0.0129 C.3       1 <0>        -0.0960
      8 H4         -1.4185   -1.6235    0.0069 H         1 <0>         0.1055
      9 C5         -2.1494   -0.0402    1.2717 C.3       1 <0>        -0.1250
     10 C6         -1.4095   -0.5471    2.5112 C.3       1 <0>        -0.1199
     11 C7          0.0259   -0.0175    2.5003 C.3       1 <0>        -0.1213
     12 C8          0.7421   -0.5109    1.2415 C.3       1 <0>        -0.1421
     13 C9          0.0021   -0.0041    0.0020 C.3       1 <0>         0.1949
     14 C10         0.7074   -0.4901   -1.2379 C.ar      1 <0>        -0.0845
     15 C11         0.3564   -1.7029   -1.8018 C.ar      1 <0>        -0.1701
     16 C12         0.9977   -2.1489   -2.9425 C.ar      1 <0>        -0.0708
     17 C13         1.9991   -1.3887   -3.5154 C.ar      1 <0>        -0.2038
     18 C14         2.3570   -0.1744   -2.9483 C.ar      1 <0>         0.1449
     19 C15         1.7079    0.2736   -1.8068 C.ar      1 <0>        -0.1430
     20 O1          3.3419    0.5750   -3.5097 O.3       1 <0>        -0.3132
     21 C16         3.9663    0.0515   -4.6837 C.3       1 <0>         0.0239
     22 O2         -0.0173    1.4248    0.0099 O.3       1 <0>        -0.5510
     23 H5         -3.8583   -0.1182   -3.2867 H         1 <0>         0.1227
     24 H6         -5.3213   -0.4598   -2.3321 H         1 <0>         0.1229
     25 H7         -4.4402    1.0684   -2.0944 H         1 <0>         0.1221
     26 H8         -2.2658    1.0581   -1.1763 H         1 <0>         0.1388
     27 H9         -1.6150   -0.3027   -2.1212 H         1 <0>         0.1348
     28 H10        -2.1642    1.0497    1.2777 H         1 <0>         0.0911
     29 H11        -3.1720   -0.4175    1.2794 H         1 <0>         0.0569
     30 H12        -1.9196   -0.1955    3.4080 H         1 <0>         0.0760
     31 H13        -1.3947   -1.6369    2.5052 H         1 <0>         0.0661
     32 H14         0.0111    1.0724    2.5063 H         1 <0>         0.0755
     33 H15         0.5531   -0.3786    3.3834 H         1 <0>         0.0733
     34 H16         0.7568   -1.6008    1.2356 H         1 <0>         0.0782
     35 H17         1.7647   -0.1336    1.2338 H         1 <0>         0.0788
     36 H18        -0.4228   -2.3009   -1.3528 H         1 <0>         0.1201
     37 H19         0.7185   -3.0942   -3.3838 H         1 <0>         0.1301
     38 H20         2.5031   -1.7397   -4.4037 H         1 <0>         0.1342
     39 H21         1.9845    1.2189   -1.3636 H         1 <0>         0.1326
     40 H22         4.7322    0.7462   -5.0284 H         1 <0>         0.1081
     41 H23         4.4251   -0.9100   -4.4531 H         1 <0>         0.0603
     42 H24         3.2178   -0.0811   -5.4649 H         1 <0>         0.0591
     43 H25         0.8606    1.8301    0.0037 H         1 <0>         0.3908
     44 N1         -3.5242   -0.6260   -1.2536 N.4       1 <0>        -0.3993
     45 H26        -3.9782   -0.4662   -0.3467 H         1 <0>         0.4275
@<TRIPOS>BOND
     1    1   23 1
     2    1   24 1
     3    1   25 1
     4    1   44 1
     5    2    3 1
     6    2    4 1
     7    2    5 1
     8    2   44 1
     9    6    7 1
    10    6   26 1
    11    6   27 1
    12    6   44 1
    13    7    8 1
    14    7   13 1
    15    7    9 1
    16    9   10 1
    17    9   28 1
    18    9   29 1
    19   10   11 1
    20   10   30 1
    21   10   31 1
    22   11   12 1
    23   11   32 1
    24   11   33 1
    25   12   13 1
    26   12   34 1
    27   12   35 1
    28   13   14 1
    29   13   22 1
    30   14   19 ar
    31   14   15 ar
    32   15   16 ar
    33   15   36 1
    34   16   17 ar
    35   16   37 1
    36   17   18 ar
    37   17   38 1
    38   18   19 ar
    39   18   20 1
    40   19   39 1
    41   20   21 1
    42   21   40 1
    43   21   41 1
    44   21   42 1
    45   22   43 1
    46   44   45 1
@<TRIPOS>MOLECULE
ZINC01849532
   45    46     0     0     0
SMALL
USER_CHARGES
2-(dimethylaminomethyl)-1-(3-methoxyphenyl)-cyclohexan-1-ol
@<TRIPOS>ATOM
      1 C1         -3.8545    4.1975    2.4202 C.3       1 <0>        -0.0487
      2 C2         -5.0373    5.1687    0.5440 C.3       1 <0>        -0.0439
      3 C3         -3.7850    3.1167    0.2547 C.3       1 <0>        -0.0176
      4 C4         -3.5513    1.7292    0.8556 C.3       1 <0>        -0.0934
      5 H1         -3.0656    1.8307    1.8261 H         1 <0>         0.1035
      6 C5         -4.8937    1.0160    1.0293 C.3       1 <0>        -0.1270
      7 C6         -5.5755    0.8735   -0.3329 C.3       1 <0>        -0.1281
      8 C7         -4.6813    0.0568   -1.2679 C.3       1 <0>        -0.1218
      9 C8         -3.3389    0.7700   -1.4416 C.3       1 <0>        -0.1522
     10 C9         -2.6571    0.9125   -0.0793 C.3       1 <0>         0.1978
     11 C10        -1.3348    1.6150   -0.2504 C.ar      1 <0>        -0.0976
     12 C11        -0.2551    1.2563    0.5357 C.ar      1 <0>        -0.1395
     13 C12         0.9577    1.9025    0.3848 C.ar      1 <0>        -0.0702
     14 C13         1.0951    2.9054   -0.5555 C.ar      1 <0>        -0.1995
     15 C14         0.0151    3.2634   -1.3489 C.ar      1 <0>         0.1329
     16 C15        -1.2009    2.6130   -1.1958 C.ar      1 <0>        -0.1616
     17 O1          0.1480    4.2492   -2.2748 O.3       1 <0>        -0.3174
     18 C16         1.4286    4.8749   -2.3771 C.3       1 <0>         0.0239
     19 O2         -2.4388   -0.3834    0.4819 O.3       1 <0>        -0.5426
     20 H2         -2.9421    4.7457    2.1854 H         1 <0>         0.1239
     21 H3         -4.4756    4.7948    3.0878 H         1 <0>         0.1246
     22 H4         -3.5980    3.2568    2.9074 H         1 <0>         0.1221
     23 H5         -5.6407    4.9340   -0.3329 H         1 <0>         0.1217
     24 H6         -5.6333    5.7454    1.2513 H         1 <0>         0.1248
     25 H7         -4.1678    5.7520    0.2411 H         1 <0>         0.1241
     26 H8         -2.8257    3.6071    0.0889 H         1 <0>         0.1395
     27 H9         -4.3112    3.0175   -0.6947 H         1 <0>         0.1358
     28 H10        -5.5308    1.5978    1.6954 H         1 <0>         0.0579
     29 H11        -4.7272    0.0275    1.4574 H         1 <0>         0.1029
     30 H12        -5.7420    1.8620   -0.7611 H         1 <0>         0.0553
     31 H13        -6.5319    0.3654   -0.2092 H         1 <0>         0.0800
     32 H14        -5.1670   -0.0447   -2.2384 H         1 <0>         0.0735
     33 H15        -4.5148   -0.9317   -0.8398 H         1 <0>         0.0797
     34 H16        -3.5053    1.7585   -1.8697 H         1 <0>         0.0739
     35 H17        -2.7018    0.1882   -2.1077 H         1 <0>         0.0819
     36 H18        -0.3606    0.4726    1.2713 H         1 <0>         0.1350
     37 H19         1.7983    1.6233    1.0028 H         1 <0>         0.1321
     38 H20         2.0426    3.4104   -0.6725 H         1 <0>         0.1336
     39 H21        -2.0433    2.8899   -1.8124 H         1 <0>         0.1307
     40 H22         1.6864    5.3332   -1.4223 H         1 <0>         0.0586
     41 H23         2.1786    4.1274   -2.6356 H         1 <0>         0.0608
     42 H24         1.3977    5.6414   -3.1515 H         1 <0>         0.1069
     43 H25        -1.8788   -0.9570   -0.0588 H         1 <0>         0.3925
     44 N1         -4.6162    3.9064    1.1875 N.4       1 <0>        -0.3966
     45 H26        -5.4517    3.3620    1.4324 H         1 <0>         0.4276
@<TRIPOS>BOND
     1    1   20 1
     2    1   21 1
     3    1   22 1
     4    1   44 1
     5    2   23 1
     6    2   24 1
     7    2   25 1
     8    2   44 1
     9    3    4 1
    10    3   26 1
    11    3   27 1
    12    3   44 1
    13    4    5 1
    14    4   10 1
    15    4    6 1
    16    6    7 1
    17    6   28 1
    18    6   29 1
    19    7    8 1
    20    7   30 1
    21    7   31 1
    22    8    9 1
    23    8   32 1
    24    8   33 1
    25    9   10 1
    26    9   34 1
    27    9   35 1
    28   10   11 1
    29   10   19 1
    30   11   16 ar
    31   11   12 ar
    32   12   13 ar
    33   12   36 1
    34   13   14 ar
    35   13   37 1
    36   14   15 ar
    37   14   38 1
    38   15   16 ar
    39   15   17 1
    40   16   39 1
    41   17   18 1
    42   18   40 1
    43   18   41 1
    44   18   42 1
    45   19   43 1
    46   44   45 1
@<TRIPOS>MOLECULE
ZINC02015652
   45    46     0     0     0
SMALL
USER_CHARGES

@<TRIPOS>ATOM
      1 C1         -0.0525   -2.0814   -0.7853 C.3       1 <0>        -0.0566
      2 N1         -1.1008   -1.9115    0.2297 N.4       1 <0>        -0.3982
      3 C2         -0.6157   -2.4114    1.5230 C.3       1 <0>        -0.0511
      4 C3         -1.4389   -0.4871    0.3509 C.3       1 <0>        -0.0131
      5 C4         -2.0436    0.0072   -0.9648 C.3       1 <0>        -0.0949
      6 H1         -1.4830   -0.4095   -1.8015 H         1 <0>         0.1020
      7 C5         -1.9752    1.5349   -1.0153 C.3       1 <0>        -0.1098
      8 C6         -2.7620    2.1198    0.1593 C.3       1 <0>        -0.1278
      9 C7         -4.2221    1.6714    0.0688 C.3       1 <0>        -0.1224
     10 C8         -4.2905    0.1438    0.1193 C.3       1 <0>        -0.1519
     11 C9         -3.5036   -0.4411   -1.0552 C.3       1 <0>         0.1809
     12 C10        -3.5711   -1.9458   -1.0054 C.ar      1 <0>        -0.1268
     13 C11        -4.0597   -2.5785    0.1230 C.ar      1 <0>        -0.1791
     14 C12        -4.1228   -3.9586    0.1718 C.ar      1 <0>        -0.0733
     15 C13        -3.6972   -4.7094   -0.9072 C.ar      1 <0>        -0.1994
     16 C14        -3.2067   -4.0772   -2.0402 C.ar      1 <0>         0.1380
     17 C15        -3.1500   -2.6916   -2.0891 C.ar      1 <0>        -0.1464
     18 O1         -2.7875   -4.8134   -3.1028 O.3       1 <0>        -0.3079
     19 C16        -2.8803   -6.2345   -2.9846 C.3       1 <0>         0.0205
     20 O2         -4.0684    0.0206   -2.2840 O.3       1 <0>        -0.5352
     21 H2          0.2849   -3.1178   -0.7893 H         1 <0>         0.1230
     22 H3         -0.4521   -1.8256   -1.7667 H         1 <0>         0.1225
     23 H4          0.7875   -1.4267   -0.5532 H         1 <0>         0.1268
     24 H5          0.2712   -1.8514    1.8195 H         1 <0>         0.1254
     25 H6         -1.3935   -2.2854    2.2762 H         1 <0>         0.1219
     26 H7         -0.3648   -3.4683    1.4331 H         1 <0>         0.1225
     27 H8         -2.1612   -0.3523    1.1560 H         1 <0>         0.1354
     28 H9         -0.5367    0.0828    0.5729 H         1 <0>         0.1394
     29 H10        -0.9350    1.8543   -0.9508 H         1 <0>         0.0760
     30 H11        -2.4060    1.8871   -1.9526 H         1 <0>         0.0943
     31 H12        -2.3312    1.7676    1.0965 H         1 <0>         0.0602
     32 H13        -2.7133    3.2081    0.1233 H         1 <0>         0.0785
     33 H14        -4.7826    2.0881    0.9056 H         1 <0>         0.0733
     34 H15        -4.6529    2.0236   -0.8685 H         1 <0>         0.0791
     35 H16        -3.8597   -0.2084    1.0566 H         1 <0>         0.0721
     36 H17        -5.3307   -0.1756    0.0549 H         1 <0>         0.0827
     37 H18        -4.3922   -1.9934    0.9677 H         1 <0>         0.1418
     38 H19        -4.5048   -4.4504    1.0542 H         1 <0>         0.1412
     39 H20        -3.7461   -5.7876   -0.8683 H         1 <0>         0.1424
     40 H21        -2.7729   -2.1969   -2.9719 H         1 <0>         0.1470
     41 H22        -3.9202   -6.5185   -2.8235 H         1 <0>         0.0639
     42 H23        -2.5141   -6.6999   -3.8997 H         1 <0>         0.1121
     43 H24        -2.2774   -6.5690   -2.1404 H         1 <0>         0.0606
     44 H25        -4.9946   -0.2278   -2.4091 H         1 <0>         0.3912
     45 H26        -1.9218   -2.4299   -0.0447 H         1 <0>         0.4189
@<TRIPOS>BOND
     1    1    2 1
     2    1   21 1
     3    1   22 1
     4    1   23 1
     5    2    3 1
     6    2    4 1
     7    2   45 1
     8    3   24 1
     9    3   25 1
    10    3   26 1
    11    4    5 1
    12    4   27 1
    13    4   28 1
    14    5    6 1
    15    5   11 1
    16    5    7 1
    17    7    8 1
    18    7   29 1
    19    7   30 1
    20    8    9 1
    21    8   31 1
    22    8   32 1
    23    9   10 1
    24    9   33 1
    25    9   34 1
    26   10   11 1
    27   10   35 1
    28   10   36 1
    29   11   12 1
    30   11   20 1
    31   12   17 ar
    32   12   13 ar
    33   13   14 ar
    34   13   37 1
    35   14   15 ar
    36   14   38 1
    37   15   16 ar
    38   15   39 1
    39   16   17 ar
    40   16   18 1
    41   17   40 1
    42   18   19 1
    43   19   41 1
    44   19   42 1
    45   19   43 1
    46   20   44 1
@<TRIPOS>MOLECULE
ZINC02022527
   54    55     0     0     0
SMALL
USER_CHARGES

@<TRIPOS>ATOM
      1 C1         -3.0730    2.2881   -4.2693 C.3       1 <0>        -0.1569
      2 C2         -2.3049    1.5870   -3.1471 C.3       1 <0>        -0.1270
      3 C3         -2.8110    2.0874   -1.7927 C.3       1 <0>        -0.1231
      4 C4         -2.0429    1.3862   -0.6705 C.3       1 <0>        -0.1174
      5 C5         -2.5490    1.8867    0.6839 C.3       1 <0>        -0.1006
      6 C6         -2.2117    3.3722    0.8391 C.3       1 <0>        -0.1451
      7 C7         -2.6658    3.8518    2.2196 C.3       1 <0>        -0.0114
      8 C8         -2.3347    1.6429    3.1595 C.3       1 <0>        -0.0001
      9 C9         -1.8707    1.0973    1.8070 C.3       1 <0>        -0.1442
     10 C10        -2.2939    3.5901    4.5974 C.3       1 <0>        -0.0052
     11 C11        -2.1583    5.1140    4.5919 C.3       1 <0>        -0.1459
     12 C12        -2.4764    5.6593    5.9856 C.3       1 <0>        -0.1543
     13 C13        -2.3428    7.1604    5.9803 C.2       1 <0>         0.3987
     14 O1         -2.0245    7.7371    4.9623 O.2       1 <0>        -0.4456
     15 C14        -2.5986    7.9263    7.2106 C.ar      1 <0>        -0.1885
     16 C15        -3.0878    7.2813    8.3513 C.ar      1 <0>        -0.0705
     17 C16        -3.3195    8.0047    9.5018 C.ar      1 <0>        -0.1389
     18 C17        -3.0801    9.3679    9.5265 C.ar      1 <0>        -0.0729
     19 C18        -2.6016   10.0143    8.4004 C.ar      1 <0>        -0.1345
     20 C19        -2.3594    9.3036    7.2436 C.ar      1 <0>        -0.0178
     21 C20        -1.8387   10.0095    6.0182 C.3       1 <0>        -0.1264
     22 H1         -4.1363    2.0676   -4.1746 H         1 <0>         0.0549
     23 H2         -2.9175    3.3647   -4.1985 H         1 <0>         0.0540
     24 H3         -2.7125    1.9316   -5.2342 H         1 <0>         0.0581
     25 H4         -1.2417    1.8075   -3.2417 H         1 <0>         0.0621
     26 H5         -2.4605    0.5104   -3.2179 H         1 <0>         0.0631
     27 H6         -3.8743    1.8669   -1.6981 H         1 <0>         0.0644
     28 H7         -2.6555    3.1639   -1.7219 H         1 <0>         0.0632
     29 H8         -2.1984    0.3097   -0.7413 H         1 <0>         0.0733
     30 H9         -0.9796    1.6067   -0.7651 H         1 <0>         0.0688
     31 H10        -3.6287    1.7492    0.7427 H         1 <0>         0.0884
     32 H11        -1.1354    3.5132    0.7407 H         1 <0>         0.0881
     33 H12        -2.7264    3.9447    0.0675 H         1 <0>         0.1133
     34 H13        -3.7442    3.7233    2.3122 H         1 <0>         0.1295
     35 H14        -2.4142    4.9057    2.3388 H         1 <0>         0.1342
     36 H15        -3.4146    1.5248    3.2476 H         1 <0>         0.1293
     37 H16        -1.8426    1.0924    3.9613 H         1 <0>         0.1282
     38 H17        -2.1418    0.0446    1.7270 H         1 <0>         0.1118
     39 H18        -0.7890    1.2025    1.7239 H         1 <0>         0.0880
     40 H19        -3.3133    3.3170    4.8704 H         1 <0>         0.1315
     41 H20        -1.5979    3.1659    5.3211 H         1 <0>         0.1302
     42 H21        -1.1389    5.3871    4.3190 H         1 <0>         0.0944
     43 H22        -2.8542    5.5382    3.8682 H         1 <0>         0.0968
     44 H23        -3.4115    5.4088    6.2361 H         1 <0>         0.0981
     45 H24        -1.7805    5.2352    6.7093 H         1 <0>         0.1100
     46 H25        -3.2793    6.2186    8.3321 H         1 <0>         0.1290
     47 H26        -3.6933    7.5074   10.3846 H         1 <0>         0.1322
     48 H27        -3.2682    9.9300   10.4293 H         1 <0>         0.1326
     49 H28        -2.4176   11.0782    8.4274 H         1 <0>         0.1332
     50 H29        -2.6709   10.2515    5.3572 H         1 <0>         0.0784
     51 H30        -1.3321   10.9277    6.3156 H         1 <0>         0.0652
     52 H31        -1.1365    9.3600    5.4956 H         1 <0>         0.0893
     53 N1         -1.9588    3.0696    3.2558 N.4       1 <0>        -0.3931
     54 H32        -0.9467    3.1581    3.1071 H         1 <0>         0.4272
@<TRIPOS>BOND
     1    1    2 1
     2    1   22 1
     3    1   23 1
     4    1   24 1
     5    2    3 1
     6    2   25 1
     7    2   26 1
     8    3    4 1
     9    3   27 1
    10    3   28 1
    11    4    5 1
    12    4   29 1
    13    4   30 1
    14    5    9 1
    15    5    6 1
    16    5   31 1
    17    6    7 1
    18    6   32 1
    19    6   33 1
    20    7   34 1
    21    7   35 1
    22    7   53 1
    23    8    9 1
    24    8   36 1
    25    8   37 1
    26    8   53 1
    27    9   38 1
    28    9   39 1
    29   10   11 1
    30   10   40 1
    31   10   41 1
    32   10   53 1
    33   11   12 1
    34   11   42 1
    35   11   43 1
    36   12   13 1
    37   12   44 1
    38   12   45 1
    39   13   14 2
    40   13   15 1
    41   15   20 ar
    42   15   16 ar
    43   16   17 ar
    44   16   46 1
    45   17   18 ar
    46   17   47 1
    47   18   19 ar
    48   18   48 1
    49   19   20 ar
    50   19   49 1
    51   20   21 1
    52   21   50 1
    53   21   51 1
    54   21   52 1
    55   53   54 1
@<TRIPOS>MOLECULE
ZINC02567733
   48    50     0     0     0
SMALL
USER_CHARGES

@<TRIPOS>ATOM
      1 C1         -0.5534    1.6432    0.1359 C.ar      1 <0>        -0.0887
      2 C2          0.4602    2.5826    0.1714 C.ar      1 <0>        -0.0952
      3 C3          1.7816    2.1759    0.1339 C.ar      1 <0>        -0.0270
      4 C4          2.0884    0.8274    0.0608 C.ar      1 <0>        -0.0294
      5 C5          1.0731   -0.1110    0.0254 C.ar      1 <0>        -0.0840
      6 C6         -0.2472    0.2973    0.0629 C.ar      1 <0>        -0.0634
      7 C7         -1.3532   -0.7257    0.0247 C.3       1 <0>        -0.1008
      8 C8         -1.7402   -0.9939   -1.4068 C.2       1 <0>         0.5281
      9 O1         -1.1737   -0.4117   -2.3074 O.2       1 <0>        -0.5329
     10 N1         -2.7158   -1.8807   -1.6863 N.am      1 <0>        -0.6044
     11 C9         -3.3344   -2.6751   -0.6163 C.3       1 <0>         0.1017
     12 C10        -4.8538   -2.4904   -0.6805 C.3       1 <0>        -0.1411
     13 C11        -5.3469   -2.8384   -2.0869 C.3       1 <0>        -0.1219
     14 C12        -4.7021   -1.8936   -3.1037 C.3       1 <0>        -0.1563
     15 C13        -3.1852   -2.0671   -3.0661 C.3       1 <0>         0.1270
     16 H1         -2.9265   -3.0693   -3.4078 H         1 <0>         0.0950
     17 C14        -2.5294   -1.0266   -3.9760 C.3       1 <0>        -0.0052
     18 N2         -3.0360   -1.1850   -5.3457 N.4       1 <0>        -0.3977
     19 C15        -4.3078   -0.4357   -5.5113 C.3       1 <0>        -0.0198
     20 C16        -4.3986   -0.2257   -7.0437 C.3       1 <0>        -0.1454
     21 C17        -2.9276    0.0294   -7.4454 C.3       1 <0>        -0.1449
     22 C18        -2.0882   -0.5892   -6.3122 C.3       1 <0>        -0.0035
     23 Cl1         3.7464    0.3153    0.0131 Cl        1 <0>        -0.0389
     24 Cl2         3.0548    3.3551    0.1778 Cl        1 <0>        -0.0379
     25 H2         -1.5851    1.9609    0.1697 H         1 <0>         0.1357
     26 H3          0.2203    3.6341    0.2280 H         1 <0>         0.1460
     27 H4          1.3116   -1.1628   -0.0320 H         1 <0>         0.1402
     28 H5         -1.0088   -1.6506    0.4874 H         1 <0>         0.1153
     29 H6         -2.2176   -0.3467    0.5699 H         1 <0>         0.1165
     30 H7         -3.0882   -3.7279   -0.7538 H         1 <0>         0.0833
     31 H8         -2.9656   -2.3347    0.3513 H         1 <0>         0.0998
     32 H9         -5.3313   -3.1484    0.0456 H         1 <0>         0.0902
     33 H10        -5.1043   -1.4542   -0.4532 H         1 <0>         0.0735
     34 H11        -5.0744   -3.8669   -2.3232 H         1 <0>         0.0729
     35 H12        -6.4309   -2.7315   -2.1285 H         1 <0>         0.0802
     36 H13        -5.0716   -2.1268   -4.1023 H         1 <0>         0.0795
     37 H14        -4.9541   -0.8631   -2.8535 H         1 <0>         0.0825
     38 H15        -2.7669   -0.0262   -3.6142 H         1 <0>         0.1360
     39 H16        -1.4486   -1.1681   -3.9697 H         1 <0>         0.1612
     40 H17        -5.1514   -1.0258   -5.1532 H         1 <0>         0.1400
     41 H18        -4.2599    0.5224   -4.9938 H         1 <0>         0.1320
     42 H19        -4.7826   -1.1204   -7.5336 H         1 <0>         0.0972
     43 H20        -5.0181    0.6399   -7.2783 H         1 <0>         0.1150
     44 H21        -2.7038   -0.4608   -8.3929 H         1 <0>         0.1044
     45 H22        -2.7354    1.0998   -7.5176 H         1 <0>         0.1029
     46 H23        -1.4968    0.1849   -5.8232 H         1 <0>         0.1317
     47 H24        -1.4333   -1.3620   -6.7146 H         1 <0>         0.1306
     48 H25        -3.1771   -2.1621   -5.5541 H         1 <0>         0.4195
@<TRIPOS>BOND
     1    1    6 ar
     2    1    2 ar
     3    1   25 1
     4    2    3 ar
     5    2   26 1
     6    3    4 ar
     7    3   24 1
     8    4    5 ar
     9    4   23 1
    10    5    6 ar
    11    5   27 1
    12    6    7 1
    13    7    8 1
    14    7   28 1
    15    7   29 1
    16    8    9 2
    17    8   10 am
    18   10   15 1
    19   10   11 1
    20   11   12 1
    21   11   30 1
    22   11   31 1
    23   12   13 1
    24   12   32 1
    25   12   33 1
    26   13   14 1
    27   13   34 1
    28   13   35 1
    29   14   15 1
    30   14   36 1
    31   14   37 1
    32   15   16 1
    33   15   17 1
    34   17   18 1
    35   17   38 1
    36   17   39 1
    37   18   22 1
    38   18   19 1
    39   18   48 1
    40   19   20 1
    41   19   40 1
    42   19   41 1
    43   20   21 1
    44   20   42 1
    45   20   43 1
    46   21   22 1
    47   21   44 1
    48   21   45 1
    49   22   46 1
    50   22   47 1
@<TRIPOS>MOLECULE
ZINC03995684
   48    50     0     0     0
SMALL
USER_CHARGES

@<TRIPOS>ATOM
      1 C1          0.2065    1.1605    0.0233 C.ar      1 <0>        -0.0876
      2 C2          1.4563    1.7515    0.0238 C.ar      1 <0>        -0.0946
      3 C3          2.5934    0.9644    0.0179 C.ar      1 <0>        -0.0269
      4 C4          2.4793   -0.4157    0.0116 C.ar      1 <0>        -0.0298
      5 C5          1.2282   -1.0053    0.0111 C.ar      1 <0>        -0.0850
      6 C6          0.0925   -0.2170    0.0169 C.ar      1 <0>        -0.0635
      7 C7         -1.2704   -0.8599    0.0168 C.3       1 <0>        -0.1011
      8 C8         -1.7802   -0.9565   -1.3981 C.2       1 <0>         0.5282
      9 O1         -1.0681   -0.6273   -2.3230 O.2       1 <0>        -0.5333
     10 N1         -3.0273   -1.4089   -1.6356 N.am      1 <0>        -0.6053
     11 C9         -3.9435   -1.6972   -0.5238 C.3       1 <0>         0.1019
     12 C10        -4.4676   -3.1287   -0.6753 C.3       1 <0>        -0.1414
     13 C11        -5.0912   -3.2952   -2.0629 C.3       1 <0>        -0.1200
     14 C12        -4.0259   -3.0548   -3.1350 C.3       1 <0>        -0.1502
     15 C13        -3.4987   -1.6172   -3.0115 C.3       1 <0>         0.1256
     16 H1         -4.2988   -0.9113   -3.2345 H         1 <0>         0.0955
     17 C14        -2.3395   -1.4082   -3.9880 C.3       1 <0>        -0.0047
     18 N2         -2.8041   -1.6548   -5.3596 N.4       1 <0>        -0.4005
     19 C15        -3.7505   -0.5896   -5.7790 C.3       1 <0>        -0.0089
     20 C16        -3.6942   -0.6544   -7.3260 C.3       1 <0>        -0.1447
     21 C17        -2.2035   -0.9543   -7.6054 C.3       1 <0>        -0.1446
     22 C18        -1.6683   -1.5798   -6.3040 C.3       1 <0>        -0.0044
     23 Cl1         3.9057   -1.4052    0.0036 Cl        1 <0>        -0.0395
     24 Cl2         4.1631    1.7060    0.0180 Cl        1 <0>        -0.0380
     25 H2         -0.6813    1.7754    0.0324 H         1 <0>         0.1361
     26 H3          1.5446    2.8279    0.0284 H         1 <0>         0.1463
     27 H4          1.1385   -2.0816    0.0057 H         1 <0>         0.1400
     28 H5         -1.2009   -1.8590    0.4470 H         1 <0>         0.1163
     29 H6         -1.9571   -0.2559    0.6099 H         1 <0>         0.1155
     30 H7         -3.4112   -1.6012    0.4226 H         1 <0>         0.1000
     31 H8         -4.7791   -0.9977   -0.5480 H         1 <0>         0.0830
     32 H9         -3.6429   -3.8321   -0.5603 H         1 <0>         0.0741
     33 H10        -5.2211   -3.3230    0.0880 H         1 <0>         0.0905
     34 H11        -5.4869   -4.3058   -2.1643 H         1 <0>         0.0807
     35 H12        -5.8997   -2.5747   -2.1864 H         1 <0>         0.0726
     36 H13        -3.2053   -3.7589   -2.9968 H         1 <0>         0.0833
     37 H14        -4.4651   -3.1965   -4.1225 H         1 <0>         0.0723
     38 H15        -1.9757   -0.3840   -3.9062 H         1 <0>         0.1621
     39 H16        -1.5327   -2.1006   -3.7477 H         1 <0>         0.1350
     40 H17        -4.7570   -0.8066   -5.4213 H         1 <0>         0.1315
     41 H18        -3.4160    0.3845   -5.4223 H         1 <0>         0.1333
     42 H19        -4.3265   -1.4589   -7.7017 H         1 <0>         0.0971
     43 H20        -3.9838    0.3013   -7.7629 H         1 <0>         0.1160
     44 H21        -2.1078   -1.6592   -8.4313 H         1 <0>         0.1045
     45 H22        -1.6678   -0.0321   -7.8302 H         1 <0>         0.1037
     46 H23        -0.8799   -0.9529   -5.8876 H         1 <0>         0.1322
     47 H24        -1.2845   -2.5803   -6.5034 H         1 <0>         0.1296
     48 H25        -3.2476   -2.5591   -5.4199 H         1 <0>         0.4170
@<TRIPOS>BOND
     1    1    6 ar
     2    1    2 ar
     3    1   25 1
     4    2    3 ar
     5    2   26 1
     6    3    4 ar
     7    3   24 1
     8    4    5 ar
     9    4   23 1
    10    5    6 ar
    11    5   27 1
    12    6    7 1
    13    7    8 1
    14    7   28 1
    15    7   29 1
    16    8    9 2
    17    8   10 am
    18   10   15 1
    19   10   11 1
    20   11   12 1
    21   11   30 1
    22   11   31 1
    23   12   13 1
    24   12   32 1
    25   12   33 1
    26   13   14 1
    27   13   34 1
    28   13   35 1
    29   14   15 1
    30   14   36 1
    31   14   37 1
    32   15   16 1
    33   15   17 1
    34   17   18 1
    35   17   38 1
    36   17   39 1
    37   18   22 1
    38   18   19 1
    39   18   48 1
    40   19   20 1
    41   19   40 1
    42   19   41 1
    43   20   21 1
    44   20   42 1
    45   20   43 1
    46   21   22 1
    47   21   44 1
    48   21   45 1
    49   22   46 1
    50   22   47 1
@<TRIPOS>MOLECULE
ZINC14089740
   60    65     0     0     0
SMALL
USER_CHARGES
(2S,3S,4S,5R,6R)-3,4,5-trihydroxy-6-(hydroxy-methyl-BLAHyl)oxy-tetrahydropyran-2-carboxylic acid
@<TRIPOS>ATOM
      1 C1          2.2238   -3.3128    8.0696 C.3       1 <0>        -0.0471
      2 C2          3.4617   -1.4602    7.1304 C.3       1 <0>        -0.0033
      3 C3          3.4604    0.0510    6.8535 C.3       1 <0>        -0.1222
      4 C4          2.2591    0.3419    5.9499 C.3       1 <0>        -0.0575
      5 C5          2.3752   -0.5146    4.7140 C.ar      1 <0>        -0.1776
      6 C6          1.8556   -1.7726    4.5248 C.ar      1 <0>        -0.0492
      7 C7          2.1142   -2.3494    3.2944 C.ar      1 <0>        -0.1194
      8 C8          2.8193   -1.6464    2.3302 C.ar      1 <0>        -0.1005
      9 C9          3.2861   -0.3467    2.5162 C.ar      1 <0>         0.1020
     10 C10         3.0344    0.2470    3.7569 C.ar      1 <0>         0.1420
     11 O1          3.2757    1.4871    4.2413 O.3       1 <0>        -0.2773
     12 C11         2.3032    1.7313    5.3230 C.3       1 <0>         0.1113
     13 H1          2.5850    2.5167    6.0243 H         1 <0>         0.1520
     14 C12         1.0050    2.0292    4.5642 C.3       1 <0>         0.0974
     15 H2          0.8451    3.1074    4.5659 H         1 <0>         0.0841
     16 C13        -0.2057    1.3748    5.1224 C.2       1 <0>        -0.1210
     17 C14        -0.2362    0.4448    6.0190 C.2       1 <0>        -0.1521
     18 C15         0.9959   -0.0584    6.6750 C.3       1 <0>        -0.0436
     19 H3          1.0359    0.4052    7.6606 H         1 <0>         0.0950
     20 C16         1.0254   -1.5652    6.8918 C.3       1 <0>         0.0574
     21 H4          0.1286   -1.8319    7.4512 H         1 <0>         0.1387
     22 C17         1.0512   -2.3956    5.6193 C.3       1 <0>        -0.0857
     23 O2          1.1655    1.6011    3.2103 O.3       1 <0>        -0.3396
     24 C18         0.2700    2.2305    2.2916 C.3       1 <0>         0.2181
     25 H5          0.2050    3.2947    2.5185 H         1 <0>         0.0634
     26 C19         0.7891    2.0438    0.8636 C.3       1 <0>         0.1027
     27 H6          0.8929    0.9800    0.6499 H         1 <0>         0.0766
     28 C20        -0.2062    2.6686   -0.1189 C.3       1 <0>         0.1245
     29 H7         -0.2730    3.7413    0.0623 H         1 <0>         0.0706
     30 C21        -1.5819    2.0274    0.0881 C.3       1 <0>         0.0696
     31 H8         -1.5260    0.9633   -0.1413 H         1 <0>         0.0663
     32 C22        -2.0094    2.2147    1.5461 C.3       1 <0>         0.0224
     33 H9         -2.1043    3.2787    1.7632 H         1 <0>         0.0715
     34 O3         -1.0254    1.6385    2.4074 O.3       1 <0>        -0.3592
     35 C23        -3.3353    1.5352    1.7724 C.2       1 <0>         0.4750
     36 O4         -3.4097    0.5899    2.5213 O.co2     1 <0>        -0.6071
     37 O5         -2.5347    2.6524   -0.7743 O.3       1 <0>        -0.5639
     38 O6          0.2335    2.4347   -1.4584 O.3       1 <0>        -0.5511
     39 O7          2.0594    2.6842    0.7283 O.3       1 <0>        -0.5421
     40 O8          3.9561    0.3149    1.5349 O.3       1 <0>        -0.4845
     41 H10         2.4155   -3.8965    7.1692 H         1 <0>         0.1260
     42 H11         3.0144   -3.4967    8.7971 H         1 <0>         0.1221
     43 H12         1.2637   -3.6054    8.4946 H         1 <0>         0.1233
     44 H13         4.2776   -1.6986    7.8127 H         1 <0>         0.1277
     45 H14         3.6115   -1.9960    6.1931 H         1 <0>         0.1344
     46 H15         4.3831    0.3370    6.3486 H         1 <0>         0.1188
     47 H16         3.3625    0.6002    7.7899 H         1 <0>         0.0963
     48 H17         1.7661   -3.3500    3.0847 H         1 <0>         0.1323
     49 H18         3.0170   -2.1310    1.3855 H         1 <0>         0.1352
     50 H19        -1.1593    1.7101    4.7421 H         1 <0>         0.1357
     51 H20        -1.1883    0.0189    6.2995 H         1 <0>         0.1302
     52 H21         0.0280   -2.5303    5.2686 H         1 <0>         0.1261
     53 H22         1.4716   -3.3747    5.8488 H         1 <0>         0.0980
     54 H23        -3.4302    2.2964   -0.6946 H         1 <0>         0.4068
     55 H24        -0.3547    2.7982   -2.1345 H         1 <0>         0.3908
     56 H25         2.7085    2.4146    1.3925 H         1 <0>         0.3768
     57 H26         3.3811    0.7547    0.8938 H         1 <0>         0.3916
     58 N1          2.1866   -1.8711    7.7705 N.4       1 <0>        -0.3963
     59 H27         2.0780   -1.3521    8.6497 H         1 <0>         0.4274
     60 O9         -4.4337    1.9800    1.1419 O.co2     1 <0>        -0.7395
@<TRIPOS>BOND
     1    1   41 1
     2    1   42 1
     3    1   43 1
     4    1   58 1
     5    2    3 1
     6    2   44 1
     7    2   45 1
     8    2   58 1
     9    3    4 1
    10    3   46 1
    11    3   47 1
    12    4   12 1
    13    4   18 1
    14    4    5 1
    15    5   10 ar
    16    5    6 ar
    17    6   22 1
    18    6    7 ar
    19    7    8 ar
    20    7   48 1
    21    8    9 ar
    22    8   49 1
    23    9   10 ar
    24    9   40 1
    25   10   11 1
    26   11   12 1
    27   12   13 1
    28   12   14 1
    29   14   15 1
    30   14   16 1
    31   14   23 1
    32   16   17 2
    33   16   50 1
    34   17   18 1
    35   17   51 1
    36   18   19 1
    37   18   20 1
    38   20   21 1
    39   20   22 1
    40   20   58 1
    41   22   52 1
    42   22   53 1
    43   23   24 1
    44   24   25 1
    45   24   34 1
    46   24   26 1
    47   26   27 1
    48   26   28 1
    49   26   39 1
    50   28   29 1
    51   28   30 1
    52   28   38 1
    53   30   31 1
    54   30   32 1
    55   30   37 1
    56   32   33 1
    57   32   34 1
    58   32   35 1
    59   35   36 2
    60   35   60 1
    61   37   54 1
    62   38   55 1
    63   39   56 1
    64   40   57 1
    65   58   59 1
@<TRIPOS>MOLECULE
ZINC22066510
   73    75     0     0     0
SMALL
USER_CHARGES

@<TRIPOS>ATOM
      1 C1          2.4910   -1.6080   -3.8112 C.3       1 <0>        -0.1682
      2 C2          1.7409   -0.5348   -3.0198 C.3       1 <0>         0.1082
      3 N1          0.4296   -1.0506   -2.6189 N.am      1 <0>        -0.6052
      4 C3          0.2957   -1.8338   -1.3881 C.3       1 <0>         0.0959
      5 C4          0.2625   -0.8901   -0.1842 C.3       1 <0>        -0.1789
      6 C5         -0.6534   -0.8047   -3.3824 C.2       1 <0>         0.5551
      7 O1         -0.5330   -0.2052   -4.4329 O.2       1 <0>        -0.5297
      8 C6         -1.9880   -1.2642   -2.9423 C.ar      1 <0>        -0.1172
      9 C7         -2.3958   -1.0698   -1.6217 C.ar      1 <0>        -0.0965
     10 C8         -3.6425   -1.5005   -1.2175 C.ar      1 <0>        -0.1206
     11 C9         -4.4878   -2.1244   -2.1179 C.ar      1 <0>        -0.0559
     12 C10        -4.0894   -2.3205   -3.4283 C.ar      1 <0>        -0.0954
     13 C11        -2.8477   -1.8890   -3.8470 C.ar      1 <0>        -0.0706
     14 C12        -5.8481   -2.5927   -1.6693 C.3       1 <0>         0.1758
     15 H1         -6.1289   -2.0701   -0.7549 H         1 <0>         0.0736
     16 C13        -5.8075   -4.0763   -1.4077 C.ar      1 <0>        -0.0583
     17 C14        -5.6865   -4.9609   -2.4637 C.ar      1 <0>        -0.1407
     18 C15        -5.6490   -6.3224   -2.2271 C.ar      1 <0>        -0.0770
     19 C16        -5.7329   -6.8027   -0.9343 C.ar      1 <0>        -0.1994
     20 C17        -5.8544   -5.9174    0.1266 C.ar      1 <0>         0.1361
     21 C18        -5.8856   -4.5511   -0.1130 C.ar      1 <0>        -0.1429
     22 O2         -5.9370   -6.3873    1.3991 O.3       1 <0>        -0.3155
     23 C19        -5.8925   -7.8052    1.5713 C.3       1 <0>         0.0249
     24 N2         -6.8351   -2.3074   -2.7192 N.3       1 <0>        -0.5260
     25 C20        -8.0333   -3.1429   -2.5568 C.3       1 <0>         0.0231
     26 C21        -9.0086   -2.8586   -3.7012 C.3       1 <0>         0.0323
     27 H2         -8.5345   -3.1030   -4.6518 H         1 <0>         0.1445
     28 N3         -9.3769   -1.4368   -3.6891 N.4       1 <0>        -0.3828
     29 C22        -8.1734   -0.6159   -3.8768 C.3       1 <0>         0.0016
     30 C23        -7.1911   -0.8815   -2.7339 C.3       1 <0>         0.0643
     31 H3         -7.6558   -0.6128   -1.7852 H         1 <0>         0.0669
     32 C24        -5.9286   -0.0422   -2.9404 C.3       1 <0>        -0.1606
     33 C25       -10.3271   -1.1681   -4.7766 C.3       1 <0>         0.0243
     34 C26       -10.7993    0.2604   -4.6897 C.2       1 <0>        -0.2350
     35 C27       -10.6767    1.0549   -5.7241 C.2       1 <0>        -0.1053
     36 C28       -10.2657   -3.7125   -3.5238 C.3       1 <0>        -0.1832
     37 H4          2.6235   -2.4927   -3.1884 H         1 <0>         0.0561
     38 H5          1.9172   -1.8718   -4.6997 H         1 <0>         0.0586
     39 H6          3.4666   -1.2242   -4.1095 H         1 <0>         0.0703
     40 H7          2.3147   -0.2710   -2.1314 H         1 <0>         0.0793
     41 H8          1.6084    0.3499   -3.6427 H         1 <0>         0.0876
     42 H9         -0.6286   -2.4105   -1.4232 H         1 <0>         0.0867
     43 H10         1.1438   -2.5120   -1.2949 H         1 <0>         0.0813
     44 H11         1.2763   -0.5666    0.0519 H         1 <0>         0.0652
     45 H12        -0.3505   -0.0205   -0.4210 H         1 <0>         0.0640
     46 H13        -0.1618   -1.4110    0.6741 H         1 <0>         0.0725
     47 H14        -1.7367   -0.5837   -0.9177 H         1 <0>         0.1429
     48 H15        -3.9594   -1.3508   -0.1959 H         1 <0>         0.1276
     49 H16        -4.7538   -2.8085   -4.1262 H         1 <0>         0.1342
     50 H17        -2.5399   -2.0384   -4.8714 H         1 <0>         0.1309
     51 H18        -5.6215   -4.5875   -3.4750 H         1 <0>         0.1305
     52 H19        -5.5545   -7.0113   -3.0535 H         1 <0>         0.1294
     53 H20        -5.7043   -7.8665   -0.7501 H         1 <0>         0.1321
     54 H21        -5.9754   -3.8596    0.7117 H         1 <0>         0.1302
     55 H22        -4.9515   -8.1896    1.1776 H         1 <0>         0.0594
     56 H23        -5.9676   -8.0450    2.6319 H         1 <0>         0.1059
     57 H24        -6.7243   -8.2626    1.0356 H         1 <0>         0.0581
     58 H25        -7.7483   -4.1948   -2.5747 H         1 <0>         0.1343
     59 H26        -8.5118   -2.9115   -1.6052 H         1 <0>         0.0619
     60 H27        -7.7036   -0.8717   -4.8265 H         1 <0>         0.1367
     61 H28        -8.4498    0.4385   -3.8807 H         1 <0>         0.1360
     62 H29        -5.3719   -0.4275   -3.7946 H         1 <0>         0.0844
     63 H30        -6.2082    0.9948   -3.1267 H         1 <0>         0.0700
     64 H31        -5.3065   -0.0959   -2.0470 H         1 <0>         0.0838
     65 H32        -9.8365   -1.3308   -5.7363 H         1 <0>         0.1301
     66 H33       -11.1813   -1.8392   -4.6869 H         1 <0>         0.1384
     67 H34       -11.2387    0.6292   -3.7746 H         1 <0>         0.1330
     68 H35       -10.2373    0.6861   -6.6391 H         1 <0>         0.1115
     69 H36       -11.0151    2.0786   -5.6617 H         1 <0>         0.1228
     70 H37       -10.7398   -3.4682   -2.5732 H         1 <0>         0.0809
     71 H38       -10.9604   -3.5101   -4.3390 H         1 <0>         0.0860
     72 H39        -9.9925   -4.7677   -3.5330 H         1 <0>         0.1076
     73 H40        -9.8052   -1.2080   -2.8046 H         1 <0>         0.4183
@<TRIPOS>BOND
     1    1    2 1
     2    1   37 1
     3    1   38 1
     4    1   39 1
     5    2    3 1
     6    2   40 1
     7    2   41 1
     8    3    4 1
     9    3    6 am
    10    4    5 1
    11    4   42 1
    12    4   43 1
    13    5   44 1
    14    5   45 1
    15    5   46 1
    16    6    7 2
    17    6    8 1
    18    8   13 ar
    19    8    9 ar
    20    9   10 ar
    21    9   47 1
    22   10   11 ar
    23   10   48 1
    24   11   12 ar
    25   11   14 1
    26   12   13 ar
    27   12   49 1
    28   13   50 1
    29   14   15 1
    30   14   16 1
    31   14   24 1
    32   16   21 ar
    33   16   17 ar
    34   17   18 ar
    35   17   51 1
    36   18   19 ar
    37   18   52 1
    38   19   20 ar
    39   19   53 1
    40   20   21 ar
    41   20   22 1
    42   21   54 1
    43   22   23 1
    44   23   55 1
    45   23   56 1
    46   23   57 1
    47   24   30 1
    48   24   25 1
    49   25   26 1
    50   25   58 1
    51   25   59 1
    52   26   27 1
    53   26   28 1
    54   26   36 1
    55   28   29 1
    56   28   33 1
    57   28   73 1
    58   29   30 1
    59   29   60 1
    60   29   61 1
    61   30   31 1
    62   30   32 1
    63   32   62 1
    64   32   63 1
    65   32   64 1
    66   33   34 1
    67   33   65 1
    68   33   66 1
    69   34   35 2
    70   34   67 1
    71   35   68 1
    72   35   69 1
    73   36   70 1
    74   36   71 1
    75   36   72 1
@<TRIPOS>MOLECULE
ZINC22066510
   73    75     0     0     0
SMALL
USER_CHARGES

@<TRIPOS>ATOM
      1 C1          2.0818   -4.4766    3.2676 C.3       1 <0>        -0.1689
      2 C2          1.7388   -3.0977    2.7003 C.3       1 <0>         0.1074
      3 N1          2.1743   -3.0222    1.3035 N.am      1 <0>        -0.6022
      4 C3          1.3002   -3.5147    0.2360 C.3       1 <0>         0.0926
      5 C4          0.2008   -2.4865   -0.0380 C.3       1 <0>        -0.1804
      6 C5          3.3792   -2.4997    1.0006 C.2       1 <0>         0.5507
      7 O1          4.1293   -2.1464    1.8895 O.2       1 <0>        -0.5215
      8 C6          3.7885   -2.3561   -0.4128 C.ar      1 <0>        -0.0969
      9 C7          2.8877   -1.8598   -1.3564 C.ar      1 <0>        -0.0885
     10 C8          3.2762   -1.7279   -2.6736 C.ar      1 <0>        -0.0986
     11 C9          4.5553   -2.0868   -3.0600 C.ar      1 <0>        -0.0985
     12 C10         5.4529   -2.5799   -2.1298 C.ar      1 <0>        -0.1217
     13 C11         5.0792   -2.7110   -0.8082 C.ar      1 <0>        -0.0542
     14 C12         4.9725   -1.9405   -4.5007 C.3       1 <0>         0.1312
     15 H1          4.2422   -1.3285   -5.0301 H         1 <0>         0.1530
     16 C13         5.0470   -3.3018   -5.1429 C.ar      1 <0>        -0.0894
     17 C14         6.1536   -4.1045   -4.9342 C.ar      1 <0>        -0.1656
     18 C15         6.2249   -5.3537   -5.5218 C.ar      1 <0>        -0.0582
     19 C16         5.1905   -5.8032   -6.3198 C.ar      1 <0>        -0.1869
     20 C17         4.0794   -5.0000   -6.5308 C.ar      1 <0>         0.1493
     21 C18         4.0075   -3.7489   -5.9349 C.ar      1 <0>        -0.1219
     22 O2          3.0606   -5.4398   -7.3152 O.3       1 <0>        -0.3093
     23 C19         3.2001   -6.7401   -7.8913 C.3       1 <0>         0.0219
     24 N2          6.2908   -1.2956   -4.5657 N.4       1 <0>        -0.3815
     25 C20         6.7880   -1.3363   -5.9472 C.3       1 <0>        -0.0063
     26 C21         8.1695   -0.6815   -6.0119 C.3       1 <0>         0.0612
     27 H2          8.8619   -1.2291   -5.3726 H         1 <0>         0.0642
     28 N3          8.0710    0.7101   -5.5492 N.3       1 <0>        -0.5312
     29 C22         7.5510    0.7680   -4.1758 C.3       1 <0>         0.0332
     30 C23         6.1745    0.1011   -4.1263 C.3       1 <0>         0.0365
     31 H3          5.4890    0.6335   -4.7856 H         1 <0>         0.1458
     32 C24         5.6392    0.1421   -2.6935 C.3       1 <0>        -0.1984
     33 C25         9.3686    1.3914   -5.6500 C.3       1 <0>         0.0780
     34 C26         9.1817    2.8666   -5.4050 C.2       1 <0>        -0.1649
     35 C27         9.8791    3.4695   -4.4743 C.2       1 <0>        -0.1715
     36 C28         8.6788   -0.7055   -7.4544 C.3       1 <0>        -0.1519
     37 H4          3.1591   -4.6339    3.2139 H         1 <0>         0.0588
     38 H5          1.7578   -4.5328    4.3068 H         1 <0>         0.0724
     39 H6          1.5730   -5.2455    2.6863 H         1 <0>         0.0568
     40 H7          0.6616   -2.9404    2.7540 H         1 <0>         0.0820
     41 H8          2.2477   -2.3288    3.2816 H         1 <0>         0.0896
     42 H9          1.8857   -3.6709   -0.6700 H         1 <0>         0.0853
     43 H10         0.8475   -4.4576    0.5431 H         1 <0>         0.0843
     44 H11        -0.3007   -2.7316   -0.9742 H         1 <0>         0.0751
     45 H12        -0.5230   -2.5026    0.7769 H         1 <0>         0.0685
     46 H13         0.6428   -1.4929   -0.1118 H         1 <0>         0.0633
     47 H14         1.8888   -1.5799   -1.0561 H         1 <0>         0.1541
     48 H15         2.5802   -1.3439   -3.4047 H         1 <0>         0.1427
     49 H16         6.4498   -2.8586   -2.4380 H         1 <0>         0.1243
     50 H17         5.7823   -3.0914   -0.0821 H         1 <0>         0.1428
     51 H18         6.9635   -3.7546   -4.3113 H         1 <0>         0.1167
     52 H19         7.0902   -5.9788   -5.3573 H         1 <0>         0.1385
     53 H20         5.2470   -6.7790   -6.7793 H         1 <0>         0.1409
     54 H21         3.1414   -3.1236   -6.0937 H         1 <0>         0.1422
     55 H22         4.0878   -6.7641   -8.5234 H         1 <0>         0.0622
     56 H23         3.2992   -7.4804   -7.0975 H         1 <0>         0.0621
     57 H24         2.3198   -6.9675   -8.4925 H         1 <0>         0.1108
     58 H25         6.8614   -2.3728   -6.2765 H         1 <0>         0.1408
     59 H26         6.0993   -0.7966   -6.5972 H         1 <0>         0.1402
     60 H27         8.2331    0.2441   -3.5062 H         1 <0>         0.0587
     61 H28         7.4623    1.8086   -3.8640 H         1 <0>         0.1262
     62 H29         6.1642   -0.5969   -2.0883 H         1 <0>         0.0840
     63 H30         5.7995    1.1354   -2.2741 H         1 <0>         0.1007
     64 H31         4.5727   -0.0829   -2.6975 H         1 <0>         0.0994
     65 H32        10.0521    0.9832   -4.9055 H         1 <0>         0.0490
     66 H33         9.7830    1.2382   -6.6464 H         1 <0>         0.1013
     67 H34         8.4728    3.4267   -5.9967 H         1 <0>         0.1193
     68 H35         9.7451    4.5267   -4.2988 H         1 <0>         0.1067
     69 H36        10.5880    2.9094   -3.8826 H         1 <0>         0.0969
     70 H37         7.9867   -0.1570   -8.0933 H         1 <0>         0.0789
     71 H38         9.6629   -0.2390   -7.5001 H         1 <0>         0.0796
     72 H39         8.7498   -1.7377   -7.7975 H         1 <0>         0.0752
     73 H40         6.9346   -1.7852   -3.9624 H         1 <0>         0.4129
@<TRIPOS>BOND
     1    1    2 1
     2    1   37 1
     3    1   38 1
     4    1   39 1
     5    2    3 1
     6    2   40 1
     7    2   41 1
     8    3    4 1
     9    3    6 am
    10    4    5 1
    11    4   42 1
    12    4   43 1
    13    5   44 1
    14    5   45 1
    15    5   46 1
    16    6    7 2
    17    6    8 1
    18    8   13 ar
    19    8    9 ar
    20    9   10 ar
    21    9   47 1
    22   10   11 ar
    23   10   48 1
    24   11   12 ar
    25   11   14 1
    26   12   13 ar
    27   12   49 1
    28   13   50 1
    29   14   15 1
    30   14   16 1
    31   14   24 1
    32   16   21 ar
    33   16   17 ar
    34   17   18 ar
    35   17   51 1
    36   18   19 ar
    37   18   52 1
    38   19   20 ar
    39   19   53 1
    40   20   21 ar
    41   20   22 1
    42   21   54 1
    43   22   23 1
    44   23   55 1
    45   23   56 1
    46   23   57 1
    47   24   30 1
    48   24   25 1
    49   24   73 1
    50   25   26 1
    51   25   58 1
    52   25   59 1
    53   26   27 1
    54   26   28 1
    55   26   36 1
    56   28   29 1
    57   28   33 1
    58   29   30 1
    59   29   60 1
    60   29   61 1
    61   30   31 1
    62   30   32 1
    63   32   62 1
    64   32   63 1
    65   32   64 1
    66   33   34 1
    67   33   65 1
    68   33   66 1
    69   34   35 2
    70   34   67 1
    71   35   68 1
    72   35   69 1
    73   36   70 1
    74   36   71 1
    75   36   72 1
@<TRIPOS>MOLECULE
ZINC22066510
   72    74     0     0     0
SMALL
USER_CHARGES

@<TRIPOS>ATOM
      1 C1          2.1295   -1.3205    3.8951 C.3       1 <0>        -0.1676
      2 C2          1.6862   -0.2597    2.8856 C.3       1 <0>         0.1092
      3 N1          1.9679   -0.7304    1.5272 N.am      1 <0>        -0.6081
      4 C3          0.9979   -1.5784    0.8299 C.3       1 <0>         0.0967
      5 C4         -0.1181   -0.7066    0.2506 C.3       1 <0>        -0.1783
      6 C5          3.1194   -0.3832    0.9190 C.2       1 <0>         0.5598
      7 O1          3.9442    0.2827    1.5138 O.2       1 <0>        -0.5325
      8 C6          3.3794   -0.8123   -0.4717 C.ar      1 <0>        -0.1298
      9 C7          2.3801   -0.6969   -1.4393 C.ar      1 <0>        -0.1006
     10 C8          2.6294   -1.0987   -2.7353 C.ar      1 <0>        -0.1242
     11 C9          3.8665   -1.6156   -3.0767 C.ar      1 <0>        -0.0371
     12 C10         4.8613   -1.7331   -2.1223 C.ar      1 <0>        -0.0925
     13 C11         4.6271   -1.3292   -0.8241 C.ar      1 <0>        -0.0713
     14 C12         4.1316   -2.0530   -4.4943 C.3       1 <0>         0.1647
     15 H1          3.4074   -1.5841   -5.1606 H         1 <0>         0.0639
     16 C13         4.0051   -3.5516   -4.5896 C.ar      1 <0>        -0.0412
     17 C14         4.9574   -4.3641   -4.0020 C.ar      1 <0>        -0.1310
     18 C15         4.8442   -5.7392   -4.0876 C.ar      1 <0>        -0.0815
     19 C16         3.7789   -6.3052   -4.7612 C.ar      1 <0>        -0.2053
     20 C17         2.8223   -5.4925   -5.3515 C.ar      1 <0>         0.1287
     21 C18         2.9349   -4.1126   -5.2589 C.ar      1 <0>        -0.1432
     22 O2          1.7735   -6.0468   -6.0145 O.3       1 <0>        -0.3178
     23 C19         1.7188   -7.4739   -6.0646 C.3       1 <0>         0.0273
     24 N2          5.4891   -1.6503   -4.8853 N.3       1 <0>        -0.5241
     25 C20         5.9518   -2.4191   -6.0491 C.3       1 <0>         0.0580
     26 C21         7.3951   -2.0276   -6.3748 C.3       1 <0>         0.0852
     27 H2          8.0376   -2.2704   -5.5284 H         1 <0>         0.0496
     28 N3          7.4600   -0.5838   -6.6413 N.3       1 <0>        -0.5331
     29 C22         6.9973    0.1850   -5.4774 C.3       1 <0>         0.0660
     30 C23         5.5540   -0.2066   -5.1518 C.3       1 <0>         0.0883
     31 H3          4.9116    0.0362   -5.9982 H         1 <0>         0.0511
     32 C24         5.0830    0.5623   -3.9158 C.3       1 <0>        -0.1581
     33 C25         8.8176   -0.1812   -7.0323 C.3       1 <0>         0.0755
     34 C26         8.7957    1.2405   -7.5316 C.2       1 <0>        -0.1451
     35 C27         9.5853    2.1362   -6.9927 C.2       1 <0>        -0.1908
     36 C28         7.8663   -2.7969   -7.6105 C.3       1 <0>        -0.1491
     37 H4          3.1992   -1.5000    3.7873 H         1 <0>         0.0589
     38 H5          1.9199   -0.9703    4.9058 H         1 <0>         0.0674
     39 H6          1.5853   -2.2468    3.7114 H         1 <0>         0.0553
     40 H7          0.6165   -0.0801    2.9934 H         1 <0>         0.0766
     41 H8          2.2304    0.6667    3.0694 H         1 <0>         0.0863
     42 H9          1.4975   -2.1133    0.0222 H         1 <0>         0.0897
     43 H10         0.5717   -2.2955    1.5315 H         1 <0>         0.0782
     44 H11        -0.6418   -1.2583   -0.5301 H         1 <0>         0.0719
     45 H12        -0.8198   -0.4417    1.0415 H         1 <0>         0.0618
     46 H13         0.3124    0.2011   -0.1723 H         1 <0>         0.0654
     47 H14         1.4137   -0.2943   -1.1739 H         1 <0>         0.1393
     48 H15         1.8570   -1.0100   -3.4850 H         1 <0>         0.1257
     49 H16         5.8248   -2.1377   -2.3952 H         1 <0>         0.1358
     50 H17         5.4060   -1.4169   -0.0812 H         1 <0>         0.1275
     51 H18         5.7913   -3.9236   -3.4757 H         1 <0>         0.1302
     52 H19         5.5893   -6.3716   -3.6279 H         1 <0>         0.1256
     53 H20         3.6913   -7.3796   -4.8285 H         1 <0>         0.1272
     54 H21         2.1889   -3.4777   -5.7135 H         1 <0>         0.1283
     55 H22         1.6675   -7.8713   -5.0509 H         1 <0>         0.0558
     56 H23         0.8348   -7.7843   -6.6217 H         1 <0>         0.1010
     57 H24         2.6123   -7.8546   -6.5593 H         1 <0>         0.0559
     58 H25         5.9063   -3.4844   -5.8227 H         1 <0>         0.0911
     59 H26         5.3139   -2.2015   -6.9057 H         1 <0>         0.0435
     60 H27         7.6353   -0.0327   -4.6209 H         1 <0>         0.0424
     61 H28         7.0429    1.2502   -5.7038 H         1 <0>         0.0816
     62 H29         5.6128    0.1962   -3.0364 H         1 <0>         0.0715
     63 H30         5.2892    1.6244   -4.0482 H         1 <0>         0.0575
     64 H31         4.0114    0.4141   -3.7822 H         1 <0>         0.0661
     65 H32         9.4805   -0.2533   -6.1700 H         1 <0>         0.0380
     66 H33         9.1779   -0.8386   -7.8235 H         1 <0>         0.0892
     67 H34         8.1290    1.5210   -8.3336 H         1 <0>         0.1132
     68 H35        10.2520    1.8558   -6.1907 H         1 <0>         0.0940
     69 H36         9.5696    3.1551   -7.3506 H         1 <0>         0.0994
     70 H37         7.2242   -2.5533   -8.4569 H         1 <0>         0.0644
     71 H38         8.8942   -2.5178   -7.8421 H         1 <0>         0.0605
     72 H39         7.8163   -3.8676   -7.4128 H         1 <0>         0.0621
@<TRIPOS>BOND
     1    1    2 1
     2    1   37 1
     3    1   38 1
     4    1   39 1
     5    2    3 1
     6    2   40 1
     7    2   41 1
     8    3    4 1
     9    3    6 am
    10    4    5 1
    11    4   42 1
    12    4   43 1
    13    5   44 1
    14    5   45 1
    15    5   46 1
    16    6    7 2
    17    6    8 1
    18    8   13 ar
    19    8    9 ar
    20    9   10 ar
    21    9   47 1
    22   10   11 ar
    23   10   48 1
    24   11   12 ar
    25   11   14 1
    26   12   13 ar
    27   12   49 1
    28   13   50 1
    29   14   15 1
    30   14   16 1
    31   14   24 1
    32   16   21 ar
    33   16   17 ar
    34   17   18 ar
    35   17   51 1
    36   18   19 ar
    37   18   52 1
    38   19   20 ar
    39   19   53 1
    40   20   21 ar
    41   20   22 1
    42   21   54 1
    43   22   23 1
    44   23   55 1
    45   23   56 1
    46   23   57 1
    47   24   30 1
    48   24   25 1
    49   25   26 1
    50   25   58 1
    51   25   59 1
    52   26   27 1
    53   26   28 1
    54   26   36 1
    55   28   29 1
    56   28   33 1
    57   29   30 1
    58   29   60 1
    59   29   61 1
    60   30   31 1
    61   30   32 1
    62   32   62 1
    63   32   63 1
    64   32   64 1
    65   33   34 1
    66   33   65 1
    67   33   66 1
    68   34   35 2
    69   34   67 1
    70   35   68 1
    71   35   69 1
    72   36   70 1
    73   36   71 1
    74   36   72 1
@<TRIPOS>MOLECULE
ZINC53147203
   74    75     0     0     0
SMALL
USER_CHARGES

@<TRIPOS>ATOM
      1 C1         -0.0225    1.8097    0.0120 C.3       1 <0>        -0.1211
      2 S1          0.0021   -0.0041    0.0020 S.3       1 <0>        -0.2721
      3 C2         -1.7518   -0.4668    0.0163 C.3       1 <0>        -0.0758
      4 C3         -1.8771   -1.9917    0.0093 C.3       1 <0>        -0.0932
      5 C4         -3.3564   -2.3820    0.0213 C.3       1 <0>         0.0814
      6 H1         -3.8661   -1.9002   -0.8131 H         1 <0>         0.0862
      7 C5         -3.4823   -3.8780   -0.1094 C.2       1 <0>         0.4933
      8 O1         -3.8614   -4.5431    0.8396 O.co2     1 <0>        -0.6829
      9 O2         -3.2050   -4.4233   -1.1640 O.co2     1 <0>        -0.6914
     10 N1         -3.9655   -1.9489    1.2813 N.am      1 <0>        -0.6867
     11 C6         -5.2910   -1.7131    1.3430 C.2       1 <0>         0.5116
     12 O3         -5.9796   -1.8594    0.3554 O.2       1 <0>        -0.5408
     13 C7         -5.9176   -1.2675    2.6392 C.3       1 <0>         0.1412
     14 H2         -5.4677   -0.3265    2.9556 H         1 <0>         0.1113
     15 C8         -5.6812   -2.3321    3.7123 C.3       1 <0>        -0.0910
     16 C9         -6.1992   -1.8339    5.0369 C.ar      1 <0>        -0.0566
     17 C10        -5.3674   -1.1219    5.8808 C.ar      1 <0>        -0.1047
     18 C11        -5.8426   -0.6649    7.0957 C.ar      1 <0>        -0.1131
     19 C12        -7.1497   -0.9194    7.4667 C.ar      1 <0>        -0.1244
     20 C13        -7.9817   -1.6306    6.6224 C.ar      1 <0>        -0.1147
     21 C14        -7.5078   -2.0839    5.4055 C.ar      1 <0>        -0.1103
     22 N2         -7.3576   -1.0799    2.4463 N.am      1 <0>        -0.7022
     23 C15        -8.0409   -0.2388    3.2477 C.2       1 <0>         0.5105
     24 O4         -7.4636    0.3627    4.1285 O.2       1 <0>        -0.5219
     25 C16        -9.5222   -0.0457    3.0493 C.3       1 <0>         0.1012
     26 N3        -10.0269    0.9100    4.0383 N.am      1 <0>        -0.7065
     27 C17       -11.3339    1.2390    4.0517 C.2       1 <0>         0.5121
     28 O5        -12.0921    0.7438    3.2450 O.2       1 <0>        -0.5379
     29 C18       -11.8530    2.2221    5.0690 C.3       1 <0>         0.0991
     30 N4        -13.2931    2.4098    4.8762 N.am      1 <0>        -0.7135
     31 C19       -13.9763    3.2509    5.6775 C.2       1 <0>         0.4823
     32 O6        -13.3990    3.8524    6.5583 O.2       1 <0>        -0.5427
     33 C20       -15.4577    3.4439    5.4791 C.3       1 <0>         0.0845
     34 H3        -15.9216    2.4847    5.2494 H         1 <0>         0.1071
     35 C21       -15.6949    4.4155    4.3212 C.3       1 <0>        -0.0684
     36 C22       -17.1726    4.5139    4.0428 C.ar      1 <0>        -0.0781
     37 C23       -17.7642    3.6487    3.1411 C.ar      1 <0>        -0.1010
     38 C24       -19.1186    3.7372    2.8837 C.ar      1 <0>        -0.1459
     39 C25       -19.8853    4.6950    3.5313 C.ar      1 <0>         0.0996
     40 C26       -19.2895    5.5617    4.4360 C.ar      1 <0>        -0.1467
     41 C27       -17.9356    5.4657    4.6937 C.ar      1 <0>        -0.0735
     42 O7        -21.2178    4.7844    3.2795 O.3       1 <0>        -0.5022
     43 N5        -16.0489    3.9920    6.7072 N.3       1 <0>        -0.8134
     44 H4          1.0001    2.1870    0.0043 H         1 <0>         0.0982
     45 H5         -0.5497    2.1708   -0.8711 H         1 <0>         0.0736
     46 H6         -0.5327    2.1613    0.9088 H         1 <0>         0.0731
     47 H7         -2.2257   -0.0675    0.9130 H         1 <0>         0.0773
     48 H8         -2.2427   -0.0579   -0.8669 H         1 <0>         0.0796
     49 H9         -1.4032   -2.3910   -0.8874 H         1 <0>         0.0924
     50 H10        -1.3862   -2.4006    0.8924 H         1 <0>         0.0733
     51 H11        -3.4147   -1.8318    2.0712 H         1 <0>         0.3931
     52 H12        -6.2058   -3.2473    3.4380 H         1 <0>         0.0871
     53 H13        -4.6134   -2.5358    3.7932 H         1 <0>         0.0920
     54 H14        -4.3462   -0.9231    5.5910 H         1 <0>         0.1165
     55 H15        -5.1925   -0.1092    7.7554 H         1 <0>         0.1148
     56 H16        -7.5207   -0.5629    8.4162 H         1 <0>         0.1128
     57 H17        -9.0029   -1.8298    6.9124 H         1 <0>         0.1114
     58 H18        -8.1590   -2.6364    4.7443 H         1 <0>         0.1104
     59 H19        -7.8194   -1.5610    1.7419 H         1 <0>         0.4134
     60 H20        -9.7075    0.3377    2.0460 H         1 <0>         0.1019
     61 H21       -10.0329   -1.0007    3.1733 H         1 <0>         0.1012
     62 H22        -9.4205    1.3060    4.6835 H         1 <0>         0.4159
     63 H23       -11.6677    1.8386    6.0724 H         1 <0>         0.1016
     64 H24       -11.3423    3.1770    4.9450 H         1 <0>         0.1017
     65 H25       -13.7548    1.9287    4.1717 H         1 <0>         0.4137
     66 H26       -15.3090    5.3994    4.5877 H         1 <0>         0.0807
     67 H27       -15.1808    4.0524    3.4313 H         1 <0>         0.0840
     68 H28       -17.1669    2.9032    2.6372 H         1 <0>         0.1260
     69 H29       -19.5800    3.0616    2.1788 H         1 <0>         0.1266
     70 H30       -19.8842    6.3083    4.9413 H         1 <0>         0.1259
     71 H31       -17.4721    6.1373    5.4012 H         1 <0>         0.1259
     72 H32       -21.7653    4.2387    3.8604 H         1 <0>         0.3895
     73 H33       -15.9622    3.3401    7.4724 H         1 <0>         0.3470
     74 H34       -15.6352    4.8819    6.9417 H         1 <0>         0.3503
@<TRIPOS>BOND
     1    1    2 1
     2    1   44 1
     3    1   45 1
     4    1   46 1
     5    2    3 1
     6    3    4 1
     7    3   47 1
     8    3   48 1
     9    4    5 1
    10    4   49 1
    11    4   50 1
    12    5    6 1
    13    5    7 1
    14    5   10 1
    15    7    8 2
    16    7    9 1
    17   10   11 am
    18   10   51 1
    19   11   12 2
    20   11   13 1
    21   13   14 1
    22   13   15 1
    23   13   22 1
    24   15   16 1
    25   15   52 1
    26   15   53 1
    27   16   21 ar
    28   16   17 ar
    29   17   18 ar
    30   17   54 1
    31   18   19 ar
    32   18   55 1
    33   19   20 ar
    34   19   56 1
    35   20   21 ar
    36   20   57 1
    37   21   58 1
    38   22   23 am
    39   22   59 1
    40   23   24 2
    41   23   25 1
    42   25   26 1
    43   25   60 1
    44   25   61 1
    45   26   27 am
    46   26   62 1
    47   27   28 2
    48   27   29 1
    49   29   30 1
    50   29   63 1
    51   29   64 1
    52   30   31 am
    53   30   65 1
    54   31   32 2
    55   31   33 1
    56   33   34 1
    57   33   35 1
    58   33   43 1
    59   35   36 1
    60   35   66 1
    61   35   67 1
    62   36   41 ar
    63   36   37 ar
    64   37   38 ar
    65   37   68 1
    66   38   39 ar
    67   38   69 1
    68   39   40 ar
    69   39   42 1
    70   40   41 ar
    71   40   70 1
    72   41   71 1
    73   42   72 1
    74   43   73 1
    75   43   74 1
@<TRIPOS>MOLECULE
ZINC02509756
   42    43     0     0     0
SMALL
USER_CHARGES

@<TRIPOS>ATOM
      1 C1         -0.0178    1.4648    0.0101 C.3       1 <0>        -0.0567
      2 N1          0.0021   -0.0041    0.0020 N.4       1 <0>        -0.3878
      3 C2          0.7126   -0.4907    1.1921 C.3       1 <0>        -0.0474
      4 C3         -1.3761   -0.5125    0.0124 C.3       1 <0>        -0.0103
      5 C4         -2.0780   -0.1101   -1.2861 C.3       1 <0>        -0.0956
      6 H1         -2.0144    0.9705   -1.4137 H         1 <0>         0.1055
      7 C5         -1.3995   -0.8041   -2.4688 C.3       1 <0>        -0.1252
      8 C6         -2.1014   -0.4017   -3.7674 C.3       1 <0>        -0.1201
      9 C7         -3.5711   -0.8221   -3.7042 C.3       1 <0>        -0.1216
     10 C8         -4.2497   -0.1281   -2.5214 C.3       1 <0>        -0.1416
     11 C9         -3.5477   -0.5306   -1.2229 C.3       1 <0>         0.1939
     12 C10        -4.2161    0.1530   -0.0579 C.ar      1 <0>        -0.1071
     13 C11        -3.7786    1.3977    0.3564 C.ar      1 <0>        -0.1410
     14 C12        -4.3896    2.0274    1.4247 C.ar      1 <0>        -0.0946
     15 C13        -5.4390    1.4140    2.0816 C.ar      1 <0>        -0.1394
     16 C14        -5.8796    0.1655    1.6680 C.ar      1 <0>         0.1244
     17 C15        -5.2687   -0.4618    0.5916 C.ar      1 <0>        -0.1358
     18 O1         -6.9117   -0.4400    2.3124 O.3       1 <0>        -0.4972
     19 O2         -3.6311   -1.9473   -1.0556 O.3       1 <0>        -0.5505
     20 H2          1.0047    1.8421    0.0024 H         1 <0>         0.1271
     21 H3         -0.5450    1.8259   -0.8730 H         1 <0>         0.1221
     22 H4         -0.5280    1.8163    0.9069 H         1 <0>         0.1238
     23 H5          0.2024   -0.1392    2.0889 H         1 <0>         0.1220
     24 H6          0.7273   -1.5806    1.1861 H         1 <0>         0.1241
     25 H7          1.7352   -0.1134    1.1844 H         1 <0>         0.1253
     26 H8         -1.3618   -1.5992    0.0961 H         1 <0>         0.1406
     27 H9         -1.9129   -0.0898    0.8617 H         1 <0>         0.1329
     28 H10        -0.3524   -0.5046   -2.5139 H         1 <0>         0.0578
     29 H11        -1.4631   -1.8847   -2.3413 H         1 <0>         0.0907
     30 H12        -2.0378    0.6790   -3.8950 H         1 <0>         0.0660
     31 H13        -1.6180   -0.8961   -4.6100 H         1 <0>         0.0763
     32 H14        -4.0712   -0.5354   -4.6293 H         1 <0>         0.0734
     33 H15        -3.6347   -1.9028   -3.5766 H         1 <0>         0.0754
     34 H16        -4.1861    0.9525   -2.6490 H         1 <0>         0.0781
     35 H17        -5.2967   -0.4277   -2.4764 H         1 <0>         0.0777
     36 H18        -2.9581    1.8786   -0.1553 H         1 <0>         0.1212
     37 H19        -4.0462    2.9995    1.7463 H         1 <0>         0.1326
     38 H20        -5.9155    1.9060    2.9166 H         1 <0>         0.1356
     39 H21        -5.6131   -1.4318    0.2646 H         1 <0>         0.1311
     40 H22        -7.7815   -0.2304    1.9457 H         1 <0>         0.4003
     41 H23        -4.5359   -2.2851   -1.0074 H         1 <0>         0.3898
     42 H24         0.4743   -0.3295   -0.8281 H         1 <0>         0.4241
@<TRIPOS>BOND
     1    1    2 1
     2    1   20 1
     3    1   21 1
     4    1   22 1
     5    2    3 1
     6    2    4 1
     7    2   42 1
     8    3   23 1
     9    3   24 1
    10    3   25 1
    11    4    5 1
    12    4   26 1
    13    4   27 1
    14    5    6 1
    15    5   11 1
    16    5    7 1
    17    7    8 1
    18    7   28 1
    19    7   29 1
    20    8    9 1
    21    8   30 1
    22    8   31 1
    23    9   10 1
    24    9   32 1
    25    9   33 1
    26   10   11 1
    27   10   34 1
    28   10   35 1
    29   11   12 1
    30   11   19 1
    31   12   17 ar
    32   12   13 ar
    33   13   14 ar
    34   13   36 1
    35   14   15 ar
    36   14   37 1
    37   15   16 ar
    38   15   38 1
    39   16   17 ar
    40   16   18 1
    41   17   39 1
    42   18   40 1
    43   19   41 1
@<TRIPOS>MOLECULE
ZINC06092289
   51    56     0     0     0
SMALL
USER_CHARGES

@<TRIPOS>ATOM
      1 C1         -0.2585    1.2511    0.4629 C.ar      1 <0>        -0.1146
      2 C2          0.8922    2.0166    0.5631 C.ar      1 <0>        -0.0973
      3 C3          2.1752    1.4744    0.5394 C.ar      1 <0>         0.1078
      4 C4          2.2764    0.0872    0.3866 C.ar      1 <0>         0.1041
      5 C5          1.1018   -0.6366    0.2365 C.ar      1 <0>        -0.1870
      6 C6         -0.1710   -0.1214    0.3127 C.ar      1 <0>        -0.0605
      7 C7         -1.3378   -1.0549    0.2905 C.3       1 <0>        -0.0920
      8 C8         -0.9433   -2.5076    0.0868 C.3       1 <0>         0.0158
      9 H1         -1.7119   -3.1291    0.5462 H         1 <0>         0.1432
     10 C9          0.3995   -2.8953    0.7028 C.3       1 <0>         0.1458
     11 C10         1.4837   -2.0864    0.0557 C.3       1 <0>        -0.0288
     12 C11         1.5189   -2.4095   -1.4393 C.3       1 <0>        -0.1234
     13 C12         0.1442   -2.0700   -2.0294 C.3       1 <0>        -0.0095
     14 N1         -0.9052   -2.8314   -1.3456 N.4       1 <0>        -0.3738
     15 C13        -2.2056   -2.5084   -1.9478 C.3       1 <0>         0.0181
     16 C14        -2.2317   -2.9971   -3.3975 C.3       1 <0>        -0.2107
     17 C15        -2.3688   -1.9414   -4.4964 C.3       1 <0>        -0.1677
     18 C16        -3.5476   -2.8590   -4.1658 C.3       1 <0>        -0.1476
     19 C17         2.8672   -2.0975    0.6815 C.3       1 <0>         0.1175
     20 H2          3.5015   -2.8537    0.2189 H         1 <0>         0.1411
     21 O1          3.3398   -0.7459    0.3730 O.3       1 <0>        -0.2764
     22 C18         2.8645   -2.2380    2.1909 C.3       1 <0>         0.0936
     23 H3          2.7929   -1.2415    2.6267 H         1 <0>         0.0599
     24 C19         1.7536   -3.0865    2.7640 C.3       1 <0>        -0.1480
     25 C20         0.4182   -2.6261    2.2040 C.3       1 <0>        -0.1400
     26 O2          4.1117   -2.8101    2.5897 O.3       1 <0>        -0.5586
     27 O3          0.6447   -4.2834    0.4679 O.3       1 <0>        -0.5423
     28 O4          3.2800    2.2584    0.6588 O.3       1 <0>        -0.4788
     29 H4         -1.2269    1.7270    0.5068 H         1 <0>         0.1398
     30 H5          0.7893    3.0869    0.6642 H         1 <0>         0.1438
     31 H6         -1.8735   -0.9675    1.2357 H         1 <0>         0.1264
     32 H7         -2.0077   -0.7581   -0.5166 H         1 <0>         0.1071
     33 H8          2.2877   -1.8107   -1.9277 H         1 <0>         0.1174
     34 H9          1.7299   -3.4693   -1.5825 H         1 <0>         0.1086
     35 H10        -0.0468   -1.0037   -1.9087 H         1 <0>         0.1310
     36 H11         0.1361   -2.3175   -3.0909 H         1 <0>         0.1378
     37 H12        -2.9990   -2.9996   -1.3845 H         1 <0>         0.1348
     38 H13        -2.3584   -1.4294   -1.9253 H         1 <0>         0.1322
     39 H14        -1.6134   -3.8689   -3.6109 H         1 <0>         0.1255
     40 H15        -2.4403   -0.8988   -4.1867 H         1 <0>         0.1058
     41 H16        -1.8404   -2.1186   -5.4332 H         1 <0>         0.1108
     42 H17        -3.7947   -3.6399   -4.8851 H         1 <0>         0.1128
     43 H18        -4.3946   -2.4201   -3.6386 H         1 <0>         0.1076
     44 H19         1.9359   -4.1306    2.5096 H         1 <0>         0.0942
     45 H20         1.7490   -2.9814    3.8489 H         1 <0>         0.0870
     46 H21         0.2532   -1.5649    2.3905 H         1 <0>         0.0939
     47 H22        -0.3592   -3.2126    2.6936 H         1 <0>         0.0869
     48 H23         4.1989   -2.9370    3.5444 H         1 <0>         0.3893
     49 H24        -0.0243   -4.8704    0.8461 H         1 <0>         0.3917
     50 H25         3.5742    2.3869    1.5710 H         1 <0>         0.3988
     51 H26        -0.7251   -3.8179   -1.4575 H         1 <0>         0.4271
@<TRIPOS>BOND
     1    1    6 ar
     2    1    2 ar
     3    1   29 1
     4    2    3 ar
     5    2   30 1
     6    3    4 ar
     7    3   28 1
     8    4   21 1
     9    4    5 ar
    10    5   11 1
    11    5    6 ar
    12    6    7 1
    13    7    8 1
    14    7   31 1
    15    7   32 1
    16    8    9 1
    17    8   14 1
    18    8   10 1
    19   10   25 1
    20   10   11 1
    21   10   27 1
    22   11   12 1
    23   11   19 1
    24   12   13 1
    25   12   33 1
    26   12   34 1
    27   13   14 1
    28   13   35 1
    29   13   36 1
    30   14   15 1
    31   14   51 1
    32   15   16 1
    33   15   37 1
    34   15   38 1
    35   16   18 1
    36   16   17 1
    37   16   39 1
    38   17   18 1
    39   17   40 1
    40   17   41 1
    41   18   42 1
    42   18   43 1
    43   19   20 1
    44   19   21 1
    45   19   22 1
    46   22   23 1
    47   22   24 1
    48   22   26 1
    49   24   25 1
    50   24   44 1
    51   24   45 1
    52   25   46 1
    53   25   47 1
    54   26   48 1
    55   27   49 1
    56   28   50 1
@<TRIPOS>MOLECULE
ZINC00602902
   57    60     0     0     0
SMALL
USER_CHARGES

@<TRIPOS>ATOM
      1 C1         -0.0095    1.5771   -0.0196 C.3       1 <0>        -0.1481
      2 C2          0.0095    0.0473   -0.0152 C.3       1 <0>        -0.0832
      3 C3          0.7133   -0.4499   -1.2515 C.ar      1 <0>        -0.1153
      4 C4         -0.0072   -0.6870   -2.4076 C.ar      1 <0>        -0.0776
      5 C5          0.6355   -1.1432   -3.5421 C.ar      1 <0>        -0.1458
      6 C6          2.0052   -1.3631   -3.5210 C.ar      1 <0>         0.1240
      7 C7          2.7259   -1.1241   -2.3599 C.ar      1 <0>        -0.2040
      8 C8          2.0793   -0.6629   -1.2295 C.ar      1 <0>        -0.0793
      9 O1          2.6397   -1.8123   -4.6356 O.3       1 <0>        -0.3191
     10 C9          4.0509   -2.0164   -4.5410 C.3       1 <0>         0.1055
     11 C10         4.5765   -2.5118   -5.8636 C.ar      1 <0>        -0.0209
     12 C11         3.7152   -2.6917   -6.9264 C.ar      1 <0>        -0.1047
     13 C12         4.1961   -3.1469   -8.1410 C.ar      1 <0>        -0.0751
     14 C13         5.5425   -3.4249   -8.2989 C.ar      1 <0>        -0.1234
     15 C14         6.4143   -3.2494   -7.2446 C.ar      1 <0>        -0.0807
     16 C15         5.9367   -2.7843   -6.0179 C.ar      1 <0>        -0.1483
     17 C16         6.8661   -2.5881   -4.8855 C.2       1 <0>         0.5705
     18 O2          6.4464   -2.1886   -3.8168 O.2       1 <0>        -0.5105
     19 N1          8.1790   -2.8522   -5.0377 N.am      1 <0>        -0.6729
     20 C17         9.0733   -2.5758   -3.9979 C.ar      1 <0>         0.1722
     21 C18         8.6686   -2.7491   -2.6700 C.ar      1 <0>        -0.0379
     22 C19         9.5172   -2.4879   -1.6403 C.ar      1 <0>        -0.1225
     23 C20        10.8228   -2.0367   -1.9023 C.ar      1 <0>         0.1587
     24 C21        11.2375   -1.8602   -3.2441 C.ar      1 <0>        -0.1104
     25 C22        10.3481   -2.1403   -4.2900 C.ar      1 <0>        -0.1023
     26 C23        12.5535   -1.4057   -3.5002 C.ar      1 <0>         0.3574
     27 C24        13.3759   -1.1546   -2.4135 C.ar      1 <0>        -0.2639
     28 C25        12.8941   -1.3525   -1.1266 C.ar      1 <0>         0.2627
     29 N2         11.6719   -1.7747   -0.9016 N.ar      1 <0>        -0.5048
     30 C26        13.8004   -1.0755    0.0451 C.3       1 <0>        -0.1500
     31 N3         13.0056   -1.2180   -4.7981 N.pl3     1 <0>        -0.8000
     32 H1          1.0135    1.9532   -0.0314 H         1 <0>         0.0537
     33 H2         -0.5371    1.9313   -0.9052 H         1 <0>         0.0562
     34 H3         -0.5186    1.9368    0.8746 H         1 <0>         0.0591
     35 H4          0.5371   -0.3069    0.8705 H         1 <0>         0.0703
     36 H5         -1.0135   -0.3288   -0.0034 H         1 <0>         0.0728
     37 H6         -1.0734   -0.5156   -2.4235 H         1 <0>         0.1304
     38 H7          0.0722   -1.3289   -4.4446 H         1 <0>         0.1313
     39 H8          3.7922   -1.2945   -2.3409 H         1 <0>         0.1287
     40 H9          2.6406   -0.4725   -0.3267 H         1 <0>         0.1228
     41 H10         4.5378   -1.0751   -4.2861 H         1 <0>         0.0876
     42 H11         4.2601   -2.7549   -3.7672 H         1 <0>         0.0879
     43 H12         2.6632   -2.4770   -6.8097 H         1 <0>         0.1462
     44 H13         3.5176   -3.2864   -8.9697 H         1 <0>         0.1376
     45 H14         5.9114   -3.7803   -9.2497 H         1 <0>         0.1368
     46 H15         7.4648   -3.4670   -7.3690 H         1 <0>         0.1275
     47 H16         8.5038   -3.2338   -5.8682 H         1 <0>         0.4202
     48 H17         7.6673   -3.0950   -2.4597 H         1 <0>         0.1690
     49 H18         9.1882   -2.6268   -0.6210 H         1 <0>         0.1608
     50 H19        10.6577   -2.0122   -5.3167 H         1 <0>         0.1496
     51 H20        14.3868   -0.8069   -2.5669 H         1 <0>         0.1782
     52 H21        13.6884   -0.0361    0.3534 H         1 <0>         0.1182
     53 H22        13.5334   -1.7312    0.8739 H         1 <0>         0.0992
     54 H23        14.8351   -1.2591   -0.2445 H         1 <0>         0.1169
     55 H24        12.4171   -1.3988   -5.5476 H         1 <0>         0.4198
     56 H25        13.9104   -0.9060   -4.9561 H         1 <0>         0.4275
     57 H26        11.3762   -1.8995    0.0138 H         1 <0>         0.4413
@<TRIPOS>BOND
     1    1    2 1
     2    1   32 1
     3    1   33 1
     4    1   34 1
     5    2    3 1
     6    2   35 1
     7    2   36 1
     8    3    8 ar
     9    3    4 ar
    10    4    5 ar
    11    4   37 1
    12    5    6 ar
    13    5   38 1
    14    6    7 ar
    15    6    9 1
    16    7    8 ar
    17    7   39 1
    18    8   40 1
    19    9   10 1
    20   10   11 1
    21   10   41 1
    22   10   42 1
    23   11   16 ar
    24   11   12 ar
    25   12   13 ar
    26   12   43 1
    27   13   14 ar
    28   13   44 1
    29   14   15 ar
    30   14   45 1
    31   15   16 ar
    32   15   46 1
    33   16   17 1
    34   17   18 2
    35   17   19 am
    36   19   20 1
    37   19   47 1
    38   20   25 ar
    39   20   21 ar
    40   21   22 ar
    41   21   48 1
    42   22   23 ar
    43   22   49 1
    44   23   29 ar
    45   23   24 ar
    46   24   25 ar
    47   24   26 ar
    48   25   50 1
    49   26   27 ar
    50   26   31 1
    51   27   28 ar
    52   27   51 1
    53   28   29 ar
    54   28   30 1
    55   29   57 1
    56   30   52 1
    57   30   53 1
    58   30   54 1
    59   31   55 1
    60   31   56 1
@<TRIPOS>MOLECULE
ZINC00001773
   49    54     0     0     0
SMALL
USER_CHARGES

@<TRIPOS>ATOM
      1 C1         -0.2443    1.2570    0.4660 C.ar      1 <0>        -0.1112
      2 C2          0.9083    2.0200    0.5623 C.ar      1 <0>        -0.0962
      3 C3          2.1900    1.4753    0.5348 C.ar      1 <0>         0.1149
      4 C4          2.2879    0.0876    0.3806 C.ar      1 <0>         0.0997
      5 C5          1.1121   -0.6326    0.2304 C.ar      1 <0>        -0.1886
      6 C6         -0.1602   -0.1156    0.3155 C.ar      1 <0>        -0.0596
      7 C7         -1.3282   -1.0478    0.3098 C.3       1 <0>        -0.0925
      8 C8         -0.9396   -2.5064    0.1383 C.3       1 <0>         0.0145
      9 H1         -1.6997   -3.1130    0.6306 H         1 <0>         0.1456
     10 C9          0.4167   -2.8747    0.7456 C.3       1 <0>         0.1448
     11 C10         1.4829   -2.0836    0.0450 C.3       1 <0>        -0.0304
     12 C11         1.4804   -2.4286   -1.4426 C.3       1 <0>        -0.1241
     13 C12         0.0910   -2.1126   -2.0094 C.3       1 <0>        -0.0096
     14 N1         -0.9309   -2.8716   -1.2830 N.4       1 <0>        -0.3739
     15 C13        -2.2494   -2.5851   -1.8638 C.3       1 <0>         0.0182
     16 C14        -2.3011   -3.1153   -3.2981 C.3       1 <0>        -0.2108
     17 C15        -2.4792   -2.0935   -4.4229 C.3       1 <0>        -0.1679
     18 C16        -3.6360   -3.0186   -4.0393 C.3       1 <0>        -0.1476
     19 C17         2.8868   -2.1036    0.6341 C.3       1 <0>         0.0644
     20 H2          3.5148   -2.8457    0.1412 H         1 <0>         0.1600
     21 O1          3.3506   -0.7456    0.3657 O.3       1 <0>        -0.2592
     22 C18         2.8706   -2.3034    2.1213 C.2       1 <0>         0.3361
     23 O2          3.8019   -1.8874    2.7678 O.2       1 <0>        -0.4120
     24 C19         1.7528   -2.9946    2.8421 C.3       1 <0>        -0.1575
     25 C20         0.4362   -2.5258    2.2328 C.3       1 <0>        -0.1426
     26 O3          0.6517   -4.2744    0.5791 O.3       1 <0>        -0.5414
     27 O4          3.2968    2.2569    0.6522 O.3       1 <0>        -0.4785
     28 H3         -1.2116    1.7350    0.5131 H         1 <0>         0.1418
     29 H4          0.8079    3.0906    0.6634 H         1 <0>         0.1458
     30 H5         -1.8664   -0.9385    1.2514 H         1 <0>         0.1279
     31 H6         -1.9954   -0.7663   -0.5049 H         1 <0>         0.1079
     32 H7          2.2322   -1.8319   -1.9592 H         1 <0>         0.1192
     33 H8          1.6983   -3.4885   -1.5741 H         1 <0>         0.1097
     34 H9         -0.1082   -1.0460   -1.9055 H         1 <0>         0.1319
     35 H10         0.0606   -2.3836   -3.0648 H         1 <0>         0.1393
     36 H11        -3.0221   -3.0716   -1.2686 H         1 <0>         0.1355
     37 H12        -2.4183   -1.5083   -1.8682 H         1 <0>         0.1323
     38 H13        -1.6744   -3.9837   -3.5011 H         1 <0>         0.1257
     39 H14        -2.5597   -1.0437   -4.1411 H         1 <0>         0.1059
     40 H15        -1.9696   -2.2896   -5.3663 H         1 <0>         0.1108
     41 H16        -3.8874   -3.8232   -4.7304 H         1 <0>         0.1129
     42 H17        -4.4775   -2.5773   -3.5052 H         1 <0>         0.1078
     43 H18         1.8718   -4.0736    2.7439 H         1 <0>         0.1208
     44 H19         1.7811   -2.7239    3.8976 H         1 <0>         0.1111
     45 H20         0.2965   -1.4521    2.3583 H         1 <0>         0.0987
     46 H21        -0.3620   -3.0631    2.7449 H         1 <0>         0.0955
     47 H22        -0.0114   -4.8375    1.0014 H         1 <0>         0.3955
     48 H23         3.5936    2.3840    1.5637 H         1 <0>         0.4013
     49 H24        -0.7373   -3.8580   -1.3711 H         1 <0>         0.4280
@<TRIPOS>BOND
     1    1    6 ar
     2    1    2 ar
     3    1   28 1
     4    2    3 ar
     5    2   29 1
     6    3    4 ar
     7    3   27 1
     8    4   21 1
     9    4    5 ar
    10    5   11 1
    11    5    6 ar
    12    6    7 1
    13    7    8 1
    14    7   30 1
    15    7   31 1
    16    8    9 1
    17    8   14 1
    18    8   10 1
    19   10   25 1
    20   10   11 1
    21   10   26 1
    22   11   12 1
    23   11   19 1
    24   12   13 1
    25   12   32 1
    26   12   33 1
    27   13   14 1
    28   13   34 1
    29   13   35 1
    30   14   15 1
    31   14   49 1
    32   15   16 1
    33   15   36 1
    34   15   37 1
    35   16   18 1
    36   16   17 1
    37   16   38 1
    38   17   18 1
    39   17   39 1
    40   17   40 1
    41   18   41 1
    42   18   42 1
    43   19   20 1
    44   19   21 1
    45   19   22 1
    46   22   23 2
    47   22   24 1
    48   24   25 1
    49   24   43 1
    50   24   44 1
    51   25   45 1
    52   25   46 1
    53   26   47 1
    54   27   48 1
@<TRIPOS>MOLECULE
ZINC19796084
   64    68     0     0     0
SMALL
USER_CHARGES

@<TRIPOS>ATOM
      1 C1         -0.2663   -0.3620    5.4641 C.ar      1 <0>        -0.0986
      2 C2          0.6994    0.5149    5.0004 C.ar      1 <0>        -0.1026
      3 C3          1.8638    0.0332    4.4352 C.ar      1 <0>        -0.1044
      4 C4          2.0664   -1.3346    4.3318 C.ar      1 <0>         0.0788
      5 C5          1.0924   -2.2191    4.7995 C.ar      1 <0>         0.0916
      6 C6         -0.0735   -1.7260    5.3654 C.ar      1 <0>        -0.0998
      7 N1          1.5706   -3.5059    4.5639 N.am      1 <0>        -0.6391
      8 H1          1.1107   -4.3313    4.7830 H         1 <0>         0.4399
      9 C7          2.7798   -3.4086    3.9799 C.2       1 <0>         0.6857
     10 O1          3.4724   -4.3503    3.6415 O.2       1 <0>        -0.5583
     11 N2          3.1062   -2.1115    3.8266 N.am      1 <0>        -0.5378
     12 C8          4.3442   -1.6036    3.2301 C.3       1 <0>         0.1610
     13 C9          4.4622   -2.1072    1.7886 C.3       1 <0>        -0.1674
     14 C10         5.7941   -1.6393    1.1981 C.3       1 <0>         0.0018
     15 N3          6.9027   -2.1747    1.9974 N.4       1 <0>        -0.3868
     16 C11         6.8368   -1.6390    3.3624 C.3       1 <0>        -0.0033
     17 C12         5.5451   -2.1068    4.0361 C.3       1 <0>        -0.1667
     18 C13         8.1794   -1.7878    1.3822 C.3       1 <0>        -0.0099
     19 C14         9.3321   -2.4478    2.1415 C.3       1 <0>        -0.1521
     20 C15        10.6618   -2.0449    1.5008 C.3       1 <0>        -0.1087
     21 C16        11.8145   -2.7048    2.2601 C.3       1 <0>         0.0020
     22 C17        11.7312   -4.2008    2.0984 C.ar      1 <0>        -0.0960
     23 C18        11.6406   -4.7550    0.8351 C.ar      1 <0>        -0.0887
     24 C19        11.5647   -6.1268    0.6856 C.ar      1 <0>        -0.1502
     25 C20        11.5793   -6.9462    1.8016 C.ar      1 <0>         0.1040
     26 C21        11.6701   -6.3900    3.0664 C.ar      1 <0>        -0.1491
     27 C22        11.7512   -5.0182    3.2131 C.ar      1 <0>        -0.0845
     28 F1         11.5046   -8.2873    1.6567 F         1 <0>        -0.1345
     29 C23        13.1272   -2.2122    1.7076 C.ar      1 <0>        -0.0972
     30 C24        13.3682   -2.2667    0.3474 C.ar      1 <0>        -0.0865
     31 C25        14.5714   -1.8148   -0.1604 C.ar      1 <0>        -0.1502
     32 C26        15.5358   -1.3073    0.6937 C.ar      1 <0>         0.1057
     33 C27        15.2933   -1.2531    2.0559 C.ar      1 <0>        -0.1489
     34 C28        14.0872   -1.7008    2.5608 C.ar      1 <0>        -0.0812
     35 F2         16.7126   -0.8656    0.1985 F         1 <0>        -0.1344
     36 H2         -1.1724    0.0221    5.9090 H         1 <0>         0.1403
     37 H3          0.5414    1.5802    5.0807 H         1 <0>         0.1389
     38 H4          2.6148    0.7203    4.0743 H         1 <0>         0.1287
     39 H5         -0.8291   -2.4070    5.7282 H         1 <0>         0.1370
     40 H6          4.3316   -0.5137    3.2367 H         1 <0>         0.1148
     41 H7          4.4224   -3.1964    1.7792 H         1 <0>         0.1076
     42 H8          3.6403   -1.7072    1.1949 H         1 <0>         0.1178
     43 H9          5.8813   -1.9960    0.1718 H         1 <0>         0.1377
     44 H10         5.8327   -0.5501    1.2078 H         1 <0>         0.1327
     45 H11         7.6939   -1.9955    3.9338 H         1 <0>         0.1389
     46 H12         6.8532   -0.5498    3.3259 H         1 <0>         0.1330
     47 H13         5.4972   -1.7066    5.0489 H         1 <0>         0.1174
     48 H14         5.5278   -3.1961    4.0734 H         1 <0>         0.1073
     49 H15         8.1953   -2.1141    0.3423 H         1 <0>         0.1326
     50 H16         8.2896   -0.7042    1.4247 H         1 <0>         0.1320
     51 H17         9.3162   -2.1215    3.1814 H         1 <0>         0.0898
     52 H18         9.2220   -3.5314    2.0990 H         1 <0>         0.0914
     53 H19        10.6777   -2.3712    0.4609 H         1 <0>         0.0799
     54 H20        10.7720   -0.9613    1.5433 H         1 <0>         0.0841
     55 H21        11.7465   -2.4493    3.3175 H         1 <0>         0.0944
     56 H22        11.6289   -4.1157   -0.0352 H         1 <0>         0.1319
     57 H23        11.4935   -6.5595   -0.3014 H         1 <0>         0.1380
     58 H24        11.6812   -7.0281    3.9376 H         1 <0>         0.1387
     59 H25        11.8265   -4.5844    4.1993 H         1 <0>         0.1333
     60 H26        12.6160   -2.6630   -0.3186 H         1 <0>         0.1302
     61 H27        14.7596   -1.8579   -1.2230 H         1 <0>         0.1383
     62 H28        16.0449   -0.8577    2.7231 H         1 <0>         0.1395
     63 H29        13.8961   -1.6545    3.6228 H         1 <0>         0.1335
     64 H30         6.8381   -3.1812    2.0286 H         1 <0>         0.4267
@<TRIPOS>BOND
     1    1    6 ar
     2    1    2 ar
     3    1   36 1
     4    2    3 ar
     5    2   37 1
     6    3    4 ar
     7    3   38 1
     8    4   11 1
     9    4    5 ar
    10    5    6 ar
    11    5    7 1
    12    6   39 1
    13    7    8 1
    14    7    9 am
    15    9   10 2
    16    9   11 am
    17   11   12 1
    18   12   17 1
    19   12   13 1
    20   12   40 1
    21   13   14 1
    22   13   41 1
    23   13   42 1
    24   14   15 1
    25   14   43 1
    26   14   44 1
    27   15   16 1
    28   15   18 1
    29   15   64 1
    30   16   17 1
    31   16   45 1
    32   16   46 1
    33   17   47 1
    34   17   48 1
    35   18   19 1
    36   18   49 1
    37   18   50 1
    38   19   20 1
    39   19   51 1
    40   19   52 1
    41   20   21 1
    42   20   53 1
    43   20   54 1
    44   21   22 1
    45   21   29 1
    46   21   55 1
    47   22   27 ar
    48   22   23 ar
    49   23   24 ar
    50   23   56 1
    51   24   25 ar
    52   24   57 1
    53   25   26 ar
    54   25   28 1
    55   26   27 ar
    56   26   58 1
    57   27   59 1
    58   29   34 ar
    59   29   30 ar
    60   30   31 ar
    61   30   60 1
    62   31   32 ar
    63   31   61 1
    64   32   33 ar
    65   32   35 1
    66   33   34 ar
    67   33   62 1
    68   34   63 1
@<TRIPOS>MOLECULE
ZINC01687322
   29    30     0     0     0
SMALL
USER_CHARGES

@<TRIPOS>ATOM
      1 C1         -0.0167    1.3781    0.0096 C.ar      1 <0>        -0.1134
      2 C2          1.1709    2.0855    0.0021 C.ar      1 <0>        -0.1233
      3 C3          2.3773    1.4107   -0.0130 C.ar      1 <0>        -0.0987
      4 C4          2.3960    0.0285   -0.0201 C.ar      1 <0>        -0.0925
      5 C5          1.2084   -0.6789   -0.0117 C.ar      1 <0>        -0.0987
      6 C6          0.0021   -0.0041    0.0020 C.ar      1 <0>        -0.1233
      7 C7          3.7112   -0.7071   -0.0376 C.3       1 <0>         0.1018
      8 O1          4.1410   -0.9464    1.3041 O.3       1 <0>        -0.3747
      9 C8          5.3853   -1.6423    1.4004 C.3       1 <0>         0.1018
     10 C9          5.7397   -1.8393    2.8519 C.ar      1 <0>        -0.0927
     11 C10         6.4818   -0.8821    3.5182 C.ar      1 <0>        -0.0986
     12 C11         6.8069   -1.0628    4.8496 C.ar      1 <0>        -0.1234
     13 C12         6.3894   -2.2004    5.5148 C.ar      1 <0>        -0.1133
     14 C13         5.6465   -3.1571    4.8487 C.ar      1 <0>        -0.1234
     15 C14         5.3178   -2.9744    3.5185 C.ar      1 <0>        -0.0986
     16 H1         -0.9591    1.9053    0.0259 H         1 <0>         0.1235
     17 H2          1.1563    3.1654    0.0076 H         1 <0>         0.1243
     18 H3          3.3051    1.9634   -0.0196 H         1 <0>         0.1226
     19 H4          1.2231   -1.7588   -0.0179 H         1 <0>         0.1226
     20 H5         -0.9258   -0.5567    0.0082 H         1 <0>         0.1243
     21 H6          3.5884   -1.6586   -0.5549 H         1 <0>         0.0591
     22 H7          4.4573   -0.1052   -0.5563 H         1 <0>         0.0592
     23 H8          5.2973   -2.6133    0.9129 H         1 <0>         0.0591
     24 H9          6.1662   -1.0598    0.9116 H         1 <0>         0.0591
     25 H10         6.8080    0.0066    2.9985 H         1 <0>         0.1226
     26 H11         7.3873   -0.3153    5.3699 H         1 <0>         0.1243
     27 H12         6.6440   -2.3419    6.5547 H         1 <0>         0.1235
     28 H13         5.3207   -4.0461    5.3683 H         1 <0>         0.1243
     29 H14         4.7342   -3.7201    2.9991 H         1 <0>         0.1226
@<TRIPOS>BOND
     1    1    6 ar
     2    1    2 ar
     3    1   16 1
     4    2    3 ar
     5    2   17 1
     6    3    4 ar
     7    3   18 1
     8    4    5 ar
     9    4    7 1
    10    5    6 ar
    11    5   19 1
    12    6   20 1
    13    7    8 1
    14    7   21 1
    15    7   22 1
    16    8    9 1
    17    9   10 1
    18    9   23 1
    19    9   24 1
    20   10   15 ar
    21   10   11 ar
    22   11   12 ar
    23   11   25 1
    24   12   13 ar
    25   12   26 1
    26   13   14 ar
    27   13   27 1
    28   14   15 ar
    29   14   28 1
    30   15   29 1
@<TRIPOS>MOLECULE
ZINC21981239
   65    68     0     0     0
SMALL
USER_CHARGES
4-[4-(4-chlorophenyl)-4-hydroxy-1-piperidyl]-N-methyl-2,2-diphenyl-butanamide
@<TRIPOS>ATOM
      1 C1         -0.0855   -1.6023   -3.7609 C.3       1 <0>         0.0833
      2 N1         -0.4220   -0.7797   -2.5964 N.am      1 <0>        -0.7395
      3 C2          0.3089   -0.8777   -1.4682 C.2       1 <0>         0.5134
      4 O1          1.2452   -1.6469   -1.4172 O.2       1 <0>        -0.5125
      5 C3         -0.0372   -0.0315   -0.2703 C.3       1 <0>         0.0266
      6 C4         -1.4630   -0.3499    0.1843 C.3       1 <0>        -0.1369
      7 C5         -1.5965   -1.8544    0.4285 C.3       1 <0>        -0.0220
      8 N2         -2.9985   -2.1804    0.7214 N.4       1 <0>        -0.3936
      9 C6         -3.4255   -1.5760    1.9898 C.3       1 <0>        -0.0052
     10 C7         -4.9241   -1.8129    2.1903 C.3       1 <0>        -0.1281
     11 C8         -5.2007   -3.3189    2.2024 C.3       1 <0>         0.1877
     12 C9         -4.7028   -3.9318    0.8905 C.3       1 <0>        -0.1746
     13 C10        -3.2107   -3.6335    0.7277 C.3       1 <0>         0.0007
     14 C11        -6.6820   -3.5591    2.3403 C.ar      1 <0>        -0.1328
     15 C12        -7.4757   -3.6465    1.2119 C.ar      1 <0>        -0.1020
     16 C13        -8.8335   -3.8725    1.3375 C.ar      1 <0>        -0.1086
     17 C14        -9.4000   -3.9998    2.5933 C.ar      1 <0>        -0.0236
     18 C15        -8.6060   -3.9066    3.7225 C.ar      1 <0>        -0.1072
     19 C16        -7.2474   -3.6862    3.5954 C.ar      1 <0>        -0.0829
     20 Cl1       -11.1063   -4.2771    2.7522 Cl        1 <0>        -0.0522
     21 O2         -4.5148   -3.9216    3.3017 O.3       1 <0>        -0.5800
     22 C17         0.0583    1.4262   -0.6404 C.ar      1 <0>        -0.0900
     23 C18        -1.0131    2.2692   -0.4112 C.ar      1 <0>        -0.1196
     24 C19        -0.9237    3.6073   -0.7463 C.ar      1 <0>        -0.1128
     25 C20         0.2333    4.1004   -1.3199 C.ar      1 <0>        -0.1057
     26 C21         1.3026    3.2563   -1.5543 C.ar      1 <0>        -0.1086
     27 C22         1.2152    1.9192   -1.2144 C.ar      1 <0>        -0.0990
     28 C23         0.9255   -0.3293    0.8502 C.ar      1 <0>        -0.0872
     29 C24         1.5324    0.7075    1.5340 C.ar      1 <0>        -0.0984
     30 C25         2.4118    0.4343    2.5650 C.ar      1 <0>        -0.1172
     31 C26         2.6920   -0.8758    2.9055 C.ar      1 <0>        -0.1048
     32 C27         2.0895   -1.9127    2.2180 C.ar      1 <0>        -0.1213
     33 C28         1.2061   -1.6394    1.1905 C.ar      1 <0>        -0.0966
     34 H1         -0.7882   -1.3849   -4.5788 H         1 <0>         0.0814
     35 H2         -0.1552   -2.6663   -3.4907 H         1 <0>         0.0607
     36 H3          0.9396   -1.3734   -4.0876 H         1 <0>         0.0644
     37 H4         -1.2712   -0.0820   -2.6427 H         1 <0>         0.4214
     38 H5         -1.6809    0.1935    1.1156 H         1 <0>         0.1092
     39 H6         -2.1743   -0.0405   -0.5957 H         1 <0>         0.0991
     40 H7         -1.2726   -2.4017   -0.4690 H         1 <0>         0.1294
     41 H8         -0.9665   -2.1446    1.2822 H         1 <0>         0.1429
     42 H9         -2.8680   -2.0339    2.8202 H         1 <0>         0.1374
     43 H10        -3.2256   -0.4946    1.9663 H         1 <0>         0.1323
     44 H11        -5.2401   -1.3726    3.1475 H         1 <0>         0.1208
     45 H12        -5.4830   -1.3423    1.3680 H         1 <0>         0.1024
     46 H13        -4.8608   -5.0202    0.9111 H         1 <0>         0.1182
     47 H14        -5.2597   -3.4963    0.0477 H         1 <0>         0.0994
     48 H15        -2.8533   -4.0603   -0.2210 H         1 <0>         0.1306
     49 H16        -2.6543   -4.0817    1.5641 H         1 <0>         0.1341
     50 H17        -7.0341   -3.5427    0.2318 H         1 <0>         0.1312
     51 H18        -9.4528   -3.9451    0.4557 H         1 <0>         0.1387
     52 H19        -9.0476   -4.0062    4.7030 H         1 <0>         0.1398
     53 H20        -6.6275   -3.6138    4.4767 H         1 <0>         0.1406
     54 H21        -4.5955   -5.0052    3.4730 H         1 <0>         0.4267
     55 H22        -1.9186    1.8831    0.0331 H         1 <0>         0.1234
     56 H23        -1.7593    4.2668   -0.5635 H         1 <0>         0.1284
     57 H24         0.3018    5.1451   -1.5851 H         1 <0>         0.1289
     58 H25         2.2065    3.6415   -2.0028 H         1 <0>         0.1289
     59 H26         2.0506    1.2597   -1.3976 H         1 <0>         0.1219
     60 H27         1.3165    1.7310    1.2653 H         1 <0>         0.1271
     61 H28         2.8828    1.2444    3.1019 H         1 <0>         0.1270
     62 H29         3.3820   -1.0892    3.7086 H         1 <0>         0.1266
     63 H30         2.3088   -2.9362    2.4838 H         1 <0>         0.1251
     64 H31         0.7354   -2.4495    0.6533 H         1 <0>         0.1194
     65 H32        -3.6206   -1.7541   -0.0794 H         1 <0>         0.4340
@<TRIPOS>BOND
     1    1    2 1
     2    1   34 1
     3    1   35 1
     4    1   36 1
     5    2    3 am
     6    2   37 1
     7    3    4 2
     8    3    5 1
     9    5    6 1
    10    5   22 1
    11    5   28 1
    12    6    7 1
    13    6   38 1
    14    6   39 1
    15    7    8 1
    16    7   40 1
    17    7   41 1
    18    8   13 1
    19    8    9 1
    20    8   65 1
    21    9   10 1
    22    9   42 1
    23    9   43 1
    24   10   11 1
    25   10   44 1
    26   10   45 1
    27   11   12 1
    28   11   14 1
    29   11   21 1
    30   12   13 1
    31   12   46 1
    32   12   47 1
    33   13   48 1
    34   13   49 1
    35   14   19 ar
    36   14   15 ar
    37   15   16 ar
    38   15   50 1
    39   16   17 ar
    40   16   51 1
    41   17   18 ar
    42   17   20 1
    43   18   19 ar
    44   18   52 1
    45   19   53 1
    46   21   54 1
    47   22   27 ar
    48   22   23 ar
    49   23   24 ar
    50   23   55 1
    51   24   25 ar
    52   24   56 1
    53   25   26 ar
    54   25   57 1
    55   26   27 ar
    56   26   58 1
    57   27   59 1
    58   28   33 ar
    59   28   29 ar
    60   29   30 ar
    61   29   60 1
    62   30   31 ar
    63   30   61 1
    64   31   32 ar
    65   31   62 1
    66   32   33 ar
    67   32   63 1
    68   33   64 1
@<TRIPOS>MOLECULE
ZINC13580323
   56    60     0     0     0
SMALL
USER_CHARGES
cyclopropylmethyl-dimethoxy-BLAHone
@<TRIPOS>ATOM
      1 C1          3.6706    6.1544   -2.9214 C.3       1 <0>         0.0101
      2 O1          2.5897    5.4445   -2.3133 O.3       1 <0>        -0.2962
      3 C2          2.2092    4.2792   -2.9000 C.ar      1 <0>         0.1487
      4 C3          2.8651    3.8325   -4.0359 C.ar      1 <0>        -0.1930
      5 C4          2.4751    2.6467   -4.6272 C.ar      1 <0>        -0.0612
      6 C5          1.4325    1.9191   -4.0912 C.ar      1 <0>        -0.1492
      7 C6          0.7659    2.3652   -2.9559 C.ar      1 <0>        -0.0643
      8 C7          1.1631    3.5398   -2.3573 C.ar      1 <0>        -0.1255
      9 C8          0.4925    4.0573   -1.1111 C.3       1 <0>         0.0178
     10 C9          1.2797    3.5371    0.1018 C.3       1 <0>        -0.1301
     11 C10         1.3438    2.0089    0.0000 C.3       1 <0>        -0.0049
     12 C11        -0.8479    1.9813   -1.0690 C.3       1 <0>         0.0018
     13 H1         -1.8552    1.5877   -0.9332 H         1 <0>         0.1354
     14 C12        -0.3722    1.5283   -2.4382 C.3       1 <0>        -0.0880
     15 C13        -0.9342    3.5106   -1.0319 C.3       1 <0>         0.1189
     16 C14        -1.7422    3.9848   -2.2430 C.3       1 <0>        -0.1390
     17 C15        -1.8447    5.5125   -2.2300 C.3       1 <0>        -0.1573
     18 C16        -0.4442    6.0835   -2.1794 C.2       1 <0>         0.3617
     19 O2         -0.0812    6.9133   -2.9781 O.2       1 <0>        -0.4336
     20 C17         0.4870    5.5828   -1.0979 C.3       1 <0>        -0.1728
     21 O3         -1.5545    3.9364    0.1830 O.3       1 <0>        -0.3595
     22 C18        -2.8960    3.4713    0.3447 C.3       1 <0>         0.0066
     23 C19         0.0021   -0.0041    0.0020 C.3       1 <0>         0.0250
     24 C20         0.6072   -0.5131    1.3118 C.3       1 <0>        -0.2118
     25 C21         1.9187   -1.2964    1.2268 C.3       1 <0>        -0.1667
     26 C22         0.6112   -2.0248    1.5477 C.3       1 <0>        -0.1490
     27 H2          3.4032    6.4157   -3.9453 H         1 <0>         0.0630
     28 H3          3.8723    7.0637   -2.3553 H         1 <0>         0.1076
     29 H4          4.5607    5.5253   -2.9276 H         1 <0>         0.0610
     30 H5          3.6762    4.4082   -4.4566 H         1 <0>         0.1395
     31 H6          2.9861    2.2890   -5.5089 H         1 <0>         0.1357
     32 H7          1.1313    0.9931   -4.5584 H         1 <0>         0.1311
     33 H8          0.7717    3.8246    1.0223 H         1 <0>         0.1041
     34 H9          2.2883    3.9502    0.0917 H         1 <0>         0.1185
     35 H10         1.9009    1.6108    0.8481 H         1 <0>         0.1315
     36 H11         1.8417    1.7260   -0.9274 H         1 <0>         0.1338
     37 H12        -0.0458    0.4903   -2.3728 H         1 <0>         0.1030
     38 H13        -1.2042    1.5912   -3.1395 H         1 <0>         0.1262
     39 H14        -1.2462    3.6625   -3.1585 H         1 <0>         0.0963
     40 H15        -2.7429    3.5547   -2.2021 H         1 <0>         0.0909
     41 H16        -2.3132    5.8222   -3.0574 H         1 <0>         0.0885
     42 H17        -2.4049    5.8355   -1.3526 H         1 <0>         0.1062
     43 H18         0.1730    5.9073   -0.2056 H         1 <0>         0.0997
     44 H19         1.4952    5.9524   -1.2852 H         1 <0>         0.1503
     45 H20        -3.2958    3.8371    1.2905 H         1 <0>         0.1084
     46 H21        -3.5101    3.8407   -0.4766 H         1 <0>         0.0638
     47 H22        -2.9053    2.3813    0.3437 H         1 <0>         0.0418
     48 H23        -1.0158   -0.3807   -0.0985 H         1 <0>         0.1302
     49 H24         0.6037   -0.3547   -0.8366 H         1 <0>         0.1329
     50 H25         0.4610    0.1311    2.1789 H         1 <0>         0.1249
     51 H26         2.3505   -1.4491    0.2376 H         1 <0>         0.1056
     52 H27         2.6353   -1.1678    2.0380 H         1 <0>         0.1102
     53 H28         0.4681   -2.3751    2.5699 H         1 <0>         0.1122
     54 H29         0.1824   -2.6567    0.7698 H         1 <0>         0.1072
     55 N1         -0.0347    1.4638    0.0516 N.4       1 <0>        -0.3785
     56 H30        -0.4694    1.7548    0.9351 H         1 <0>         0.4305
@<TRIPOS>BOND
     1    1    2 1
     2    1   27 1
     3    1   28 1
     4    1   29 1
     5    2    3 1
     6    3    8 ar
     7    3    4 ar
     8    4    5 ar
     9    4   30 1
    10    5    6 ar
    11    5   31 1
    12    6    7 ar
    13    6   32 1
    14    7   14 1
    15    7    8 ar
    16    8    9 1
    17    9   15 1
    18    9   20 1
    19    9   10 1
    20   10   11 1
    21   10   33 1
    22   10   34 1
    23   11   35 1
    24   11   36 1
    25   11   55 1
    26   12   13 1
    27   12   14 1
    28   12   15 1
    29   12   55 1
    30   14   37 1
    31   14   38 1
    32   15   16 1
    33   15   21 1
    34   16   17 1
    35   16   39 1
    36   16   40 1
    37   17   18 1
    38   17   41 1
    39   17   42 1
    40   18   19 2
    41   18   20 1
    42   20   43 1
    43   20   44 1
    44   21   22 1
    45   22   45 1
    46   22   46 1
    47   22   47 1
    48   23   24 1
    49   23   48 1
    50   23   49 1
    51   23   55 1
    52   24   26 1
    53   24   25 1
    54   24   50 1
    55   25   26 1
    56   25   51 1
    57   25   52 1
    58   26   53 1
    59   26   54 1
    60   55   56 1
@<TRIPOS>MOLECULE
ZINC03830683
   42    44     0     0     0
SMALL
USER_CHARGES
amino-methyl-BLAHol
@<TRIPOS>ATOM
      1 C1         -1.4804    0.3203   -1.7239 C.3       1 <0>        -0.1827
      2 C2         -0.6608    1.5452   -1.2811 C.3       1 <0>        -0.0198
      3 C3         -0.0129    1.0991    0.0081 C.3       1 <0>        -0.1202
      4 C4         -0.6319    1.5352    1.3326 C.3       1 <0>        -0.1271
      5 C5          0.0343    2.8602    1.8044 C.3       1 <0>        -0.1314
      6 C6         -0.3466    3.9506    0.8784 C.3       1 <0>        -0.1297
      7 C7          0.2688    3.9095   -0.4909 C.3       1 <0>        -0.1432
      8 C8         -0.8446    4.0173   -1.5274 C.3       1 <0>        -0.0858
      9 H1         -1.4784    4.8860   -1.3865 H         1 <0>         0.1140
     10 C9         -1.6193    2.6741   -1.4315 C.3       1 <0>         0.0344
     11 H2         -2.1003    2.5273   -2.4371 H         1 <0>         0.1395
     12 C10        -0.2149    4.0184   -2.9268 C.3       1 <0>        -0.0763
     13 C11         0.5940    2.7610   -3.1189 C.ar      1 <0>        -0.0950
     14 C12         0.4115    1.6291   -2.3536 C.ar      1 <0>        -0.0595
     15 C13         1.2310    0.5284   -2.5412 C.ar      1 <0>        -0.1397
     16 C14         2.2153    0.5452   -3.5179 C.ar      1 <0>         0.1177
     17 C15         2.3824    1.6749   -4.3043 C.ar      1 <0>        -0.1335
     18 C16         1.5750    2.7740   -4.1032 C.ar      1 <0>        -0.0937
     19 O1          3.0095   -0.5416   -3.7036 O.3       1 <0>        -0.4957
     20 H3         -2.2149    0.0777   -0.9559 H         1 <0>         0.0585
     21 H4         -1.9933    0.5450   -2.6591 H         1 <0>         0.0686
     22 H5         -0.8136   -0.5294   -1.8703 H         1 <0>         0.0860
     23 H6          0.0021   -0.0041    0.0020 H         1 <0>         0.0828
     24 H7          1.0391    1.4027   -0.0003 H         1 <0>         0.0870
     25 H8         -1.7066    1.6336    1.2775 H         1 <0>         0.0466
     26 H9         -0.4183    0.7569    2.0884 H         1 <0>         0.0879
     27 H10         1.1213    2.7470    1.8058 H         1 <0>         0.0839
     28 H11        -0.3002    3.1045    2.8149 H         1 <0>         0.0804
     29 H12        -0.0036    4.8876    1.3522 H         1 <0>         0.0743
     30 H13        -1.4198    4.0286    0.8246 H         1 <0>         0.0394
     31 H14         0.8797    3.0227   -0.6328 H         1 <0>         0.1019
     32 H15         0.9441    4.7810   -0.6017 H         1 <0>         0.0793
     33 H16        -3.3215    3.4714   -0.6306 H         1 <0>         0.4379
     34 H17        -3.2247    1.8160   -0.5036 H         1 <0>         0.4340
     35 H18         0.4327    4.8831   -3.0126 H         1 <0>         0.0994
     36 H19        -1.0087    4.0562   -3.6631 H         1 <0>         0.0901
     37 H20         1.1234   -0.3496   -1.9214 H         1 <0>         0.1333
     38 H21         3.1431    1.6940   -5.0707 H         1 <0>         0.1364
     39 H22         1.7102    3.6565   -4.7110 H         1 <0>         0.1332
     40 H23         3.8171   -0.5341   -3.1718 H         1 <0>         0.3981
     41 N1         -2.6974    2.6861   -0.4530 N.4       1 <0>        -0.6429
     42 H24        -2.2980    2.7817    0.4880 H         1 <0>         0.4314
@<TRIPOS>BOND
     1    1    2 1
     2    1   20 1
     3    1   21 1
     4    1   22 1
     5    2   10 1
     6    2   14 1
     7    2    3 1
     8    3    4 1
     9    3   23 1
    10    3   24 1
    11    4    5 1
    12    4   25 1
    13    4   26 1
    14    5    6 1
    15    5   27 1
    16    5   28 1
    17    6    7 1
    18    6   29 1
    19    6   30 1
    20    7    8 1
    21    7   31 1
    22    7   32 1
    23    8    9 1
    24    8   10 1
    25    8   12 1
    26   10   11 1
    27   10   41 1
    28   12   13 1
    29   12   35 1
    30   12   36 1
    31   13   18 ar
    32   13   14 ar
    33   14   15 ar
    34   15   16 ar
    35   15   37 1
    36   16   17 ar
    37   16   19 1
    38   17   18 ar
    39   17   38 1
    40   18   39 1
    41   19   40 1
    42   33   41 1
    43   34   41 1
    44   41   42 1
@<TRIPOS>MOLECULE
ZINC00967961
   48    51     0     0     0
SMALL
USER_CHARGES
N-[[6-(2-fluorophenyl)-2-methyl-2,5-diazabicyclo[5.4.0]undeca-5,8,10,12-tetraen-3-yl]methyl]thiophene-3-carboxamide
@<TRIPOS>ATOM
      1 C1          0.4780   -2.0200    0.9728 C.3       1 <0>         0.0140
      2 N1          0.8295   -0.5987    0.8524 N.pl3     1 <0>        -0.4887
      3 C2          0.6300    0.0672    2.0555 C.ar      1 <0>         0.1220
      4 C3         -0.2090   -0.4516    3.0299 C.ar      1 <0>        -0.1594
      5 C4         -0.3719    0.2208    4.2255 C.ar      1 <0>        -0.0831
      6 C5          0.2974    1.4111    4.4595 C.ar      1 <0>        -0.1327
      7 C6          1.1294    1.9448    3.4969 C.ar      1 <0>        -0.0784
      8 C7          1.2951    1.2812    2.2838 C.ar      1 <0>        -0.1088
      9 C8          2.1419    1.8478    1.2141 C.2       1 <0>         0.2593
     10 N2          1.6539    1.9319    0.0031 N.2       1 <0>        -0.4770
     11 C9          0.2634    1.5423   -0.2360 C.3       1 <0>         0.0362
     12 C10         0.1072    0.0278   -0.2542 C.3       1 <0>         0.0768
     13 H1          0.4946   -0.3590   -1.1968 H         1 <0>         0.1045
     14 C11        -1.3778   -0.3231   -0.1427 C.3       1 <0>         0.0882
     15 N3         -2.0884    0.1803   -1.3208 N.am      1 <0>        -0.7235
     16 C12        -3.4302    0.0773   -1.3934 C.2       1 <0>         0.5761
     17 O1         -4.0513   -0.4335   -0.4808 O.2       1 <0>        -0.5337
     18 C13        -4.1441    0.5830   -2.5771 C.2       1 <0>        -0.1769
     19 C14        -5.5776    0.4844   -2.6905 C.2       1 <0>        -0.1113
     20 C15        -6.1397    0.9811   -3.8099 C.2       1 <0>        -0.1908
     21 S1         -4.7390    1.5774   -4.7345 S.3       1 <0>         0.1330
     22 C16        -3.4703    1.1672   -3.6296 C.2       1 <0>        -0.1745
     23 C17         3.5169    2.3122    1.5070 C.ar      1 <0>        -0.0907
     24 C18         4.0253    2.2236    2.8032 C.ar      1 <0>        -0.0665
     25 C19         5.3088    2.6525    3.0688 C.ar      1 <0>        -0.1370
     26 C20         6.0900    3.1811    2.0557 C.ar      1 <0>        -0.0729
     27 C21         5.5926    3.2780    0.7697 C.ar      1 <0>        -0.1650
     28 C22         4.3092    2.8464    0.4879 C.ar      1 <0>         0.1451
     29 F1          3.8230    2.9416   -0.7690 F         1 <0>        -0.1138
     30 H2          0.6447   -2.5177    0.0175 H         1 <0>         0.0804
     31 H3          1.1000   -2.4845    1.7379 H         1 <0>         0.0816
     32 H4         -0.5715   -2.1123    1.2524 H         1 <0>         0.0480
     33 H5         -0.7339   -1.3791    2.8546 H         1 <0>         0.1322
     34 H6         -1.0261   -0.1842    4.9834 H         1 <0>         0.1283
     35 H7          0.1673    1.9240    5.4010 H         1 <0>         0.1300
     36 H8          1.6493    2.8729    3.6831 H         1 <0>         0.1335
     37 H9         -0.0602    1.9458   -1.1955 H         1 <0>         0.0975
     38 H10        -0.3638    1.9561    0.5535 H         1 <0>         0.0622
     39 H11        -1.4920   -1.4055   -0.0844 H         1 <0>         0.0799
     40 H12        -1.7929    0.1349    0.7551 H         1 <0>         0.0754
     41 H13        -1.5931    0.5876   -2.0486 H         1 <0>         0.4004
     42 H14        -6.1753    0.0362   -1.9107 H         1 <0>         0.1496
     43 H15        -7.1844    1.0070   -4.0823 H         1 <0>         0.1926
     44 H16        -2.4082    1.3297   -3.7381 H         1 <0>         0.1899
     45 H17         3.4161    1.8160    3.5964 H         1 <0>         0.1389
     46 H18         5.7040    2.5802    4.0713 H         1 <0>         0.1344
     47 H19         7.0927    3.5197    2.2711 H         1 <0>         0.1356
     48 H20         6.2070    3.6917   -0.0163 H         1 <0>         0.1394
@<TRIPOS>BOND
     1    1    2 1
     2    1   30 1
     3    1   31 1
     4    1   32 1
     5    2   12 1
     6    2    3 1
     7    3    8 ar
     8    3    4 ar
     9    4    5 ar
    10    4   33 1
    11    5    6 ar
    12    5   34 1
    13    6    7 ar
    14    6   35 1
    15    7    8 ar
    16    7   36 1
    17    8    9 1
    18    9   10 2
    19    9   23 1
    20   10   11 1
    21   11   12 1
    22   11   37 1
    23   11   38 1
    24   12   13 1
    25   12   14 1
    26   14   15 1
    27   14   39 1
    28   14   40 1
    29   15   16 am
    30   15   41 1
    31   16   17 2
    32   16   18 1
    33   18   22 2
    34   18   19 1
    35   19   20 2
    36   19   42 1
    37   20   21 1
    38   20   43 1
    39   21   22 1
    40   22   44 1
    41   23   28 ar
    42   23   24 ar
    43   24   25 ar
    44   24   45 1
    45   25   26 ar
    46   25   46 1
    47   26   27 ar
    48   26   47 1
    49   27   28 ar
    50   27   48 1
    51   28   29 1
@<TRIPOS>MOLECULE
ZINC01532369
   48    51     0     0     0
SMALL
USER_CHARGES
N-[[6-(2-fluorophenyl)-2-methyl-2,5-diazabicyclo[5.4.0]undeca-5,8,10,12-tetraen-3-yl]methyl]thiophene-3-carboxamide
@<TRIPOS>ATOM
      1 C1          0.1112    6.1537   -2.9488 C.3       1 <0>         0.0191
      2 N1          0.7416    5.5385   -1.7731 N.pl3     1 <0>        -0.4961
      3 C2         -0.2053    5.2351   -0.8017 C.ar      1 <0>         0.1287
      4 C3         -1.4465    5.8523   -0.7941 C.ar      1 <0>        -0.1599
      5 C4         -2.3777    5.5111    0.1676 C.ar      1 <0>        -0.0836
      6 C5         -2.0804    4.5550    1.1252 C.ar      1 <0>        -0.1343
      7 C6         -0.8456    3.9398    1.1378 C.ar      1 <0>        -0.0774
      8 C7          0.1059    4.2816    0.1736 C.ar      1 <0>        -0.1100
      9 C8          1.4455    3.6605    0.1822 C.2       1 <0>         0.2579
     10 N2          2.4967    4.4336    0.0990 N.2       1 <0>        -0.4722
     11 C9          2.3148    5.8861    0.0961 C.3       1 <0>         0.0326
     12 C10         1.8204    6.3804   -1.2559 C.3       1 <0>         0.0786
     13 H1          1.4553    7.4020   -1.1499 H         1 <0>         0.0643
     14 C11         2.9839    6.3662   -2.2494 C.3       1 <0>         0.1304
     15 N3          3.9926    7.3440   -1.8341 N.am      1 <0>        -0.7251
     16 C12         5.0688    7.5740   -2.6122 C.2       1 <0>         0.5767
     17 O1          5.2024    6.9697   -3.6594 O.2       1 <0>        -0.5315
     18 C13         6.0823    8.5564   -2.1949 C.2       1 <0>        -0.1733
     19 C14         7.2452    8.8272   -3.0023 C.2       1 <0>        -0.1108
     20 C15         8.1157    9.7437   -2.5356 C.2       1 <0>        -0.1903
     21 S1          7.3774   10.2551   -0.9975 S.3       1 <0>         0.1285
     22 C16         5.9584    9.2629   -1.0166 C.2       1 <0>        -0.1762
     23 C17         1.5953    2.1905    0.2769 C.ar      1 <0>        -0.0910
     24 C18         0.4666    1.3753    0.3652 C.ar      1 <0>        -0.0667
     25 C19         0.6124    0.0067    0.4527 C.ar      1 <0>        -0.1374
     26 C20         1.8751   -0.5604    0.4528 C.ar      1 <0>        -0.0726
     27 C21         2.9990    0.2395    0.3662 C.ar      1 <0>        -0.1650
     28 C22         2.8676    1.6135    0.2783 C.ar      1 <0>         0.1457
     29 F1          3.9662    2.3953    0.1941 F         1 <0>        -0.1130
     30 H2          0.8279    6.1875   -3.7694 H         1 <0>         0.0821
     31 H3         -0.7552    5.5634   -3.2471 H         1 <0>         0.0812
     32 H4         -0.2068    7.1667   -2.7022 H         1 <0>         0.0414
     33 H5         -1.6849    6.5983   -1.5378 H         1 <0>         0.1307
     34 H6         -3.3441    5.9932    0.1732 H         1 <0>         0.1279
     35 H7         -2.8199    4.2895    1.8662 H         1 <0>         0.1298
     36 H8         -0.6180    3.1959    1.8869 H         1 <0>         0.1339
     37 H9          1.5880    6.1562    0.8622 H         1 <0>         0.0628
     38 H10         3.2669    6.3652    0.3246 H         1 <0>         0.0983
     39 H11         3.4296    5.3718   -2.2727 H         1 <0>         0.0852
     40 H12         2.6164    6.6230   -3.2430 H         1 <0>         0.0758
     41 H13         3.8861    7.8259   -0.9990 H         1 <0>         0.3963
     42 H14         7.4117    8.3177   -3.9399 H         1 <0>         0.1502
     43 H15         9.0368   10.0848   -2.9845 H         1 <0>         0.1924
     44 H16         5.1681    9.2089   -0.2824 H         1 <0>         0.1883
     45 H17        -0.5199    1.8150    0.3604 H         1 <0>         0.1386
     46 H18        -0.2613   -0.6245    0.5210 H         1 <0>         0.1342
     47 H19         1.9826   -1.6328    0.5213 H         1 <0>         0.1355
     48 H20         3.9814   -0.2091    0.3668 H         1 <0>         0.1393
@<TRIPOS>BOND
     1    1    2 1
     2    1   30 1
     3    1   31 1
     4    1   32 1
     5    2   12 1
     6    2    3 1
     7    3    8 ar
     8    3    4 ar
     9    4    5 ar
    10    4   33 1
    11    5    6 ar
    12    5   34 1
    13    6    7 ar
    14    6   35 1
    15    7    8 ar
    16    7   36 1
    17    8    9 1
    18    9   10 2
    19    9   23 1
    20   10   11 1
    21   11   12 1
    22   11   37 1
    23   11   38 1
    24   12   13 1
    25   12   14 1
    26   14   15 1
    27   14   39 1
    28   14   40 1
    29   15   16 am
    30   15   41 1
    31   16   17 2
    32   16   18 1
    33   18   22 2
    34   18   19 1
    35   19   20 2
    36   19   42 1
    37   20   21 1
    38   20   43 1
    39   21   22 1
    40   22   44 1
    41   23   28 ar
    42   23   24 ar
    43   24   25 ar
    44   24   45 1
    45   25   26 ar
    46   25   46 1
    47   26   27 ar
    48   26   47 1
    49   27   28 ar
    50   27   48 1
    51   28   29 1
@<TRIPOS>MOLECULE
ZINC00001681
   40    41     0     0     0
SMALL
USER_CHARGES
ethyl 1-methyl-4-phenyl-piperidine-4-carboxylate
@<TRIPOS>ATOM
      1 C1          3.5677    2.0652   -0.0209 C.3       1 <0>        -0.1571
      2 C2          2.3672    1.1168   -0.0145 C.3       1 <0>         0.0617
      3 O1          1.1389    1.8910    0.0013 O.3       1 <0>        -0.3457
      4 C3         -0.0143    1.2041    0.0087 C.2       1 <0>         0.4691
      5 O2          0.0021   -0.0041    0.0020 O.2       1 <0>        -0.4997
      6 C4         -1.3295    1.9397    0.0189 C.3       1 <0>        -0.0092
      7 C5         -1.4192    2.8101    1.2755 C.3       1 <0>        -0.1353
      8 C6         -1.3795    1.9111    2.5150 C.3       1 <0>        -0.0071
      9 C7         -2.4095    0.0867    1.2971 C.3       1 <0>        -0.0155
     10 C8         -2.4806    0.9300    0.0221 C.3       1 <0>        -0.1304
     11 C9         -2.5751    0.1785    3.7106 C.3       1 <0>        -0.0419
     12 C10        -1.4281    2.8121   -1.2060 C.ar      1 <0>        -0.1077
     13 C11        -2.4513    2.6149   -2.1144 C.ar      1 <0>        -0.1098
     14 C12        -2.5445    3.4182   -3.2355 C.ar      1 <0>        -0.1151
     15 C13        -1.6086    4.4119   -3.4536 C.ar      1 <0>        -0.1002
     16 C14        -0.5824    4.6057   -2.5478 C.ar      1 <0>        -0.1135
     17 C15        -0.4922    3.8058   -1.4241 C.ar      1 <0>        -0.0965
     18 H1          3.5259    2.6984   -0.9071 H         1 <0>         0.0712
     19 H2          3.5429    2.6889    0.8727 H         1 <0>         0.0689
     20 H3          4.4898    1.4841   -0.0328 H         1 <0>         0.0877
     21 H4          2.4091    0.4836    0.8717 H         1 <0>         0.0733
     22 H5          2.3921    0.4932   -0.9082 H         1 <0>         0.0766
     23 H6         -0.5779    3.5027    1.2993 H         1 <0>         0.1270
     24 H7         -2.3533    3.3716    1.2633 H         1 <0>         0.1104
     25 H8         -1.4581    2.5258    3.4117 H         1 <0>         0.1406
     26 H9         -0.4392    1.3601    2.5336 H         1 <0>         0.1245
     27 H10        -3.2361   -0.6236    1.3093 H         1 <0>         0.1363
     28 H11        -1.4643   -0.4555    1.3217 H         1 <0>         0.1477
     29 H12        -3.4314    1.4620   -0.0098 H         1 <0>         0.1089
     30 H13        -2.3971    0.2803   -0.8491 H         1 <0>         0.1247
     31 H14        -1.6814   -0.4384    3.8039 H         1 <0>         0.1222
     32 H15        -2.6420    0.8527    4.5645 H         1 <0>         0.1236
     33 H16        -3.4571   -0.4613    3.6829 H         1 <0>         0.1244
     34 H17        -3.1799    1.8356   -1.9463 H         1 <0>         0.1276
     35 H18        -3.3460    3.2666   -3.9433 H         1 <0>         0.1307
     36 H19        -1.6789    5.0366   -4.3317 H         1 <0>         0.1305
     37 H20         0.1490    5.3818   -2.7184 H         1 <0>         0.1310
     38 H21         0.3097    3.9569   -0.7166 H         1 <0>         0.1329
     39 N1         -2.5265    0.9792    2.4698 N.4       1 <0>        -0.3958
     40 H22        -3.3940    1.5225    2.3895 H         1 <0>         0.4289
@<TRIPOS>BOND
     1    1    2 1
     2    1   18 1
     3    1   19 1
     4    1   20 1
     5    2    3 1
     6    2   21 1
     7    2   22 1
     8    3    4 1
     9    4    5 2
    10    4    6 1
    11    6   10 1
    12    6    7 1
    13    6   12 1
    14    7    8 1
    15    7   23 1
    16    7   24 1
    17    8   25 1
    18    8   26 1
    19    8   39 1
    20    9   10 1
    21    9   27 1
    22    9   28 1
    23    9   39 1
    24   10   29 1
    25   10   30 1
    26   11   31 1
    27   11   32 1
    28   11   33 1
    29   11   39 1
    30   12   17 ar
    31   12   13 ar
    32   13   14 ar
    33   13   34 1
    34   14   15 ar
    35   14   35 1
    36   15   16 ar
    37   15   36 1
    38   16   17 ar
    39   16   37 1
    40   17   38 1
    41   39   40 1
@<TRIPOS>MOLECULE
ZINC68197070
   55    57     0     0     0
SMALL
USER_CHARGES

@<TRIPOS>ATOM
      1 C1          0.5838    1.3875   -0.8025 C.3       1 <0>        -0.1528
      2 C2          0.5150   -0.1356   -0.6750 C.3       1 <0>        -0.1189
      3 C3          1.1498   -0.5658    0.6490 C.3       1 <0>        -0.1711
      4 C4         -0.9471   -0.5848   -0.7093 C.3       1 <0>        -0.0084
      5 N1         -1.0087   -2.0525   -0.7075 N.4       1 <0>        -0.5101
      6 C5         -2.4126   -2.4838   -0.7405 C.3       1 <0>         0.0438
      7 C6         -2.4757   -3.9894   -0.7387 C.ar      1 <0>        -0.1532
      8 C7         -2.4699   -4.6808   -1.9367 C.ar      1 <0>        -0.0986
      9 C8         -2.5276   -6.0597   -1.9409 C.ar      1 <0>        -0.0397
     10 C9         -2.5917   -6.7555   -0.7354 C.ar      1 <0>        -0.0772
     11 C10        -2.5972   -6.0539    0.4685 C.ar      1 <0>        -0.0820
     12 C11        -2.5335   -4.6752    0.4612 C.ar      1 <0>        -0.1099
     13 C12        -2.6543   -8.2380   -0.7336 C.ar      1 <0>         0.0356
     14 C13        -1.6357   -8.9803   -0.1392 C.ar      1 <0>        -0.1223
     15 C14        -1.6993  -10.3588   -0.1400 C.ar      1 <0>        -0.0593
     16 C15        -2.7717  -11.0040   -0.7295 C.ar      1 <0>        -0.1270
     17 C16        -3.7852  -10.2723   -1.3212 C.ar      1 <0>        -0.0179
     18 C17        -3.7346   -8.8928   -1.3211 C.ar      1 <0>        -0.6655
     19 S1         -5.0304   -7.9620   -2.0690 S.o2      1 <0>         2.7015
     20 O1         -4.4063   -6.9812   -2.8862 O.2       1 <0>        -0.9490
     21 O2         -5.9611   -8.9036   -2.5851 O.2       1 <0>        -0.9461
     22 N2         -5.8076   -7.1435   -0.8573 N.pl3     1 <0>        -1.0068
     23 C18        -6.9516   -7.6447   -0.0815 C.3       1 <0>         0.1157
     24 C19        -7.3534   -6.5341    0.9118 C.3       1 <0>        -0.1287
     25 C20        -6.7748   -5.2536    0.2540 C.3       1 <0>        -0.1302
     26 C21        -5.4631   -5.7943   -0.3734 C.3       1 <0>         0.1076
     27 H1          1.6255    1.7075   -0.7780 H         1 <0>         0.0776
     28 H2          0.1316    1.6940   -1.7457 H         1 <0>         0.0682
     29 H3          0.0433    1.8462    0.0255 H         1 <0>         0.0681
     30 H4          1.0556   -0.5943   -1.5030 H         1 <0>         0.0938
     31 H5          1.1008   -1.6509    0.7398 H         1 <0>         0.0514
     32 H6          2.1915   -0.2458    0.6734 H         1 <0>         0.0830
     33 H7          0.6093   -0.1071    1.4770 H         1 <0>         0.0728
     34 H8         -1.4666   -0.1983    0.1675 H         1 <0>         0.1328
     35 H9         -1.4237   -0.2022   -1.6119 H         1 <0>         0.1339
     36 H10        -0.5278   -2.4103   -1.5192 H         1 <0>         0.4278
     37 H11        -2.9320   -2.0973    0.1364 H         1 <0>         0.1389
     38 H12        -2.8891   -2.1012   -1.6431 H         1 <0>         0.1401
     39 H13        -2.4206   -4.1405   -2.8706 H         1 <0>         0.1368
     40 H14        -2.5234   -6.5985   -2.8769 H         1 <0>         0.1615
     41 H15        -2.6471   -6.5882    1.4058 H         1 <0>         0.1378
     42 H16        -2.5329   -4.1307    1.3938 H         1 <0>         0.1356
     43 H17        -0.7978   -8.4777    0.3210 H         1 <0>         0.1341
     44 H18        -0.9102  -10.9351    0.3201 H         1 <0>         0.1387
     45 H19        -2.8175  -12.0830   -0.7279 H         1 <0>         0.1406
     46 H20        -4.6198  -10.7811   -1.7806 H         1 <0>         0.1488
     47 H21        -7.7847   -7.8641   -0.7493 H         1 <0>         0.0782
     48 H22        -6.6643   -8.5437    0.4639 H         1 <0>         0.0686
     49 H23        -8.4380   -6.4673    0.9974 H         1 <0>         0.0868
     50 H24        -6.8983   -6.7060    1.8872 H         1 <0>         0.0771
     51 H25        -7.4485   -4.8690   -0.5117 H         1 <0>         0.0789
     52 H26        -6.5620   -4.4913    1.0035 H         1 <0>         0.0821
     53 H27        -4.6754   -5.8504    0.3780 H         1 <0>         0.0728
     54 H28        -5.1515   -5.1614   -1.2043 H         1 <0>         0.0782
     55 H29        -0.5676   -2.4066    0.1280 H         1 <0>         0.4254
@<TRIPOS>BOND
     1    1    2 1
     2    1   27 1
     3    1   28 1
     4    1   29 1
     5    2    3 1
     6    2    4 1
     7    2   30 1
     8    3   31 1
     9    3   32 1
    10    3   33 1
    11    4    5 1
    12    4   34 1
    13    4   35 1
    14    5    6 1
    15    5   36 1
    16    5   55 1
    17    6    7 1
    18    6   37 1
    19    6   38 1
    20    7   12 ar
    21    7    8 ar
    22    8    9 ar
    23    8   39 1
    24    9   10 ar
    25    9   40 1
    26   10   11 ar
    27   10   13 1
    28   11   12 ar
    29   11   41 1
    30   12   42 1
    31   13   18 ar
    32   13   14 ar
    33   14   15 ar
    34   14   43 1
    35   15   16 ar
    36   15   44 1
    37   16   17 ar
    38   16   45 1
    39   17   18 ar
    40   17   46 1
    41   18   19 1
    42   19   20 2
    43   19   21 2
    44   19   22 1
    45   22   26 1
    46   22   23 1
    47   23   24 1
    48   23   47 1
    49   23   48 1
    50   24   25 1
    51   24   49 1
    52   24   50 1
    53   25   26 1
    54   25   51 1
    55   25   52 1
    56   26   53 1
    57   26   54 1
@<TRIPOS>MOLECULE
ZINC28385975
   60    63     0     0     0
SMALL
USER_CHARGES
4-[4-(4-chlorophenyl)-4-hydroxy-1-piperidyl]-2,2-diphenyl-butanoic acid
@<TRIPOS>ATOM
      1 C1          1.6850    0.9397    4.6442 C.ar      1 <0>        -0.1252
      2 C2          1.3589    2.2662    4.4321 C.ar      1 <0>        -0.1217
      3 C3          0.5820    2.6217    3.3455 C.ar      1 <0>        -0.1149
      4 C4          0.1307    1.6507    2.4712 C.ar      1 <0>        -0.0526
      5 C5          0.4519    0.3236    2.6865 C.ar      1 <0>        -0.0976
      6 C6          1.2333   -0.0314    3.7702 C.ar      1 <0>        -0.1263
      7 C7         -0.7167    2.0383    1.2868 C.3       1 <0>        -0.0239
      8 C8          0.0707    1.8006   -0.0033 C.3       1 <0>        -0.1150
      9 C9          0.3213    0.3015   -0.1790 C.3       1 <0>        -0.0220
     10 N1          0.9995    0.0653   -1.4604 N.4       1 <0>        -0.3911
     11 C10         0.1275    0.4138   -2.5894 C.3       1 <0>        -0.0058
     12 C11         0.9125    0.2945   -3.8977 C.3       1 <0>        -0.1263
     13 C12         1.4269   -1.1397   -4.0497 C.3       1 <0>         0.1846
     14 C13         2.2927   -1.4941   -2.8375 C.3       1 <0>        -0.1720
     15 C14         1.4678   -1.3229   -1.5600 C.3       1 <0>         0.0002
     16 C15         2.2508   -1.2500   -5.3067 C.ar      1 <0>        -0.1245
     17 C16         3.6102   -1.0021   -5.2657 C.ar      1 <0>        -0.1017
     18 C17         4.3674   -1.1087   -6.4171 C.ar      1 <0>        -0.1095
     19 C18         3.7626   -1.4524   -7.6130 C.ar      1 <0>        -0.0267
     20 C19         2.4011   -1.6949   -7.6545 C.ar      1 <0>        -0.1082
     21 C20         1.6460   -1.5935   -6.5013 C.ar      1 <0>        -0.0834
     22 Cl1         4.7119   -1.5801   -9.0609 Cl        1 <0>        -0.0595
     23 O1          0.3189   -2.0390   -4.1245 O.3       1 <0>        -0.5749
     24 C21        -1.0859    3.4958    1.3887 C.ar      1 <0>        -0.0356
     25 C22        -0.5919    4.4000    0.4671 C.ar      1 <0>        -0.1282
     26 C23        -0.9344    5.7362    0.5577 C.ar      1 <0>        -0.1204
     27 C24        -1.7628    6.1698    1.5758 C.ar      1 <0>        -0.1279
     28 C25        -2.2523    5.2666    2.5008 C.ar      1 <0>        -0.1152
     29 C26        -1.9140    3.9295    2.4071 C.ar      1 <0>        -0.1006
     30 C27        -1.9706    1.2024    1.2713 C.2       1 <0>         0.4702
     31 O2         -2.1570    0.3767    2.1334 O.co2     1 <0>        -0.6109
     32 O3         -2.8804    1.3752    0.2995 O.co2     1 <0>        -0.7435
     33 H1          2.2923    0.6620    5.4930 H         1 <0>         0.1176
     34 H2          1.7116    3.0248    5.1151 H         1 <0>         0.1184
     35 H3          0.3273    3.6581    3.1797 H         1 <0>         0.1234
     36 H4          0.0956   -0.4356    2.0060 H         1 <0>         0.1208
     37 H5          1.4877   -1.0678    3.9362 H         1 <0>         0.1178
     38 H6         -0.5064    2.1788   -0.8600 H         1 <0>         0.0980
     39 H7          1.0337    2.3293    0.0522 H         1 <0>         0.0803
     40 H8          0.9541   -0.0633    0.6435 H         1 <0>         0.1384
     41 H9         -0.6392   -0.2346   -0.1682 H         1 <0>         0.1383
     42 H10        -0.7320   -0.2722   -2.6142 H         1 <0>         0.1378
     43 H11        -0.2312    1.4468   -2.4704 H         1 <0>         0.1359
     44 H12         0.2545    0.5415   -4.7439 H         1 <0>         0.1172
     45 H13         1.7636    0.9912   -3.8795 H         1 <0>         0.0995
     46 H14         2.6306   -2.5376   -2.9208 H         1 <0>         0.1138
     47 H15         3.1669   -0.8272   -2.8037 H         1 <0>         0.0970
     48 H16         2.0916   -1.5630   -0.6864 H         1 <0>         0.1294
     49 H17         0.6020   -2.0007   -1.5896 H         1 <0>         0.1326
     50 H18         4.0814   -0.7295   -4.3330 H         1 <0>         0.1328
     51 H19         5.4301   -0.9193   -6.3841 H         1 <0>         0.1371
     52 H20         1.9286   -1.9636   -8.5877 H         1 <0>         0.1380
     53 H21         0.5832   -1.7831   -6.5335 H         1 <0>         0.1415
     54 H22         0.4939   -3.1193   -4.2359 H         1 <0>         0.4215
     55 H23         0.0587    4.0618   -0.3259 H         1 <0>         0.1157
     56 H24        -0.5517    6.4419   -0.1647 H         1 <0>         0.1184
     57 H25        -2.0274    7.2143    1.6488 H         1 <0>         0.1191
     58 H26        -2.8992    5.6054    3.2964 H         1 <0>         0.1210
     59 H27        -2.2964    3.2238    3.1297 H         1 <0>         0.1202
     60 H28         1.8819    0.7207   -1.5035 H         1 <0>         0.4288
@<TRIPOS>BOND
     1    1    6 ar
     2    1    2 ar
     3    1   33 1
     4    2    3 ar
     5    2   34 1
     6    3    4 ar
     7    3   35 1
     8    4    5 ar
     9    4    7 1
    10    5    6 ar
    11    5   36 1
    12    6   37 1
    13    7    8 1
    14    7   24 1
    15    7   30 1
    16    8    9 1
    17    8   38 1
    18    8   39 1
    19    9   10 1
    20    9   40 1
    21    9   41 1
    22   10   15 1
    23   10   11 1
    24   10   60 1
    25   11   12 1
    26   11   42 1
    27   11   43 1
    28   12   13 1
    29   12   44 1
    30   12   45 1
    31   13   14 1
    32   13   16 1
    33   13   23 1
    34   14   15 1
    35   14   46 1
    36   14   47 1
    37   15   48 1
    38   15   49 1
    39   16   21 ar
    40   16   17 ar
    41   17   18 ar
    42   17   50 1
    43   18   19 ar
    44   18   51 1
    45   19   20 ar
    46   19   22 1
    47   20   21 ar
    48   20   52 1
    49   21   53 1
    50   23   54 1
    51   24   29 ar
    52   24   25 ar
    53   25   26 ar
    54   25   55 1
    55   26   27 ar
    56   26   56 1
    57   27   28 ar
    58   27   57 1
    59   28   29 ar
    60   28   58 1
    61   29   59 1
    62   30   31 2
    63   30   32 1
@<TRIPOS>MOLECULE
ZINC13583880
   38    39     0     0     0
SMALL
USER_CHARGES
(3R)-3-dimethylamino-4,4-dimethyl-tetralin-6-ol
@<TRIPOS>ATOM
      1 C1          1.3168    3.6502   -0.6951 C.3       1 <0>        -0.1740
      2 C2          1.4389    2.1682   -0.3349 C.3       1 <0>        -0.0303
      3 C3          2.4167    1.5083   -1.2718 C.ar      1 <0>        -0.0631
      4 C4          3.5829    2.1968   -1.5773 C.ar      1 <0>        -0.1389
      5 C5          4.5269    1.6396   -2.4225 C.ar      1 <0>         0.1171
      6 C6          4.3040    0.3830   -2.9674 C.ar      1 <0>        -0.1314
      7 C7          3.1442   -0.2972   -2.6640 C.ar      1 <0>        -0.0954
      8 C8          2.1957    0.2633   -1.8172 C.ar      1 <0>        -0.0914
      9 C9          0.9497   -0.5352   -1.5354 C.3       1 <0>        -0.0764
     10 C10         0.2427   -0.0060   -0.2893 C.3       1 <0>        -0.1455
     11 C11         0.0651    1.5094   -0.4410 C.3       1 <0>         0.0371
     12 H1         -0.3747    1.7320   -1.4131 H         1 <0>         0.1438
     13 C12        -1.4129    3.2992    0.2479 C.3       1 <0>        -0.0600
     14 C13        -1.8427    1.0285    0.9703 C.3       1 <0>        -0.0481
     15 O1          5.6659    2.3198   -2.7176 O.3       1 <0>        -0.4960
     16 C14         1.9506    2.0395    1.1012 C.3       1 <0>        -0.1626
     17 H2          0.9111    4.1986    0.1550 H         1 <0>         0.0693
     18 H3          2.3012    4.0454   -0.9461 H         1 <0>         0.0888
     19 H4          0.6513    3.7624   -1.5510 H         1 <0>         0.0738
     20 H5          3.7548    3.1747   -1.1524 H         1 <0>         0.1345
     21 H6          5.0359   -0.0599   -3.6265 H         1 <0>         0.1370
     22 H7          2.9709   -1.2749   -3.0888 H         1 <0>         0.1336
     23 H8          1.2198   -1.5796   -1.3790 H         1 <0>         0.0977
     24 H9          0.2759   -0.4622   -2.3891 H         1 <0>         0.0887
     25 H10         0.8462   -0.2183    0.5932 H         1 <0>         0.0937
     26 H11        -0.7329   -0.4818   -0.1900 H         1 <0>         0.0989
     27 H12        -1.8796    3.2070   -0.7328 H         1 <0>         0.1238
     28 H13        -2.1669    3.5771    0.9844 H         1 <0>         0.1234
     29 H14        -0.6400    4.0669    0.2118 H         1 <0>         0.1297
     30 H15        -1.3747    0.1554    1.4250 H         1 <0>         0.1236
     31 H16        -2.5470    1.4713    1.6745 H         1 <0>         0.1234
     32 H17        -2.3730    0.7273    0.0669 H         1 <0>         0.1247
     33 H18         5.5938    2.8885   -3.4963 H         1 <0>         0.3981
     34 H19         2.1219    0.9883    1.3331 H         1 <0>         0.0811
     35 H20         2.8849    2.5913    1.2049 H         1 <0>         0.0935
     36 H21         1.2096    2.4472    1.7889 H         1 <0>         0.0529
     37 N1         -0.7933    2.0187    0.6492 N.4       1 <0>        -0.3992
     38 H22        -0.2155    2.1747    1.4835 H         1 <0>         0.4244
@<TRIPOS>BOND
     1    1    2 1
     2    1   17 1
     3    1   18 1
     4    1   19 1
     5    2   11 1
     6    2    3 1
     7    2   16 1
     8    3    8 ar
     9    3    4 ar
    10    4    5 ar
    11    4   20 1
    12    5    6 ar
    13    5   15 1
    14    6    7 ar
    15    6   21 1
    16    7    8 ar
    17    7   22 1
    18    8    9 1
    19    9   10 1
    20    9   23 1
    21    9   24 1
    22   10   11 1
    23   10   25 1
    24   10   26 1
    25   11   12 1
    26   11   37 1
    27   13   27 1
    28   13   28 1
    29   13   29 1
    30   13   37 1
    31   14   30 1
    32   14   31 1
    33   14   32 1
    34   14   37 1
    35   15   33 1
    36   16   34 1
    37   16   35 1
    38   16   36 1
    39   37   38 1
@<TRIPOS>MOLECULE
ZINC13583882
   38    39     0     0     0
SMALL
USER_CHARGES
(3S)-3-dimethylamino-4,4-dimethyl-tetralin-6-ol
@<TRIPOS>ATOM
      1 C1          4.2620    1.3766    3.1471 C.3       1 <0>        -0.1733
      2 C2          3.7800    2.7138    2.5810 C.3       1 <0>        -0.0305
      3 C3          3.0363    2.4693    1.2940 C.ar      1 <0>        -0.0632
      4 C4          1.7351    1.9931    1.3809 C.ar      1 <0>        -0.1376
      5 C5          1.0031    1.7354    0.2346 C.ar      1 <0>         0.1167
      6 C6          1.5721    1.9665   -1.0097 C.ar      1 <0>        -0.1314
      7 C7          2.8612    2.4471   -1.0927 C.ar      1 <0>        -0.0956
      8 C8          3.5976    2.7009    0.0580 C.ar      1 <0>        -0.0915
      9 C9          4.9977    3.2313   -0.1096 C.3       1 <0>        -0.0773
     10 C10         5.7995    3.0475    1.1772 C.3       1 <0>        -0.1359
     11 C11         4.9840    3.6225    2.3413 C.3       1 <0>         0.0352
     12 H1          4.6419    4.6263    2.0894 H         1 <0>         0.1423
     13 C12         6.7664    2.5522    3.5823 C.3       1 <0>        -0.0750
     14 C13         6.5145    4.9591    3.6580 C.3       1 <0>        -0.0438
     15 O1         -0.2682    1.2640    0.3275 O.3       1 <0>        -0.4960
     16 C14         2.8390    3.3782    3.5880 C.3       1 <0>        -0.1614
     17 H2          4.6572    1.5286    4.1515 H         1 <0>         0.0648
     18 H3          3.4271    0.6770    3.1873 H         1 <0>         0.0883
     19 H4          5.0449    0.9716    2.5060 H         1 <0>         0.0785
     20 H5          1.2920    1.8185    2.3502 H         1 <0>         0.1332
     21 H6          1.0072    1.7709   -1.9091 H         1 <0>         0.1369
     22 H7          3.3033    2.6279   -2.0614 H         1 <0>         0.1335
     23 H8          5.4908    2.6946   -0.9201 H         1 <0>         0.0977
     24 H9          4.9530    4.2920   -0.3567 H         1 <0>         0.0890
     25 H10         5.9835    1.9866    1.3467 H         1 <0>         0.0962
     26 H11         6.7488    3.5771    1.0971 H         1 <0>         0.0927
     27 H12         7.3609    2.5551    2.6688 H         1 <0>         0.1289
     28 H13         7.4246    2.6584    4.4446 H         1 <0>         0.1228
     29 H14         6.2191    1.6125    3.6567 H         1 <0>         0.1358
     30 H15         5.7854    5.7584    3.7909 H         1 <0>         0.1212
     31 H16         7.1890    4.9366    4.5139 H         1 <0>         0.1241
     32 H17         7.0877    5.1378    2.7483 H         1 <0>         0.1235
     33 H18        -0.3299    0.2991    0.3406 H         1 <0>         0.3982
     34 H19         2.4255    4.2882    3.1533 H         1 <0>         0.0787
     35 H20         2.0284    2.6926    3.8349 H         1 <0>         0.0877
     36 H21         3.3928    3.6271    4.4933 H         1 <0>         0.0550
     37 N1          5.7982    3.6690    3.5740 N.4       1 <0>        -0.3943
     38 H22         5.1777    3.5785    4.3871 H         1 <0>         0.4261
@<TRIPOS>BOND
     1    1    2 1
     2    1   17 1
     3    1   18 1
     4    1   19 1
     5    2   11 1
     6    2    3 1
     7    2   16 1
     8    3    8 ar
     9    3    4 ar
    10    4    5 ar
    11    4   20 1
    12    5    6 ar
    13    5   15 1
    14    6    7 ar
    15    6   21 1
    16    7    8 ar
    17    7   22 1
    18    8    9 1
    19    9   10 1
    20    9   23 1
    21    9   24 1
    22   10   11 1
    23   10   25 1
    24   10   26 1
    25   11   12 1
    26   11   37 1
    27   13   27 1
    28   13   28 1
    29   13   29 1
    30   13   37 1
    31   14   30 1
    32   14   31 1
    33   14   32 1
    34   14   37 1
    35   15   33 1
    36   16   34 1
    37   16   35 1
    38   16   36 1
    39   37   38 1
@<TRIPOS>MOLECULE
ZINC14951777
   50    54     0     0     0
SMALL
USER_CHARGES
cyclopropylmethylBLAHol
@<TRIPOS>ATOM
      1 C1         -1.2359    3.1356    0.0288 C.ar      1 <0>        -0.1361
      2 C2         -0.0465    3.8326    0.0288 C.ar      1 <0>        -0.0935
      3 C3          1.1697    3.1595    0.0228 C.ar      1 <0>        -0.1116
      4 C4          1.1798    1.7811    0.0004 C.ar      1 <0>        -0.0608
      5 C5         -0.0126    1.0758    0.0080 C.ar      1 <0>        -0.1381
      6 C6         -1.2238    1.7485    0.0174 C.ar      1 <0>         0.1245
      7 O1         -2.3920    1.0541    0.0197 O.3       1 <0>        -0.4964
      8 C7          2.4695    1.0051   -0.0534 C.3       1 <0>        -0.0153
      9 C8          2.3410   -0.3185    0.6917 C.3       1 <0>        -0.1104
     10 C9          3.6618   -1.0869    0.5915 C.3       1 <0>        -0.1271
     11 C10         4.7910   -0.2518    1.1974 C.3       1 <0>        -0.1207
     12 C11         4.9117    1.0770    0.4466 C.3       1 <0>        -0.1284
     13 C12         3.5931    1.8415    0.5643 C.3       1 <0>        -0.0898
     14 H1          3.3681    2.0400    1.6122 H         1 <0>         0.1208
     15 C13         3.6733    3.1604   -0.2017 C.3       1 <0>         0.0378
     16 H2          4.5307    3.7162    0.1778 H         1 <0>         0.1329
     17 C14         2.4262    3.9864    0.0654 C.3       1 <0>        -0.0873
     18 C15         2.8539    2.0735   -2.2257 C.3       1 <0>        -0.0108
     19 C16         2.8089    0.7278   -1.4925 C.3       1 <0>        -0.1367
     20 C17         4.0171    4.1906   -2.3552 C.3       1 <0>         0.0263
     21 C18         4.4840    3.9088   -3.7847 C.3       1 <0>        -0.2162
     22 C19         5.8505    4.4558   -4.2024 C.3       1 <0>        -0.1670
     23 C20         4.5707    5.0955   -4.7465 C.3       1 <0>        -0.1489
     24 H3         -2.1752    3.6685    0.0339 H         1 <0>         0.1367
     25 H4         -0.0598    4.9125    0.0332 H         1 <0>         0.1317
     26 H5          0.0021   -0.0041    0.0020 H         1 <0>         0.1372
     27 H6         -2.7257    0.8487    0.9037 H         1 <0>         0.4005
     28 H7          2.1111   -0.1253    1.7395 H         1 <0>         0.0765
     29 H8          1.5412   -0.9104    0.2465 H         1 <0>         0.0781
     30 H9          3.5758   -2.0284    1.1340 H         1 <0>         0.0764
     31 H10         3.8843   -1.2908   -0.4558 H         1 <0>         0.0670
     32 H11         4.5741   -0.0564    2.2476 H         1 <0>         0.0727
     33 H12         5.7301   -0.7993    1.1170 H         1 <0>         0.0754
     34 H13         5.7165    1.6695    0.8818 H         1 <0>         0.0816
     35 H14         5.1291    0.8833   -0.6038 H         1 <0>         0.0610
     36 H15         2.3565    4.7733   -0.6857 H         1 <0>         0.0950
     37 H16         2.5131    4.4458    1.0501 H         1 <0>         0.1207
     38 H17         1.8847    2.5652   -2.1426 H         1 <0>         0.1345
     39 H18         3.0879    1.9068   -3.2772 H         1 <0>         0.1265
     40 H19         2.0388    0.0939   -1.9321 H         1 <0>         0.1132
     41 H20         3.7786    0.2355   -1.5654 H         1 <0>         0.1012
     42 H21         3.0519    4.6963   -2.3813 H         1 <0>         0.1338
     43 H22         4.7468    4.8261   -1.8533 H         1 <0>         0.1287
     44 H23         4.1791    2.9473   -4.1980 H         1 <0>         0.1251
     45 H24         6.4169    5.0165   -3.4588 H         1 <0>         0.1061
     46 H25         6.4444    3.8544   -4.8907 H         1 <0>         0.1099
     47 H26         4.3232    4.9148   -5.7925 H         1 <0>         0.1117
     48 H27         4.2947    6.0770   -4.3610 H         1 <0>         0.1074
     49 N1          3.9269    2.9113   -1.6371 N.4       1 <0>        -0.3830
     50 H28         4.8203    2.4142   -1.7318 H         1 <0>         0.4270
@<TRIPOS>BOND
     1    1    6 ar
     2    1    2 ar
     3    1   24 1
     4    2    3 ar
     5    2   25 1
     6    3   17 1
     7    3    4 ar
     8    4    5 ar
     9    4    8 1
    10    5    6 ar
    11    5   26 1
    12    6    7 1
    13    7   27 1
    14    8   13 1
    15    8   19 1
    16    8    9 1
    17    9   10 1
    18    9   28 1
    19    9   29 1
    20   10   11 1
    21   10   30 1
    22   10   31 1
    23   11   12 1
    24   11   32 1
    25   11   33 1
    26   12   13 1
    27   12   34 1
    28   12   35 1
    29   13   14 1
    30   13   15 1
    31   15   16 1
    32   15   17 1
    33   15   49 1
    34   17   36 1
    35   17   37 1
    36   18   19 1
    37   18   38 1
    38   18   39 1
    39   18   49 1
    40   19   40 1
    41   19   41 1
    42   20   21 1
    43   20   42 1
    44   20   43 1
    45   20   49 1
    46   21   23 1
    47   21   22 1
    48   21   44 1
    49   22   23 1
    50   22   45 1
    51   22   46 1
    52   23   47 1
    53   23   48 1
    54   49   50 1
@<TRIPOS>MOLECULE
ZINC13679981
   69    73     0     0     0
SMALL
USER_CHARGES
(2R)-1-benzyl-N-(3-spiro[1H-isobenzofuran-3,4'-piperidine]-1'-ylpropyl)pyrrolidine-2-carboxamide
@<TRIPOS>ATOM
      1 C1         -8.1007   -7.1835   -1.0255 C.ar      1 <0>        -0.0803
      2 C2         -8.1141   -5.8018   -1.0666 C.ar      1 <0>        -0.1112
      3 C3         -6.9256   -5.1014   -1.1550 C.ar      1 <0>        -0.0905
      4 C4         -5.7237   -5.7827   -1.2022 C.ar      1 <0>        -0.1631
      5 C5         -5.7106   -7.1645   -1.1664 C.ar      1 <0>        -0.1004
      6 C6         -6.8988   -7.8648   -1.0728 C.ar      1 <0>        -0.1115
      7 C7         -4.4281   -5.0191   -1.2989 C.3       1 <0>         0.0524
      8 C8         -3.9334   -5.9424    0.8890 C.3       1 <0>        -0.0222
      9 C9         -2.4923   -6.1507    1.4000 C.3       1 <0>        -0.1374
     10 C10        -1.8710   -4.7322    1.2879 C.3       1 <0>        -0.1332
     11 C11        -2.5509   -4.1950    0.0039 C.3       1 <0>         0.0023
     12 H1         -2.0324   -4.5619   -0.8819 H         1 <0>         0.1693
     13 C12        -2.5713   -2.6882    0.0122 C.2       1 <0>         0.5149
     14 O1         -3.6297   -2.0961    0.0255 O.2       1 <0>        -0.5142
     15 N1         -1.4134   -1.9985    0.0048 N.am      1 <0>        -0.7096
     16 C13        -1.4333   -0.5336    0.0129 C.3       1 <0>         0.1196
     17 C14         0.0021   -0.0041    0.0020 C.3       1 <0>        -0.1666
     18 C15        -0.0187    1.5258    0.0104 C.3       1 <0>        -0.0008
     19 C16         2.0606    1.6798    1.2406 C.3       1 <0>        -0.0020
     20 C17         3.5319    2.0889    1.1307 C.3       1 <0>        -0.1349
     21 C18         3.6196    3.5918    0.8706 C.3       1 <0>         0.1462
     22 C19         2.8330    3.9519   -0.3888 C.3       1 <0>        -0.1563
     23 C20         1.3837    3.4843   -0.2305 C.3       1 <0>         0.0041
     24 C21         5.0596    4.0145    0.7253 C.ar      1 <0>        -0.1438
     25 C22         6.1368    3.4666    0.0594 C.ar      1 <0>        -0.0861
     26 C23         7.3688    4.0929    0.1059 C.ar      1 <0>        -0.1099
     27 C24         7.5220    5.2671    0.8196 C.ar      1 <0>        -0.0952
     28 C25         6.4429    5.8168    1.4873 C.ar      1 <0>        -0.0885
     29 C26         5.2137    5.1924    1.4407 C.ar      1 <0>        -0.1240
     30 C27         3.8706    5.5290    2.0461 C.3       1 <0>         0.0881
     31 O2          3.0979    4.3148    1.9965 O.3       1 <0>        -0.3505
     32 H2         -9.0293   -7.7307   -0.9569 H         1 <0>         0.1383
     33 H3         -9.0532   -5.2696   -1.0301 H         1 <0>         0.1378
     34 H4         -6.9361   -4.0220   -1.1874 H         1 <0>         0.1313
     35 H5         -4.7719   -7.6969   -1.2077 H         1 <0>         0.1323
     36 H6         -6.8884   -8.9442   -1.0410 H         1 <0>         0.1384
     37 H7         -4.5965   -4.0839   -1.8329 H         1 <0>         0.1345
     38 H8         -3.6930   -5.6175   -1.8372 H         1 <0>         0.1352
     39 H9         -4.6102   -5.8082    1.7328 H         1 <0>         0.1330
     40 H10        -4.2468   -6.8012    0.2954 H         1 <0>         0.1450
     41 H11        -2.4959   -6.4898    2.4359 H         1 <0>         0.1198
     42 H12        -1.9571   -6.8579    0.7663 H         1 <0>         0.1053
     43 H13        -0.7895   -4.7864    1.1637 H         1 <0>         0.1243
     44 H14        -2.1331   -4.1227    2.1527 H         1 <0>         0.1038
     45 H15        -0.5669   -2.4720   -0.0058 H         1 <0>         0.4129
     46 H16        -1.9435   -0.1821    0.9097 H         1 <0>         0.0902
     47 H17        -1.9605   -0.1726   -0.8702 H         1 <0>         0.0899
     48 H18         0.5123   -0.3556   -0.8948 H         1 <0>         0.0982
     49 H19         0.5293   -0.3651    0.8851 H         1 <0>         0.0985
     50 H20        -0.5459    1.8868   -0.8726 H         1 <0>         0.1356
     51 H21        -0.5289    1.8773    0.9072 H         1 <0>         0.1381
     52 H22         1.6002    2.2014    2.0798 H         1 <0>         0.1398
     53 H23         1.9937    0.6037    1.4010 H         1 <0>         0.1288
     54 H24         3.9991    1.5492    0.3070 H         1 <0>         0.1009
     55 H25         4.0471    1.8499    2.0610 H         1 <0>         0.1224
     56 H26         3.2820    3.4598   -1.2515 H         1 <0>         0.1005
     57 H27         2.8530    5.0319   -0.5346 H         1 <0>         0.1185
     58 H28         0.8256    3.7173   -1.1373 H         1 <0>         0.1329
     59 H29         0.9278    3.9947    0.6179 H         1 <0>         0.1391
     60 H30         6.0178    2.5492   -0.4981 H         1 <0>         0.1237
     61 H31         8.2121    3.6642   -0.4151 H         1 <0>         0.1359
     62 H32         8.4848    5.7551    0.8559 H         1 <0>         0.1378
     63 H33         6.5624    6.7342    2.0445 H         1 <0>         0.1334
     64 H34         3.9951    5.8530    3.0794 H         1 <0>         0.1092
     65 H35         3.3818    6.3105    1.4644 H         1 <0>         0.0862
     66 N2         -3.9293   -4.7202    0.0688 N.4       1 <0>        -0.3831
     67 H36        -4.5403   -4.0182    0.5024 H         1 <0>         0.4355
     68 N3          1.3730    2.0202   -0.0236 N.4       1 <0>        -0.3940
     69 H37         1.8676    1.5705   -0.8030 H         1 <0>         0.4251
@<TRIPOS>BOND
     1    1    6 ar
     2    1    2 ar
     3    1   32 1
     4    2    3 ar
     5    2   33 1
     6    3    4 ar
     7    3   34 1
     8    4    5 ar
     9    4    7 1
    10    5    6 ar
    11    5   35 1
    12    6   36 1
    13    7   37 1
    14    7   38 1
    15    7   66 1
    16    8    9 1
    17    8   39 1
    18    8   40 1
    19    8   66 1
    20    9   10 1
    21    9   41 1
    22    9   42 1
    23   10   11 1
    24   10   43 1
    25   10   44 1
    26   11   12 1
    27   11   13 1
    28   11   66 1
    29   13   14 2
    30   13   15 am
    31   15   16 1
    32   15   45 1
    33   16   17 1
    34   16   46 1
    35   16   47 1
    36   17   18 1
    37   17   48 1
    38   17   49 1
    39   18   50 1
    40   18   51 1
    41   18   68 1
    42   19   20 1
    43   19   52 1
    44   19   53 1
    45   19   68 1
    46   20   21 1
    47   20   54 1
    48   20   55 1
    49   21   31 1
    50   21   22 1
    51   21   24 1
    52   22   23 1
    53   22   56 1
    54   22   57 1
    55   23   58 1
    56   23   59 1
    57   23   68 1
    58   24   29 ar
    59   24   25 ar
    60   25   26 ar
    61   25   60 1
    62   26   27 ar
    63   26   61 1
    64   27   28 ar
    65   27   62 1
    66   28   29 ar
    67   28   63 1
    68   29   30 1
    69   30   31 1
    70   30   64 1
    71   30   65 1
    72   66   67 1
    73   68   69 1
@<TRIPOS>MOLECULE
ZINC01699052
   48    51     0     0     0
SMALL
USER_CHARGES
8-benzyl-1-phenyl-1,3,8-triazaspiro[4.5]decan-4-one
@<TRIPOS>ATOM
      1 C1         -6.8443   -2.3610    3.7036 C.ar      1 <0>        -0.0843
      2 C2         -7.5373   -1.2678    3.2182 C.ar      1 <0>        -0.1133
      3 C3         -7.2127   -0.7360    1.9842 C.ar      1 <0>        -0.0961
      4 C4         -6.1953   -1.2975    1.2355 C.ar      1 <0>        -0.1618
      5 C5         -5.5061   -2.3941    1.7185 C.ar      1 <0>        -0.0945
      6 C6         -5.8272   -2.9228    2.9547 C.ar      1 <0>        -0.1135
      7 C7         -5.8417   -0.7179   -0.1099 C.3       1 <0>         0.0493
      8 C8         -4.2734    0.7386   -1.2411 C.3       1 <0>        -0.0007
      9 C9         -3.1013    1.6988   -1.0194 C.3       1 <0>        -0.1657
     10 C10        -3.5811    2.9033   -0.2140 C.3       1 <0>         0.0519
     11 C11        -4.2019    2.4469    1.1035 C.3       1 <0>        -0.1185
     12 C12        -5.3386    1.4626    0.8134 C.3       1 <0>        -0.0174
     13 C13        -4.5749    3.7095   -1.0134 C.2       1 <0>         0.5296
     14 O1         -5.7405    3.4254   -1.1908 O.2       1 <0>        -0.5108
     15 N1         -3.9453    4.8011   -1.4969 N.am      1 <0>        -0.7202
     16 C14        -2.5377    4.7828   -1.0787 C.3       1 <0>         0.2383
     17 N2         -2.4537    3.8224    0.0465 N.pl3     1 <0>        -0.4408
     18 C15        -1.2361    3.1382    0.0307 C.ar      1 <0>         0.0805
     19 C16        -0.2407    3.5091   -0.8644 C.ar      1 <0>        -0.1598
     20 C17         0.9597    2.8265   -0.8814 C.ar      1 <0>        -0.0848
     21 C18         1.1756    1.7821   -0.0011 C.ar      1 <0>        -0.1238
     22 C19         0.1889    1.4139    0.8951 C.ar      1 <0>        -0.0948
     23 C20        -1.0160    2.0886    0.9137 C.ar      1 <0>        -0.1412
     24 H1         -7.0977   -2.7763    4.6678 H         1 <0>         0.1355
     25 H2         -8.3322   -0.8291    3.8031 H         1 <0>         0.1361
     26 H3         -7.7541    0.1181    1.6050 H         1 <0>         0.1321
     27 H4         -4.7142   -2.8356    1.1316 H         1 <0>         0.1309
     28 H5         -5.2860   -3.7770    3.3338 H         1 <0>         0.1357
     29 H6         -6.7310   -0.2776   -0.5609 H         1 <0>         0.1388
     30 H7         -5.4595   -1.5077   -0.7566 H         1 <0>         0.1356
     31 H8         -5.0527    1.2425   -1.8128 H         1 <0>         0.1381
     32 H9         -3.9273   -0.1364   -1.7912 H         1 <0>         0.1363
     33 H10        -2.7187    2.0346   -1.9832 H         1 <0>         0.1152
     34 H11        -2.3101    1.1867   -0.4717 H         1 <0>         0.1192
     35 H12        -3.4427    1.9567    1.7129 H         1 <0>         0.1022
     36 H13        -4.5964    3.3109    1.6383 H         1 <0>         0.1230
     37 H14        -6.1106    1.9614    0.2275 H         1 <0>         0.1530
     38 H15        -5.7651    1.1128    1.7536 H         1 <0>         0.1353
     39 H16        -4.3592    5.4920   -2.0374 H         1 <0>         0.4325
     40 H17        -2.2320    5.7754   -0.7479 H         1 <0>         0.1178
     41 H18        -1.9062    4.4508   -1.9028 H         1 <0>         0.0853
     42 H19        -0.4070    4.3275   -1.5492 H         1 <0>         0.1353
     43 H20         1.7324    3.1115   -1.5801 H         1 <0>         0.1327
     44 H21         2.1171    1.2531   -0.0132 H         1 <0>         0.1309
     45 H22         0.3609    0.5981    1.5816 H         1 <0>         0.1318
     46 H23        -1.7860    1.8008    1.6141 H         1 <0>         0.1259
     47 N3         -4.7915    0.3046    0.0744 N.4       1 <0>        -0.3888
     48 H24        -4.0212   -0.1029    0.6174 H         1 <0>         0.4224
@<TRIPOS>BOND
     1    1    6 ar
     2    1    2 ar
     3    1   24 1
     4    2    3 ar
     5    2   25 1
     6    3    4 ar
     7    3   26 1
     8    4    5 ar
     9    4    7 1
    10    5    6 ar
    11    5   27 1
    12    6   28 1
    13    7   29 1
    14    7   30 1
    15    7   47 1
    16    8    9 1
    17    8   31 1
    18    8   32 1
    19    8   47 1
    20    9   10 1
    21    9   33 1
    22    9   34 1
    23   10   17 1
    24   10   11 1
    25   10   13 1
    26   11   12 1
    27   11   35 1
    28   11   36 1
    29   12   37 1
    30   12   38 1
    31   12   47 1
    32   13   14 2
    33   13   15 am
    34   15   16 1
    35   15   39 1
    36   16   17 1
    37   16   40 1
    38   16   41 1
    39   17   18 1
    40   18   23 ar
    41   18   19 ar
    42   19   20 ar
    43   19   42 1
    44   20   21 ar
    45   20   43 1
    46   21   22 ar
    47   21   44 1
    48   22   23 ar
    49   22   45 1
    50   23   46 1
    51   47   48 1
@<TRIPOS>MOLECULE
ZINC24912441
   47    50     0     0     0
SMALL
USER_CHARGES
4-phenyl-8-(2-pyridylmethyl)-2,4,8-triazaspiro[4.5]decan-1-one
@<TRIPOS>ATOM
      1 C1          1.9740    9.0089   -6.0449 C.ar      1 <0>        -0.1254
      2 C2          1.9065    7.7327   -5.5166 C.ar      1 <0>        -0.0948
      3 C3          0.6839    7.1884   -5.1760 C.ar      1 <0>        -0.1436
      4 C4         -0.4791    7.9243   -5.3647 C.ar      1 <0>         0.0831
      5 C5         -0.4082    9.2040   -5.9005 C.ar      1 <0>        -0.1605
      6 C6          0.8182    9.7443   -6.2340 C.ar      1 <0>        -0.0845
      7 N1         -1.7174    7.3767   -5.0218 N.pl3     1 <0>        -0.4441
      8 C7         -2.7940    8.3888   -5.1304 C.3       1 <0>         0.2267
      9 N2         -3.7515    8.0843   -4.0595 N.am      1 <0>        -0.7306
     10 C8         -3.1660    7.2844   -3.1435 C.2       1 <0>         0.5352
     11 O1         -3.6864    6.8643   -2.1317 O.2       1 <0>        -0.5114
     12 C9         -1.7535    7.0026   -3.5927 C.3       1 <0>         0.0543
     13 C10        -0.7629    7.8531   -2.8022 C.3       1 <0>        -0.1656
     14 C11        -0.7831    7.4206   -1.3334 C.3       1 <0>        -0.0024
     15 N3         -0.4415    5.9955   -1.2382 N.4       1 <0>        -0.3899
     16 C12        -1.4266    5.1632   -1.9405 C.3       1 <0>        -0.0134
     17 C13        -1.4277    5.5205   -3.4296 C.3       1 <0>        -0.1188
     18 C14        -0.3049    5.5795    0.1640 C.3       1 <0>         0.0575
     19 C15        -0.1994    4.0778    0.2344 C.ar      1 <0>         0.0576
     20 C16         1.0471    3.4819    0.2782 C.ar      1 <0>        -0.1449
     21 C17         1.1331    2.0998    0.3424 C.ar      1 <0>        -0.0678
     22 C18        -0.0431    1.3654    0.3603 C.ar      1 <0>        -0.1372
     23 C19        -1.2531    2.0306    0.3080 C.ar      1 <0>         0.1093
     24 N4         -1.2971    3.3476    0.2532 N.ar      1 <0>        -0.4643
     25 H1          2.9314    9.4321   -6.3107 H         1 <0>         0.1304
     26 H2          2.8110    7.1609   -5.3705 H         1 <0>         0.1313
     27 H3          0.6319    6.1915   -4.7638 H         1 <0>         0.1253
     28 H4         -1.3108    9.7772   -6.0526 H         1 <0>         0.1353
     29 H5          0.8744   10.7407   -6.6468 H         1 <0>         0.1322
     30 H6         -2.3660    9.3943   -5.0046 H         1 <0>         0.0831
     31 H7         -3.2694    8.3138   -6.1195 H         1 <0>         0.1157
     32 H8         -4.7695    8.4992   -4.0976 H         1 <0>         0.4604
     33 H9          0.2482    7.7149   -3.2127 H         1 <0>         0.1205
     34 H10        -1.0476    8.9129   -2.8777 H         1 <0>         0.1157
     35 H11        -0.0490    8.0123   -0.7668 H         1 <0>         0.1401
     36 H12        -1.7875    7.5856   -0.9163 H         1 <0>         0.1362
     37 H13        -1.1638    4.1021   -1.8182 H         1 <0>         0.1324
     38 H14        -2.4265    5.3442   -1.5192 H         1 <0>         0.1558
     39 H15        -2.1860    4.9188   -3.9520 H         1 <0>         0.1218
     40 H16        -0.4361    5.3137   -3.8586 H         1 <0>         0.1006
     41 H17         0.6012    6.0313    0.5939 H         1 <0>         0.1464
     42 H18        -1.1857    5.9123    0.7327 H         1 <0>         0.1442
     43 H19         1.9426    4.0854    0.2629 H         1 <0>         0.1444
     44 H20         2.0933    1.6067    0.3780 H         1 <0>         0.1488
     45 H21        -0.0137    0.2869    0.4099 H         1 <0>         0.1501
     46 H22        -2.1736    1.4657    0.3166 H         1 <0>         0.1710
     47 H23         0.5307    5.8511   -1.7322 H         1 <0>         0.4335
@<TRIPOS>BOND
     1    1    6 ar
     2    1    2 ar
     3    1   25 1
     4    2    3 ar
     5    2   26 1
     6    3    4 ar
     7    3   27 1
     8    4    5 ar
     9    4    7 1
    10    5    6 ar
    11    5   28 1
    12    6   29 1
    13    7   12 1
    14    7    8 1
    15    8    9 1
    16    8   30 1
    17    8   31 1
    18    9   10 am
    19    9   32 1
    20   10   11 2
    21   10   12 1
    22   12   17 1
    23   12   13 1
    24   13   14 1
    25   13   33 1
    26   13   34 1
    27   14   15 1
    28   14   35 1
    29   14   36 1
    30   15   16 1
    31   15   18 1
    32   15   47 1
    33   16   17 1
    34   16   37 1
    35   16   38 1
    36   17   39 1
    37   17   40 1
    38   18   19 1
    39   18   41 1
    40   18   42 1
    41   19   24 ar
    42   19   20 ar
    43   20   21 ar
    44   20   43 1
    45   21   22 ar
    46   21   44 1
    47   22   23 ar
    48   22   45 1
    49   23   24 ar
    50   23   46 1
@<TRIPOS>MOLECULE
ZINC24912362
   47    50     0     0     0
SMALL
USER_CHARGES
4-phenyl-8-(3-pyridylmethyl)-2,4,8-triazaspiro[4.5]decan-1-one
@<TRIPOS>ATOM
      1 C1          1.1756    1.7821   -0.0011 C.ar      1 <0>        -0.1248
      2 C2          0.9597    2.8265   -0.8814 C.ar      1 <0>        -0.0846
      3 C3         -0.2407    3.5091   -0.8644 C.ar      1 <0>        -0.1606
      4 C4         -1.2361    3.1382    0.0307 C.ar      1 <0>         0.0823
      5 C5         -1.0160    2.0886    0.9137 C.ar      1 <0>        -0.1426
      6 C6          0.1889    1.4139    0.8951 C.ar      1 <0>        -0.0949
      7 N1         -2.4537    3.8224    0.0465 N.pl3     1 <0>        -0.4437
      8 C7         -2.5377    4.7828   -1.0787 C.3       1 <0>         0.2260
      9 N2         -3.9453    4.8011   -1.4969 N.am      1 <0>        -0.7293
     10 C8         -4.5749    3.7095   -1.0134 C.2       1 <0>         0.5364
     11 O1         -5.7405    3.4254   -1.1908 O.2       1 <0>        -0.5154
     12 C9         -3.5811    2.9033   -0.2140 C.3       1 <0>         0.0539
     13 C10        -4.2019    2.4469    1.1035 C.3       1 <0>        -0.1183
     14 C11        -5.3386    1.4626    0.8134 C.3       1 <0>        -0.0217
     15 N3         -4.8137    0.3179    0.0580 N.4       1 <0>        -0.3927
     16 C12        -4.2734    0.7386   -1.2411 C.3       1 <0>        -0.0034
     17 C13        -3.1013    1.6988   -1.0194 C.3       1 <0>        -0.1658
     18 C14        -5.8417   -0.7179   -0.1099 C.3       1 <0>         0.0523
     19 C15        -6.1953   -1.2975    1.2355 C.ar      1 <0>        -0.2152
     20 C16        -5.5097   -2.3975    1.7283 C.ar      1 <0>        -0.0473
     21 C17        -5.8660   -2.8940    2.9727 C.ar      1 <0>        -0.1657
     22 C18        -6.8923   -2.2864    3.6715 C.ar      1 <0>         0.1361
     23 N4         -7.5259   -1.2447    3.1695 N.ar      1 <0>        -0.4745
     24 C19        -7.2107   -0.7430    1.9912 C.ar      1 <0>         0.1293
     25 H1          2.1171    1.2531   -0.0132 H         1 <0>         0.1306
     26 H2          1.7324    3.1115   -1.5801 H         1 <0>         0.1324
     27 H3         -0.4070    4.3275   -1.5492 H         1 <0>         0.1355
     28 H4         -1.7860    1.8008    1.6141 H         1 <0>         0.1254
     29 H5          0.3609    0.5981    1.5816 H         1 <0>         0.1313
     30 H6         -2.2132    5.7769   -0.7373 H         1 <0>         0.1164
     31 H7         -1.8857    4.4457   -1.8980 H         1 <0>         0.0838
     32 H8         -4.3255    5.6299   -2.1122 H         1 <0>         0.4611
     33 H9         -3.4351    1.9530    1.7184 H         1 <0>         0.1023
     34 H10        -4.5990    3.3192    1.6434 H         1 <0>         0.1240
     35 H11        -5.7690    1.1096    1.7622 H         1 <0>         0.1340
     36 H12        -6.1177    1.9661    0.2221 H         1 <0>         0.1532
     37 H13        -3.9241   -0.1445   -1.7963 H         1 <0>         0.1392
     38 H14        -5.0599    1.2470   -1.8181 H         1 <0>         0.1362
     39 H15        -2.7145    2.0383   -1.9916 H         1 <0>         0.1156
     40 H16        -2.3022    1.1829   -0.4668 H         1 <0>         0.1200
     41 H17        -6.7391   -0.2734   -0.5650 H         1 <0>         0.1399
     42 H18        -5.4560   -1.5149   -0.7626 H         1 <0>         0.1410
     43 H19        -4.7143   -2.8542    1.1580 H         1 <0>         0.1448
     44 H20        -5.3511   -3.7471    3.3890 H         1 <0>         0.1504
     45 H21        -7.1788   -2.6696    4.6397 H         1 <0>         0.1703
     46 H22        -7.7523    0.1113    1.6126 H         1 <0>         0.1624
     47 H23        -3.9863   -0.1148    0.6395 H         1 <0>         0.4344
@<TRIPOS>BOND
     1    1    6 ar
     2    1    2 ar
     3    1   25 1
     4    2    3 ar
     5    2   26 1
     6    3    4 ar
     7    3   27 1
     8    4    5 ar
     9    4    7 1
    10    5    6 ar
    11    5   28 1
    12    6   29 1
    13    7   12 1
    14    7    8 1
    15    8    9 1
    16    8   30 1
    17    8   31 1
    18    9   10 am
    19    9   32 1
    20   10   11 2
    21   10   12 1
    22   12   17 1
    23   12   13 1
    24   13   14 1
    25   13   33 1
    26   13   34 1
    27   14   15 1
    28   14   35 1
    29   14   36 1
    30   15   16 1
    31   15   18 1
    32   15   47 1
    33   16   17 1
    34   16   37 1
    35   16   38 1
    36   17   39 1
    37   17   40 1
    38   18   19 1
    39   18   41 1
    40   18   42 1
    41   19   24 ar
    42   19   20 ar
    43   20   21 ar
    44   20   43 1
    45   21   22 ar
    46   21   44 1
    47   22   23 ar
    48   22   45 1
    49   23   24 ar
    50   24   46 1
@<TRIPOS>MOLECULE
ZINC14982453
   41    43     0     0     0
SMALL
USER_CHARGES
5-(4-chlorophenyl)-N-(3,5-dimethoxyphenyl)furan-2-carboxamide
@<TRIPOS>ATOM
      1 C1          2.6766   -2.4088    1.0951 C.3       1 <0>         0.0261
      2 O1          1.4013   -1.7670    1.1562 O.3       1 <0>        -0.3115
      3 C2          1.2979   -0.5435    0.5738 C.ar      1 <0>         0.1852
      4 C3          0.0890    0.1348    0.5966 C.ar      1 <0>        -0.2114
      5 C4         -0.0165    1.3849    0.0016 C.ar      1 <0>         0.2188
      6 C5          1.0890    1.9545   -0.6158 C.ar      1 <0>        -0.1889
      7 C6          2.2972    1.2750   -0.6373 C.ar      1 <0>         0.1853
      8 C7          2.4018    0.0264   -0.0427 C.ar      1 <0>        -0.3081
      9 O2          3.3796    1.8328   -1.2408 O.3       1 <0>        -0.3088
     10 C8          4.5923    1.0771   -1.2250 C.3       1 <0>         0.0257
     11 N1         -1.2367    2.0671    0.0192 N.am      1 <0>        -0.6612
     12 C9         -1.2562    3.4103    0.1283 C.2       1 <0>         0.6085
     13 O3         -0.2122    4.0363    0.1269 O.2       1 <0>        -0.4884
     14 C10        -2.5336    4.1167    0.2485 C.2       1 <0>        -0.0814
     15 C11        -2.6960    5.4796    0.3719 C.2       1 <0>        -0.1003
     16 C12        -4.0719    5.7162    0.4533 C.2       1 <0>        -0.1969
     17 C13        -4.6928    4.5018    0.3869 C.2       1 <0>         0.0677
     18 O4         -3.7567    3.5459    0.2637 O.3       1 <0>        -0.1559
     19 C14        -6.1512    4.2764    0.4422 C.ar      1 <0>        -0.0249
     20 C15        -7.0233    5.3587    0.5787 C.ar      1 <0>        -0.0777
     21 C16        -8.3844    5.1420    0.6249 C.ar      1 <0>        -0.1062
     22 C17        -8.8865    3.8536    0.5470 C.ar      1 <0>        -0.0241
     23 C18        -8.0266    2.7757    0.4168 C.ar      1 <0>        -0.1072
     24 C19        -6.6638    2.9796    0.3641 C.ar      1 <0>        -0.0837
     25 Cl1       -10.6009    3.5885    0.6132 Cl        1 <0>        -0.0594
     26 H1          2.9599   -2.5557    0.0529 H         1 <0>         0.0569
     27 H2          3.4213   -1.7852    1.5897 H         1 <0>         0.0568
     28 H3          2.6214   -3.3753    1.5962 H         1 <0>         0.1037
     29 H4         -0.7703   -0.3088    1.0774 H         1 <0>         0.1377
     30 H5          1.0076    2.9266   -1.0792 H         1 <0>         0.1505
     31 H6          3.3434   -0.5023   -0.0595 H         1 <0>         0.1371
     32 H7          5.3749    1.6353   -1.7390 H         1 <0>         0.1038
     33 H8          4.8936    0.8952   -0.1934 H         1 <0>         0.0565
     34 H9          4.4336    0.1246   -1.7306 H         1 <0>         0.0564
     35 H10        -2.0692    1.5737   -0.0472 H         1 <0>         0.4196
     36 H11        -1.9121    6.2220    0.3979 H         1 <0>         0.1686
     37 H12        -4.5527    6.6779    0.5543 H         1 <0>         0.1641
     38 H13        -6.6327    6.3635    0.6437 H         1 <0>         0.1419
     39 H14        -9.0601    5.9784    0.7263 H         1 <0>         0.1435
     40 H15        -8.4242    1.7733    0.3569 H         1 <0>         0.1416
     41 H16        -5.9942    2.1382    0.2630 H         1 <0>         0.1400
@<TRIPOS>BOND
     1    1    2 1
     2    1   26 1
     3    1   27 1
     4    1   28 1
     5    2    3 1
     6    3    8 ar
     7    3    4 ar
     8    4    5 ar
     9    4   29 1
    10    5    6 ar
    11    5   11 1
    12    6    7 ar
    13    6   30 1
    14    7    8 ar
    15    7    9 1
    16    8   31 1
    17    9   10 1
    18   10   32 1
    19   10   33 1
    20   10   34 1
    21   11   12 am
    22   11   35 1
    23   12   13 2
    24   12   14 1
    25   14   18 1
    26   14   15 2
    27   15   16 1
    28   15   36 1
    29   16   17 2
    30   16   37 1
    31   17   18 1
    32   17   19 1
    33   19   24 ar
    34   19   20 ar
    35   20   21 ar
    36   20   38 1
    37   21   22 ar
    38   21   39 1
    39   22   23 ar
    40   22   25 1
    41   23   24 ar
    42   23   40 1
    43   24   41 1
@<TRIPOS>MOLECULE
ZINC22454243
   70    72     0     0     0
SMALL
USER_CHARGES

@<TRIPOS>ATOM
      1 C1         -3.2721   -1.8122   -0.8663 C.3       1 <0>        -0.1682
      2 C2         -2.5254   -0.5341   -0.4793 C.3       1 <0>         0.1080
      3 N1         -1.4693   -0.8579    0.4831 N.am      1 <0>        -0.6052
      4 C3         -0.1542   -1.2949    0.0080 C.3       1 <0>         0.0965
      5 C4          0.6666   -0.0749   -0.4147 C.3       1 <0>        -0.1790
      6 C5         -1.7077   -0.7538    1.8055 C.2       1 <0>         0.5549
      7 O1         -2.8134   -0.4399    2.2009 O.2       1 <0>        -0.5290
      8 C6         -0.6242   -1.0212    2.7753 C.ar      1 <0>        -0.1173
      9 C7          0.6436   -0.4714    2.5790 C.ar      1 <0>        -0.0954
     10 C8          1.6501   -0.7244    3.4879 C.ar      1 <0>        -0.1235
     11 C9          1.4051   -1.5217    4.5918 C.ar      1 <0>        -0.0552
     12 C10         0.1508   -2.0701    4.7921 C.ar      1 <0>        -0.0966
     13 C11        -0.8662   -1.8198    3.8940 C.ar      1 <0>        -0.0690
     14 C12         2.5096   -1.7942    5.5803 C.3       1 <0>         0.1748
     15 H1          3.2860   -1.0364    5.4756 H         1 <0>         0.0728
     16 C13         3.0975   -3.1560    5.3137 C.ar      1 <0>        -0.0809
     17 C14         2.3630   -4.2930    5.5964 C.ar      1 <0>        -0.1113
     18 C15         2.8995   -5.5436    5.3530 C.ar      1 <0>        -0.1008
     19 C16         4.1717   -5.6604    4.8269 C.ar      1 <0>        -0.1350
     20 C17         4.9105   -4.5214    4.5425 C.ar      1 <0>         0.1144
     21 C18         4.3674   -3.2672    4.7820 C.ar      1 <0>        -0.1357
     22 O2          6.1621   -4.6336    4.0249 O.3       1 <0>        -0.4985
     23 N2          1.9666   -1.7539    6.9446 N.3       1 <0>        -0.5268
     24 C19         2.8494   -2.4599    7.8840 C.3       1 <0>         0.0237
     25 C20         2.2203   -2.4462    9.2789 C.3       1 <0>         0.0324
     26 H2          1.2577   -2.9566    9.2483 H         1 <0>         0.1446
     27 N3          2.0243   -1.0571    9.7142 N.4       1 <0>        -0.3829
     28 C21         1.1211   -0.3722    8.7801 C.3       1 <0>         0.0017
     29 C22         1.7411   -0.3686    7.3810 C.3       1 <0>         0.0645
     30 H3          2.6916    0.1642    7.4058 H         1 <0>         0.0667
     31 C23         0.7911    0.3263    6.4035 C.3       1 <0>        -0.1641
     32 C24         1.4371   -1.0445   11.0607 C.3       1 <0>         0.0243
     33 C25         1.3494    0.3757   11.5572 C.2       1 <0>        -0.2351
     34 C26         0.2002    0.8593   11.9590 C.2       1 <0>        -0.1052
     35 C27         3.1467   -3.1632   10.2631 C.3       1 <0>        -0.1835
     36 H4         -4.0578   -1.5713   -1.5823 H         1 <0>         0.0705
     37 H5         -2.5744   -2.5185   -1.3164 H         1 <0>         0.0561
     38 H6         -3.7160   -2.2575    0.0241 H         1 <0>         0.0586
     39 H7         -2.0815   -0.0889   -1.3697 H         1 <0>         0.0795
     40 H8         -3.2231    0.1721   -0.0291 H         1 <0>         0.0877
     41 H9          0.3645   -1.8223    0.8086 H         1 <0>         0.0858
     42 H10        -0.2793   -1.9619   -0.8450 H         1 <0>         0.0817
     43 H11         0.3704    0.2326   -1.4175 H         1 <0>         0.0655
     44 H12         0.4881    0.7428    0.2837 H         1 <0>         0.0641
     45 H13         1.7261   -0.3309   -0.4112 H         1 <0>         0.0719
     46 H14         0.8363    0.1505    1.7173 H         1 <0>         0.1430
     47 H15         2.6316   -0.2996    3.3372 H         1 <0>         0.1275
     48 H16        -0.0338   -2.6919    5.6556 H         1 <0>         0.1342
     49 H17        -1.8462   -2.2446    4.0540 H         1 <0>         0.1312
     50 H18         1.3686   -4.2039    6.0084 H         1 <0>         0.1317
     51 H19         2.3238   -6.4301    5.5747 H         1 <0>         0.1319
     52 H20         4.5907   -6.6376    4.6376 H         1 <0>         0.1332
     53 H21         4.9388   -2.3788    4.5569 H         1 <0>         0.1284
     54 H22         6.1878   -4.6518    3.0584 H         1 <0>         0.3977
     55 H23         2.9812   -3.4905    7.5545 H         1 <0>         0.1331
     56 H24         3.8182   -1.9615    7.9170 H         1 <0>         0.0619
     57 H25         0.1642   -0.8933    8.7521 H         1 <0>         0.1367
     58 H26         0.9662    0.6546    9.1114 H         1 <0>         0.1362
     59 H27        -0.1596   -0.2064    6.3800 H         1 <0>         0.0798
     60 H28         0.6241    1.3536    6.7274 H         1 <0>         0.0701
     61 H29         1.2320    0.3268    5.4066 H         1 <0>         0.0908
     62 H30         0.4383   -1.4794   11.0256 H         1 <0>         0.1301
     63 H31         2.0637   -1.6273   11.7358 H         1 <0>         0.1386
     64 H32         2.2341    0.9948   11.5817 H         1 <0>         0.1330
     65 H33        -0.6844    0.2403   11.9344 H         1 <0>         0.1115
     66 H34         0.1374    1.8771   12.3148 H         1 <0>         0.1229
     67 H35         4.1093   -2.6528   10.2936 H         1 <0>         0.0811
     68 H36         2.6986   -3.1535   11.2567 H         1 <0>         0.0863
     69 H37         3.2921   -4.1940    9.9402 H         1 <0>         0.1080
     70 H38         2.9140   -0.5815    9.7313 H         1 <0>         0.4184
@<TRIPOS>BOND
     1    1    2 1
     2    1   36 1
     3    1   37 1
     4    1   38 1
     5    2    3 1
     6    2   39 1
     7    2   40 1
     8    3    4 1
     9    3    6 am
    10    4    5 1
    11    4   41 1
    12    4   42 1
    13    5   43 1
    14    5   44 1
    15    5   45 1
    16    6    7 2
    17    6    8 1
    18    8   13 ar
    19    8    9 ar
    20    9   10 ar
    21    9   46 1
    22   10   11 ar
    23   10   47 1
    24   11   12 ar
    25   11   14 1
    26   12   13 ar
    27   12   48 1
    28   13   49 1
    29   14   15 1
    30   14   16 1
    31   14   23 1
    32   16   21 ar
    33   16   17 ar
    34   17   18 ar
    35   17   50 1
    36   18   19 ar
    37   18   51 1
    38   19   20 ar
    39   19   52 1
    40   20   21 ar
    41   20   22 1
    42   21   53 1
    43   22   54 1
    44   23   29 1
    45   23   24 1
    46   24   25 1
    47   24   55 1
    48   24   56 1
    49   25   26 1
    50   25   27 1
    51   25   35 1
    52   27   28 1
    53   27   32 1
    54   27   70 1
    55   28   29 1
    56   28   57 1
    57   28   58 1
    58   29   30 1
    59   29   31 1
    60   31   59 1
    61   31   60 1
    62   31   61 1
    63   32   33 1
    64   32   62 1
    65   32   63 1
    66   33   34 2
    67   33   64 1
    68   34   65 1
    69   34   66 1
    70   35   67 1
    71   35   68 1
    72   35   69 1
@<TRIPOS>MOLECULE
ZINC22454243
   70    72     0     0     0
SMALL
USER_CHARGES

@<TRIPOS>ATOM
      1 C1         -3.7957   -4.5388    0.0807 C.3       1 <0>        -0.1689
      2 C2         -3.1544   -3.1498    0.0949 C.3       1 <0>         0.1073
      3 N1         -2.1636   -3.0803    1.1718 N.am      1 <0>        -0.6022
      4 C3         -0.7946   -3.5470    0.9388 C.3       1 <0>         0.0929
      5 C4         -0.0239   -2.4906    0.1444 C.3       1 <0>        -0.1805
      6 C5         -2.5115   -2.5871    2.3768 C.2       1 <0>         0.5504
      7 O1         -3.6616   -2.2559    2.5890 O.2       1 <0>        -0.5208
      8 C6         -1.4942   -2.4490    3.4407 C.ar      1 <0>        -0.0966
      9 C7         -0.2346   -1.9269    3.1425 C.ar      1 <0>        -0.0883
     10 C8          0.7100   -1.8001    4.1400 C.ar      1 <0>        -0.0995
     11 C9          0.4110   -2.1897    5.4336 C.ar      1 <0>        -0.0989
     12 C10        -0.8355   -2.7085    5.7358 C.ar      1 <0>        -0.1224
     13 C11        -1.7912   -2.8347    4.7489 C.ar      1 <0>        -0.0537
     14 C12         1.4480   -2.0489    6.5180 C.3       1 <0>         0.1307
     15 H1          2.2618   -1.4169    6.1626 H         1 <0>         0.1520
     16 C13         1.9881   -3.4094    6.8763 C.ar      1 <0>        -0.1123
     17 C14         1.2668   -4.2403    7.7140 C.ar      1 <0>        -0.1350
     18 C15         1.7596   -5.4889    8.0446 C.ar      1 <0>        -0.0827
     19 C16         2.9746   -5.9095    7.5389 C.ar      1 <0>        -0.1210
     20 C17         3.7000   -5.0779    6.6985 C.ar      1 <0>         0.1293
     21 C18         3.2004   -3.8275    6.3633 C.ar      1 <0>        -0.1150
     22 O2          4.8954   -5.4892    6.1998 O.3       1 <0>        -0.4928
     23 N2          0.8354   -1.4371    7.7048 N.4       1 <0>        -0.3820
     24 C19         1.7841   -1.4854    8.8251 C.3       1 <0>        -0.0060
     25 C20         1.1395   -0.8652   10.0667 C.3       1 <0>         0.0612
     26 H2          0.2483   -1.4324   10.3356 H         1 <0>         0.0643
     27 N3          0.7663    0.5267    9.7779 N.3       1 <0>        -0.5312
     28 C21        -0.1641    0.5928    8.6421 C.3       1 <0>         0.0331
     29 C22         0.4912   -0.0394    7.4123 C.3       1 <0>         0.0366
     30 H3          1.3965    0.5123    7.1590 H         1 <0>         0.1457
     31 C23        -0.4828    0.0100    6.2334 C.3       1 <0>        -0.1982
     32 C24         0.1946    1.1756   10.9653 C.3       1 <0>         0.0780
     33 C25         0.0528    2.6542   10.7106 C.2       1 <0>        -0.1650
     34 C26        -1.1111    3.2361   10.8611 C.2       1 <0>        -0.1713
     35 C27         2.1346   -0.8970   11.2284 C.3       1 <0>        -0.1522
     36 H4         -4.5329   -4.5905   -0.7206 H         1 <0>         0.0727
     37 H5         -3.0260   -5.2927   -0.0847 H         1 <0>         0.0568
     38 H6         -4.2850   -4.7229    1.0371 H         1 <0>         0.0589
     39 H7         -2.6651   -2.9657   -0.8615 H         1 <0>         0.0822
     40 H8         -3.9242   -2.3959    0.2602 H         1 <0>         0.0898
     41 H9         -0.3001   -3.7146    1.8955 H         1 <0>         0.0848
     42 H10        -0.8196   -4.4793    0.3745 H         1 <0>         0.0844
     43 H11        -0.3677   -2.4914   -0.8899 H         1 <0>         0.0688
     44 H12        -0.1964   -1.5081    0.5839 H         1 <0>         0.0633
     45 H13         1.0413   -2.7197    0.1735 H         1 <0>         0.0748
     46 H14         0.0002   -1.6231    2.1331 H         1 <0>         0.1542
     47 H15         1.6850   -1.3963    3.9106 H         1 <0>         0.1422
     48 H16        -1.0624   -3.0110    6.7474 H         1 <0>         0.1241
     49 H17        -2.7655   -3.2352    4.9870 H         1 <0>         0.1431
     50 H18         0.3172   -3.9131    8.1109 H         1 <0>         0.1180
     51 H19         1.1944   -6.1360    8.6990 H         1 <0>         0.1410
     52 H20         3.3595   -6.8847    7.7981 H         1 <0>         0.1426
     53 H21         3.7610   -3.1801    5.7053 H         1 <0>         0.1404
     54 H22         4.8296   -5.9564    5.3556 H         1 <0>         0.4032
     55 H23         2.0487   -2.5223    9.0326 H         1 <0>         0.1399
     56 H24         2.6827   -0.9263    8.5646 H         1 <0>         0.1403
     57 H25        -1.0768    0.0497    8.8876 H         1 <0>         0.0587
     58 H26        -0.4061    1.6343    8.4304 H         1 <0>         0.1264
     59 H27        -1.2578   -0.7441    6.3705 H         1 <0>         0.0839
     60 H28        -0.9415    0.9974    6.1823 H         1 <0>         0.1010
     61 H29         0.0572   -0.1881    5.3075 H         1 <0>         0.0991
     62 H30        -0.7854    0.7478   11.1768 H         1 <0>         0.0491
     63 H31         0.8528    1.0156   11.8193 H         1 <0>         0.1015
     64 H32         0.9108    3.2339   10.4038 H         1 <0>         0.1193
     65 H33        -1.9691    2.6564   11.1679 H         1 <0>         0.0969
     66 H34        -1.2127    4.2957   10.6785 H         1 <0>         0.1068
     67 H35         3.0253   -0.3291   10.9595 H         1 <0>         0.0790
     68 H36         1.6752   -0.4552   12.1126 H         1 <0>         0.0800
     69 H37         2.4124   -1.9294   11.4407 H         1 <0>         0.0756
     70 H38        -0.0012   -1.9448    7.9508 H         1 <0>         0.4126
@<TRIPOS>BOND
     1    1    2 1
     2    1   36 1
     3    1   37 1
     4    1   38 1
     5    2    3 1
     6    2   39 1
     7    2   40 1
     8    3    4 1
     9    3    6 am
    10    4    5 1
    11    4   41 1
    12    4   42 1
    13    5   43 1
    14    5   44 1
    15    5   45 1
    16    6    7 2
    17    6    8 1
    18    8   13 ar
    19    8    9 ar
    20    9   10 ar
    21    9   46 1
    22   10   11 ar
    23   10   47 1
    24   11   12 ar
    25   11   14 1
    26   12   13 ar
    27   12   48 1
    28   13   49 1
    29   14   15 1
    30   14   16 1
    31   14   23 1
    32   16   21 ar
    33   16   17 ar
    34   17   18 ar
    35   17   50 1
    36   18   19 ar
    37   18   51 1
    38   19   20 ar
    39   19   52 1
    40   20   21 ar
    41   20   22 1
    42   21   53 1
    43   22   54 1
    44   23   29 1
    45   23   24 1
    46   23   70 1
    47   24   25 1
    48   24   55 1
    49   24   56 1
    50   25   26 1
    51   25   27 1
    52   25   35 1
    53   27   28 1
    54   27   32 1
    55   28   29 1
    56   28   57 1
    57   28   58 1
    58   29   30 1
    59   29   31 1
    60   31   59 1
    61   31   60 1
    62   31   61 1
    63   32   33 1
    64   32   62 1
    65   32   63 1
    66   33   34 2
    67   33   64 1
    68   34   65 1
    69   34   66 1
    70   35   67 1
    71   35   68 1
    72   35   69 1
@<TRIPOS>MOLECULE
ZINC22454243
   69    71     0     0     0
SMALL
USER_CHARGES

@<TRIPOS>ATOM
      1 C1         -1.6361    0.7400   -0.4048 C.3       1 <0>        -0.1678
      2 C2         -0.4795   -0.2224   -0.1279 C.3       1 <0>         0.1108
      3 N1          0.4432   -0.2172   -1.2658 N.am      1 <0>        -0.6082
      4 C3          1.5612    0.7290   -1.2981 C.3       1 <0>         0.0925
      5 C4          2.6581    0.2551   -0.3424 C.3       1 <0>        -0.1780
      6 C5          0.2635   -1.0829   -2.2831 C.2       1 <0>         0.5592
      7 O1         -0.6961   -1.8290   -2.2839 O.2       1 <0>        -0.5319
      8 C6          1.2336   -1.1251   -3.3980 C.ar      1 <0>        -0.1322
      9 C7          2.6016   -1.0221   -3.1410 C.ar      1 <0>        -0.0992
     10 C8          3.5016   -1.0626   -4.1859 C.ar      1 <0>        -0.1277
     11 C9          3.0506   -1.2045   -5.4862 C.ar      1 <0>        -0.0354
     12 C10         1.6958   -1.3067   -5.7478 C.ar      1 <0>        -0.0943
     13 C11         0.7857   -1.2739   -4.7115 C.ar      1 <0>        -0.0670
     14 C12         4.0394   -1.2475   -6.6226 C.3       1 <0>         0.1636
     15 H1          5.0218   -1.5231   -6.2392 H         1 <0>         0.0640
     16 C13         4.1166    0.1097   -7.2730 C.ar      1 <0>        -0.0647
     17 C14         3.0645    0.5664   -8.0456 C.ar      1 <0>        -0.1032
     18 C15         3.1322    1.8110   -8.6435 C.ar      1 <0>        -0.1050
     19 C16         4.2520    2.6017   -8.4708 C.ar      1 <0>        -0.1414
     20 C17         5.3087    2.1459   -7.6963 C.ar      1 <0>         0.1062
     21 C18         5.2357    0.8989   -7.0922 C.ar      1 <0>        -0.1362
     22 O2          6.4112    2.9218   -7.5248 O.3       1 <0>        -0.4990
     23 N2          3.6040   -2.2411   -7.6132 N.3       1 <0>        -0.5248
     24 C19         4.2086   -1.9758   -8.9261 C.3       1 <0>         0.0559
     25 C20         3.6696   -2.9819   -9.9457 C.3       1 <0>         0.0851
     26 H2          2.5899   -2.8638  -10.0373 H         1 <0>         0.0496
     27 N3          3.9770   -4.3460   -9.4936 N.3       1 <0>        -0.5331
     28 C21         3.3724   -4.6113   -8.1807 C.3       1 <0>         0.0659
     29 C22         3.9114   -3.6052   -7.1611 C.3       1 <0>         0.0883
     30 H3          4.9911   -3.7233   -7.0695 H         1 <0>         0.0512
     31 C23         3.2532   -3.8531   -5.8023 C.3       1 <0>        -0.1582
     32 C24         3.5416   -5.3396  -10.4841 C.3       1 <0>         0.0755
     33 C25         4.0858   -6.6941  -10.1097 C.2       1 <0>        -0.1452
     34 C26         3.2716   -7.7102   -9.9662 C.2       1 <0>        -0.1906
     35 C27         4.3274   -2.7337  -11.3046 C.3       1 <0>        -0.1494
     36 H4         -1.2443    1.7467   -0.5503 H         1 <0>         0.0550
     37 H5         -2.1655    0.4229   -1.3033 H         1 <0>         0.0597
     38 H6         -2.3226    0.7362    0.4418 H         1 <0>         0.0673
     39 H7          0.0500    0.0947    0.7706 H         1 <0>         0.0779
     40 H8         -0.8713   -1.2291    0.0175 H         1 <0>         0.0839
     41 H9          1.9608    0.7849   -2.3106 H         1 <0>         0.0934
     42 H10         1.2120    1.7146   -0.9903 H         1 <0>         0.0765
     43 H11         3.5738    0.8143   -0.5345 H         1 <0>         0.0720
     44 H12         2.3400    0.4212    0.6868 H         1 <0>         0.0627
     45 H13         2.8419   -0.8078   -0.4988 H         1 <0>         0.0643
     46 H14         2.9549   -0.9105   -2.1265 H         1 <0>         0.1392
     47 H15         4.5604   -0.9830   -3.9885 H         1 <0>         0.1255
     48 H16         1.3503   -1.4170   -6.7651 H         1 <0>         0.1358
     49 H17        -0.2713   -1.3586   -4.9166 H         1 <0>         0.1287
     50 H18         2.1886   -0.0505   -8.1824 H         1 <0>         0.1318
     51 H19         2.3093    2.1654   -9.2465 H         1 <0>         0.1283
     52 H20         4.3048    3.5736   -8.9387 H         1 <0>         0.1282
     53 H21         6.0550    0.5437   -6.4848 H         1 <0>         0.1265
     54 H22         6.3626    3.5105   -6.7593 H         1 <0>         0.3911
     55 H23         3.9564   -0.9644   -9.2449 H         1 <0>         0.0923
     56 H24         5.2917   -2.0754   -8.8545 H         1 <0>         0.0436
     57 H25         2.2893   -4.5117   -8.2523 H         1 <0>         0.0425
     58 H26         3.6246   -5.6227   -7.8619 H         1 <0>         0.0817
     59 H27         2.1735   -3.7358   -5.8948 H         1 <0>         0.0666
     60 H28         3.4814   -4.8649   -5.4672 H         1 <0>         0.0579
     61 H29         3.6359   -3.1351   -5.0769 H         1 <0>         0.0704
     62 H30         2.4525   -5.3787  -10.5051 H         1 <0>         0.0381
     63 H31         3.9140   -5.0580  -11.4691 H         1 <0>         0.0894
     64 H32         5.1470   -6.8270   -9.9596 H         1 <0>         0.1132
     65 H33         2.2104   -7.5773  -10.1162 H         1 <0>         0.0940
     66 H34         3.6616   -8.6809   -9.6978 H         1 <0>         0.0995
     67 H35         5.4070   -2.8526  -11.2128 H         1 <0>         0.0645
     68 H36         3.9433   -3.4504  -12.0305 H         1 <0>         0.0608
     69 H37         4.1005   -1.7212  -11.6386 H         1 <0>         0.0625
@<TRIPOS>BOND
     1    1    2 1
     2    1   36 1
     3    1   37 1
     4    1   38 1
     5    2    3 1
     6    2   39 1
     7    2   40 1
     8    3    4 1
     9    3    6 am
    10    4    5 1
    11    4   41 1
    12    4   42 1
    13    5   43 1
    14    5   44 1
    15    5   45 1
    16    6    7 2
    17    6    8 1
    18    8   13 ar
    19    8    9 ar
    20    9   10 ar
    21    9   46 1
    22   10   11 ar
    23   10   47 1
    24   11   12 ar
    25   11   14 1
    26   12   13 ar
    27   12   48 1
    28   13   49 1
    29   14   15 1
    30   14   16 1
    31   14   23 1
    32   16   21 ar
    33   16   17 ar
    34   17   18 ar
    35   17   50 1
    36   18   19 ar
    37   18   51 1
    38   19   20 ar
    39   19   52 1
    40   20   21 ar
    41   20   22 1
    42   21   53 1
    43   22   54 1
    44   23   29 1
    45   23   24 1
    46   24   25 1
    47   24   55 1
    48   24   56 1
    49   25   26 1
    50   25   27 1
    51   25   35 1
    52   27   28 1
    53   27   32 1
    54   28   29 1
    55   28   57 1
    56   28   58 1
    57   29   30 1
    58   29   31 1
    59   31   59 1
    60   31   60 1
    61   31   61 1
    62   32   33 1
    63   32   62 1
    64   32   63 1
    65   33   34 2
    66   33   64 1
    67   34   65 1
    68   34   66 1
    69   35   67 1
    70   35   68 1
    71   35   69 1
@<TRIPOS>MOLECULE
ZINC04095712
   39    43     0     0     0
SMALL
USER_CHARGES
hydroxy-methyl-BLAHone
@<TRIPOS>ATOM
      1 C1         -2.0261    0.9933   -1.3372 C.3       1 <0>        -0.0485
      2 C2         -0.6917    2.9938   -1.0810 C.3       1 <0>        -0.0050
      3 C3          0.7349    3.5628   -1.0659 C.3       1 <0>        -0.1245
      4 C4          1.4912    2.8714    0.0695 C.3       1 <0>        -0.0615
      5 C5          0.7400    3.0908    1.3588 C.ar      1 <0>        -0.1865
      6 C6         -0.2500    2.2941    1.8839 C.ar      1 <0>        -0.0555
      7 C7         -0.7968    2.7249    3.0792 C.ar      1 <0>        -0.1103
      8 C8         -0.3098    3.8657    3.6974 C.ar      1 <0>        -0.0986
      9 C9          0.7401    4.6253    3.1856 C.ar      1 <0>         0.1169
     10 C10         1.2962    4.2051    1.9729 C.ar      1 <0>         0.0902
     11 O1          2.3430    4.6615    1.2456 O.3       1 <0>        -0.2604
     12 C11         2.8171    3.5566    0.4001 C.3       1 <0>         0.0814
     13 H1          3.3005    3.7739   -0.4479 H         1 <0>         0.1523
     14 C12         3.5999    2.6787    1.3587 C.2       1 <0>         0.3537
     15 O2          4.4106    3.1890    2.1034 O.2       1 <0>        -0.3987
     16 C13         3.4000    1.2382    1.4041 C.2       1 <0>        -0.1873
     17 C14         2.4351    0.6356    0.7192 C.2       1 <0>        -0.0760
     18 C15         1.5235    1.3821   -0.1864 C.3       1 <0>        -0.0627
     19 H2          1.8951    1.2474   -1.2022 H         1 <0>         0.1167
     20 C16         0.0887    0.8648   -0.1611 C.3       1 <0>         0.0567
     21 H3          0.1111   -0.2017   -0.3853 H         1 <0>         0.1465
     22 C17        -0.6293    1.0517    1.1650 C.3       1 <0>        -0.0923
     23 O3          1.2035    5.7260    3.8361 O.3       1 <0>        -0.4796
     24 H4         -2.5929    1.2567   -0.4443 H         1 <0>         0.1270
     25 H5         -2.5169    1.4118   -2.2159 H         1 <0>         0.1270
     26 H6         -1.9780   -0.0917   -1.4302 H         1 <0>         0.1261
     27 H7         -1.1903    3.2495   -0.1461 H         1 <0>         0.1356
     28 H8         -1.2439    3.4307   -1.9130 H         1 <0>         0.1354
     29 H9          0.7031    4.6379   -0.8892 H         1 <0>         0.1239
     30 H10         1.2258    3.3572   -2.0171 H         1 <0>         0.1037
     31 H11        -1.6054    2.1704    3.5323 H         1 <0>         0.1411
     32 H12        -0.7677    4.1823    4.6229 H         1 <0>         0.1449
     33 H13         4.0588    0.6389    2.0150 H         1 <0>         0.1525
     34 H14         2.3083   -0.4318    0.8241 H         1 <0>         0.1464
     35 H15        -1.7037    1.0668    0.9820 H         1 <0>         0.1072
     36 H16        -0.3989    0.2037    1.8100 H         1 <0>         0.1264
     37 H17         1.9156    5.5414    4.4636 H         1 <0>         0.4017
     38 N1         -0.6528    1.5225   -1.2690 N.4       1 <0>        -0.3968
     39 H18        -0.1730    1.3164   -2.1530 H         1 <0>         0.4311
@<TRIPOS>BOND
     1    1   24 1
     2    1   25 1
     3    1   26 1
     4    1   38 1
     5    2    3 1
     6    2   27 1
     7    2   28 1
     8    2   38 1
     9    3    4 1
    10    3   29 1
    11    3   30 1
    12    4   12 1
    13    4   18 1
    14    4    5 1
    15    5   10 ar
    16    5    6 ar
    17    6   22 1
    18    6    7 ar
    19    7    8 ar
    20    7   31 1
    21    8    9 ar
    22    8   32 1
    23    9   10 ar
    24    9   23 1
    25   10   11 1
    26   11   12 1
    27   12   13 1
    28   12   14 1
    29   14   15 2
    30   14   16 1
    31   16   17 2
    32   16   33 1
    33   17   18 1
    34   17   34 1
    35   18   19 1
    36   18   20 1
    37   20   21 1
    38   20   22 1
    39   20   38 1
    40   22   35 1
    41   22   36 1
    42   23   37 1
    43   38   39 1
@<TRIPOS>MOLECULE
ZINC04097036
   42    46     0     0     0
SMALL
USER_CHARGES
methoxy-methyl-BLAHone
@<TRIPOS>ATOM
      1 C1         -3.5656    5.4543    2.2305 C.3       1 <0>        -0.0481
      2 C2         -1.1935    4.9975    2.1072 C.3       1 <0>        -0.0046
      3 C3          0.1388    5.4282    1.4772 C.3       1 <0>        -0.1245
      4 C4          0.0011    5.2863   -0.0389 C.3       1 <0>        -0.0622
      5 C5         -0.3735    3.8625   -0.3668 C.ar      1 <0>        -0.1614
      6 C6         -1.6438    3.3465   -0.4669 C.ar      1 <0>        -0.0869
      7 C7         -1.7200    1.9949   -0.7525 C.ar      1 <0>        -0.0830
      8 C8         -0.5629    1.2578   -0.9487 C.ar      1 <0>        -0.1659
      9 C9          0.7154    1.8104   -0.9048 C.ar      1 <0>         0.1406
     10 C10         0.8071    3.1760   -0.6172 C.ar      1 <0>         0.0828
     11 O1          1.8574    4.0254   -0.5525 O.3       1 <0>        -0.2589
     12 C11         1.3436    5.3871   -0.7630 C.3       1 <0>         0.0824
     13 H1          1.8622    6.1600   -0.3975 H         1 <0>         0.1525
     14 C12         1.0867    5.4525   -2.2576 C.2       1 <0>         0.3525
     15 O2          1.9418    5.0633   -3.0254 O.2       1 <0>        -0.3960
     16 C13        -0.1647    5.9727   -2.7881 C.2       1 <0>        -0.1858
     17 C14        -1.1943    6.2808   -2.0080 C.2       1 <0>        -0.0781
     18 C15        -1.1246    6.1686   -0.5273 C.3       1 <0>        -0.0612
     19 H2         -0.9397    7.1710   -0.1412 H         1 <0>         0.1166
     20 C16        -2.4219    5.6736    0.1048 C.3       1 <0>         0.0553
     21 H3         -3.2277    6.3320   -0.2195 H         1 <0>         0.1448
     22 C17        -2.8140    4.2542   -0.2710 C.3       1 <0>        -0.0850
     23 O3          1.8240    1.0558   -1.1308 O.3       1 <0>        -0.2990
     24 C18         1.6189   -0.3295   -1.4155 C.3       1 <0>         0.0217
     25 H4         -3.7753    4.3936    2.0928 H         1 <0>         0.1265
     26 H5         -3.4879    5.6741    3.2953 H         1 <0>         0.1266
     27 H6         -4.3730    6.0437    1.7958 H         1 <0>         0.1257
     28 H7         -1.1430    5.1386    3.1868 H         1 <0>         0.1350
     29 H8         -1.3696    3.9438    1.8907 H         1 <0>         0.1355
     30 H9          0.9427    4.7861    1.8371 H         1 <0>         0.1241
     31 H10         0.3507    6.4662    1.7337 H         1 <0>         0.1037
     32 H11        -2.6837    1.5120   -0.8189 H         1 <0>         0.1386
     33 H12        -0.6571    0.2010   -1.1506 H         1 <0>         0.1419
     34 H13        -0.2595    6.1132   -3.8548 H         1 <0>         0.1513
     35 H14        -2.1115    6.6234   -2.4637 H         1 <0>         0.1456
     36 H15        -3.4448    3.8454    0.5183 H         1 <0>         0.1036
     37 H16        -3.3893    4.2841   -1.1964 H         1 <0>         0.1234
     38 H17         2.5821   -0.8140   -1.5753 H         1 <0>         0.1114
     39 H18         1.1096   -0.8015   -0.5753 H         1 <0>         0.0616
     40 H19         1.0086   -0.4294   -2.3130 H         1 <0>         0.0620
     41 N1         -2.2995    5.8322    1.5772 N.4       1 <0>        -0.3963
     42 H20        -2.0985    6.8171    1.7864 H         1 <0>         0.4310
@<TRIPOS>BOND
     1    1   25 1
     2    1   26 1
     3    1   27 1
     4    1   41 1
     5    2    3 1
     6    2   28 1
     7    2   29 1
     8    2   41 1
     9    3    4 1
    10    3   30 1
    11    3   31 1
    12    4   12 1
    13    4   18 1
    14    4    5 1
    15    5   10 ar
    16    5    6 ar
    17    6   22 1
    18    6    7 ar
    19    7    8 ar
    20    7   32 1
    21    8    9 ar
    22    8   33 1
    23    9   10 ar
    24    9   23 1
    25   10   11 1
    26   11   12 1
    27   12   13 1
    28   12   14 1
    29   14   15 2
    30   14   16 1
    31   16   17 2
    32   16   34 1
    33   17   18 1
    34   17   35 1
    35   18   19 1
    36   18   20 1
    37   20   21 1
    38   20   22 1
    39   20   41 1
    40   22   36 1
    41   22   37 1
    42   23   24 1
    43   24   38 1
    44   24   39 1
    45   24   40 1
    46   41   42 1
@<TRIPOS>MOLECULE
ZINC03802417
   63    65     0     0     0
SMALL
USER_CHARGES
2-[2-benzyl-3-[4-(3-hydroxyphenyl)-3,4-dimethyl-1-piperidyl]-propanoyl]aminoacetic acid
@<TRIPOS>ATOM
      1 C1          7.1065    1.2095    0.1366 C.3       1 <0>        -0.1689
      2 C2          6.3271    1.1352    1.4511 C.3       1 <0>        -0.1017
      3 H1          6.9196    0.6040    2.1959 H         1 <0>         0.1196
      4 C3          6.0292    2.5513    1.9491 C.3       1 <0>        -0.0012
      5 C4          3.9221    2.5906    0.7528 C.3       1 <0>        -0.0116
      6 C5          4.1572    1.1757    0.2190 C.3       1 <0>        -0.1423
      7 C6          5.0082    0.3919    1.2220 C.3       1 <0>        -0.0202
      8 C7          4.2528    0.2681    2.5468 C.3       1 <0>        -0.1541
      9 C8          5.2934   -0.9829    0.6746 C.ar      1 <0>        -0.0614
     10 C9          4.8705   -1.3212   -0.5978 C.ar      1 <0>        -0.1314
     11 C10         5.1347   -2.5799   -1.1047 C.ar      1 <0>        -0.0948
     12 C11         5.8132   -3.5067   -0.3368 C.ar      1 <0>        -0.1422
     13 C12         6.2338   -3.1716    0.9418 C.ar      1 <0>         0.1145
     14 C13         5.9720   -1.9058    1.4463 C.ar      1 <0>        -0.1396
     15 O1          6.9017   -4.0813    1.6989 O.3       1 <0>        -0.4989
     16 C14         5.0241    4.6661    1.3345 C.3       1 <0>         0.0123
     17 C15         4.5861    5.4709    0.1092 C.3       1 <0>        -0.1348
     18 H2          3.6841    5.0278   -0.3131 H         1 <0>         0.1117
     19 C16         5.7014    5.4532   -0.9379 C.3       1 <0>        -0.0713
     20 C17         5.2321    6.1595   -2.1837 C.ar      1 <0>        -0.1129
     21 C18         4.4933    5.4742   -3.1300 C.ar      1 <0>        -0.1181
     22 C19         4.0587    6.1233   -4.2704 C.ar      1 <0>        -0.1143
     23 C20         4.3718    7.4550   -4.4696 C.ar      1 <0>        -0.0989
     24 C21         5.1150    8.1388   -3.5258 C.ar      1 <0>        -0.1021
     25 C22         5.5452    7.4911   -2.3828 C.ar      1 <0>        -0.0948
     26 C23         4.3030    6.8936    0.5177 C.2       1 <0>         0.5139
     27 O2          4.8728    7.3748    1.4741 O.2       1 <0>        -0.5506
     28 N1          3.4166    7.6313   -0.1799 N.am      1 <0>        -0.6791
     29 C24         3.2179    9.0444    0.1517 C.3       1 <0>         0.0730
     30 C25         2.0965    9.6039   -0.6853 C.2       1 <0>         0.4575
     31 O3          1.5843    8.9230   -1.5419 O.co2     1 <0>        -0.6322
     32 H3          6.5528    1.8157   -0.5804 H         1 <0>         0.0492
     33 H4          8.0819    1.6611    0.3175 H         1 <0>         0.0760
     34 H5          7.2401    0.2046   -0.2639 H         1 <0>         0.0866
     35 H6          6.9659    3.0880    2.0995 H         1 <0>         0.1326
     36 H7          5.4860    2.4977    2.8926 H         1 <0>         0.1353
     37 H8          3.3888    2.5368    1.7019 H         1 <0>         0.1358
     38 H9          3.3285    3.1558    0.0343 H         1 <0>         0.1324
     39 H10         3.1991    0.6738    0.0842 H         1 <0>         0.1169
     40 H11         4.6777    1.2293   -0.7371 H         1 <0>         0.0944
     41 H12         3.3120   -0.2567    2.3809 H         1 <0>         0.0735
     42 H13         4.8593   -0.2899    3.2601 H         1 <0>         0.0719
     43 H14         4.0490    1.2629    2.9431 H         1 <0>         0.0606
     44 H15         4.3364   -0.5995   -1.1981 H         1 <0>         0.1285
     45 H16         4.8070   -2.8404   -2.1003 H         1 <0>         0.1309
     46 H17         6.0155   -4.4914   -0.7316 H         1 <0>         0.1315
     47 H18         6.2982   -1.6426    2.4416 H         1 <0>         0.1286
     48 H19         6.3279   -4.6342    2.2467 H         1 <0>         0.3957
     49 H20         5.9619    5.0686    1.7173 H         1 <0>         0.1440
     50 H21         4.2576    4.7337    2.1066 H         1 <0>         0.1394
     51 H22         6.5803    5.9616   -0.5413 H         1 <0>         0.0951
     52 H23         5.9566    4.4214   -1.1795 H         1 <0>         0.0687
     53 H24         4.2524    4.4326   -2.9765 H         1 <0>         0.1146
     54 H25         3.4783    5.5889   -5.0080 H         1 <0>         0.1235
     55 H26         4.0360    7.9609   -5.3627 H         1 <0>         0.1252
     56 H27         5.3600    9.1791   -3.6815 H         1 <0>         0.1254
     57 H28         6.1262    8.0253   -1.6456 H         1 <0>         0.1187
     58 H29         2.9103    7.2267   -0.9016 H         1 <0>         0.4101
     59 H30         4.1345    9.5979   -0.0523 H         1 <0>         0.0745
     60 H31         2.9645    9.1376    1.2077 H         1 <0>         0.0792
     61 N2          5.2283    3.2603    0.9284 N.4       1 <0>        -0.3969
     62 H32         5.7348    3.2414    0.0355 H         1 <0>         0.4206
     63 O4          1.6667   10.8587   -0.4791 O.co2     1 <0>        -0.7473
@<TRIPOS>BOND
     1    1    2 1
     2    1   32 1
     3    1   33 1
     4    1   34 1
     5    2    3 1
     6    2    7 1
     7    2    4 1
     8    4   35 1
     9    4   36 1
    10    4   61 1
    11    5    6 1
    12    5   37 1
    13    5   38 1
    14    5   61 1
    15    6    7 1
    16    6   39 1
    17    6   40 1
    18    7    8 1
    19    7    9 1
    20    8   41 1
    21    8   42 1
    22    8   43 1
    23    9   14 ar
    24    9   10 ar
    25   10   11 ar
    26   10   44 1
    27   11   12 ar
    28   11   45 1
    29   12   13 ar
    30   12   46 1
    31   13   14 ar
    32   13   15 1
    33   14   47 1
    34   15   48 1
    35   16   17 1
    36   16   49 1
    37   16   50 1
    38   16   61 1
    39   17   18 1
    40   17   19 1
    41   17   26 1
    42   19   20 1
    43   19   51 1
    44   19   52 1
    45   20   25 ar
    46   20   21 ar
    47   21   22 ar
    48   21   53 1
    49   22   23 ar
    50   22   54 1
    51   23   24 ar
    52   23   55 1
    53   24   25 ar
    54   24   56 1
    55   25   57 1
    56   26   27 2
    57   26   28 am
    58   28   29 1
    59   28   58 1
    60   29   30 1
    61   29   59 1
    62   29   60 1
    63   30   31 2
    64   30   63 1
    65   61   62 1
@<TRIPOS>MOLECULE
ZINC03792990
   53    55     0     0     0
SMALL
USER_CHARGES

@<TRIPOS>ATOM
      1 C1          0.0359    1.4918    1.0936 C.3       1 <0>         0.0508
      2 O1          0.0564    0.0766    0.8964 O.3       1 <0>        -0.3575
      3 C2         -1.1318   -0.5351    0.7328 C.2       1 <0>         0.6541
      4 O2         -2.1581    0.1149    0.7568 O.2       1 <0>        -0.5644
      5 N1         -1.1828   -1.8684    0.5424 N.am      1 <0>        -0.5977
      6 C3          0.0500   -2.6680    0.5173 C.3       1 <0>         0.0924
      7 C4         -0.0693   -3.7854    1.5610 C.3       1 <0>         0.0885
      8 N2         -1.3587   -4.4657    1.3754 N.am      1 <0>        -0.6070
      9 C5         -2.5915   -3.6661    1.4006 C.3       1 <0>         0.1097
     10 H1         -2.7241   -3.2294    2.3904 H         1 <0>         0.1025
     11 C6         -2.4726   -2.5494    0.3624 C.3       1 <0>         0.0967
     12 C7         -3.7891   -4.5583    1.0683 C.3       1 <0>         0.0000
     13 N3         -5.0174   -3.7525    1.0771 N.4       1 <0>        -0.4012
     14 C8         -5.1728   -3.0414   -0.2176 C.3       1 <0>        -0.0255
     15 C9         -6.6902   -2.7331   -0.2729 C.3       1 <0>        -0.1436
     16 C10        -7.3227   -3.9963    0.3551 C.3       1 <0>        -0.1446
     17 C11        -6.2019   -4.6296    1.2002 C.3       1 <0>        -0.0025
     18 C12        -1.4097   -5.7990    1.1851 C.2       1 <0>         0.5299
     19 O3         -2.4820   -6.3625    1.1256 O.2       1 <0>        -0.5274
     20 C13        -0.1343   -6.5896    1.0461 C.3       1 <0>        -0.1008
     21 C14        -0.4655   -8.0458    0.8437 C.ar      1 <0>        -0.0653
     22 C15        -0.5992   -8.8823    1.9365 C.ar      1 <0>        -0.0865
     23 C16        -0.9024  -10.2180    1.7522 C.ar      1 <0>        -0.0944
     24 C17        -1.0728  -10.7187    0.4739 C.ar      1 <0>        -0.0261
     25 C18        -0.9394   -9.8810   -0.6203 C.ar      1 <0>        -0.0303
     26 C19        -0.6409   -8.5431   -0.4338 C.ar      1 <0>        -0.0844
     27 Cl1        -1.1524  -10.5079   -2.2251 Cl        1 <0>        -0.0394
     28 Cl2        -1.4532  -12.3966    0.2419 Cl        1 <0>        -0.0372
     29 H2          1.0560    1.8571    1.2117 H         1 <0>         0.1124
     30 H3         -0.4245    1.9723    0.2303 H         1 <0>         0.0661
     31 H4         -0.5397    1.7255    1.9893 H         1 <0>         0.0652
     32 H5          0.1827   -3.1047   -0.4726 H         1 <0>         0.0866
     33 H6          0.9029   -2.0330    0.7570 H         1 <0>         0.1193
     34 H7          0.7436   -4.4993    1.4272 H         1 <0>         0.1165
     35 H8         -0.0223   -3.3573    2.5623 H         1 <0>         0.0910
     36 H9         -3.2852   -1.8361    0.4999 H         1 <0>         0.1125
     37 H10        -2.5237   -2.9774   -0.6387 H         1 <0>         0.0903
     38 H11        -3.6509   -4.9991    0.0810 H         1 <0>         0.1417
     39 H12        -3.8692   -5.3509    1.8122 H         1 <0>         0.1665
     40 H13        -4.5924   -2.1188   -0.2220 H         1 <0>         0.1394
     41 H14        -4.8805   -3.6849   -1.0475 H         1 <0>         0.1350
     42 H15        -6.9259   -1.8487    0.3191 H         1 <0>         0.0987
     43 H16        -7.0211   -2.6079   -1.3039 H         1 <0>         0.1163
     44 H17        -8.1656   -3.7219    0.9894 H         1 <0>         0.1051
     45 H18        -7.6441   -4.6863   -0.4251 H         1 <0>         0.1037
     46 H19        -5.9682   -5.6245    0.8212 H         1 <0>         0.1330
     47 H20        -6.5124   -4.6902    2.2432 H         1 <0>         0.1316
     48 H21         0.4291   -6.2225    0.1882 H         1 <0>         0.1173
     49 H22         0.4644   -6.4753    1.9498 H         1 <0>         0.1184
     50 H23        -0.4662   -8.4917    2.9346 H         1 <0>         0.1372
     51 H24        -1.0060  -10.8710    2.6062 H         1 <0>         0.1467
     52 H25        -0.5407   -7.8882   -1.2867 H         1 <0>         0.1395
     53 H26        -4.9942   -3.0904    1.8382 H         1 <0>         0.4217
@<TRIPOS>BOND
     1    1    2 1
     2    1   29 1
     3    1   30 1
     4    1   31 1
     5    2    3 1
     6    3    4 2
     7    3    5 am
     8    5   11 1
     9    5    6 1
    10    6    7 1
    11    6   32 1
    12    6   33 1
    13    7    8 1
    14    7   34 1
    15    7   35 1
    16    8    9 1
    17    8   18 am
    18    9   10 1
    19    9   11 1
    20    9   12 1
    21   11   36 1
    22   11   37 1
    23   12   13 1
    24   12   38 1
    25   12   39 1
    26   13   17 1
    27   13   14 1
    28   13   53 1
    29   14   15 1
    30   14   40 1
    31   14   41 1
    32   15   16 1
    33   15   42 1
    34   15   43 1
    35   16   17 1
    36   16   44 1
    37   16   45 1
    38   17   46 1
    39   17   47 1
    40   18   19 2
    41   18   20 1
    42   20   21 1
    43   20   48 1
    44   20   49 1
    45   21   26 ar
    46   21   22 ar
    47   22   23 ar
    48   22   50 1
    49   23   24 ar
    50   23   51 1
    51   24   25 ar
    52   24   28 1
    53   25   26 ar
    54   25   27 1
    55   26   52 1
@<TRIPOS>MOLECULE
ZINC22779605
   43    44     0     0     0
SMALL
USER_CHARGES
[(2S,4R)-1,2-dimethyl-4-phenyl-4-piperidyl] propanoate
@<TRIPOS>ATOM
      1 C1         -1.7088    6.1073   -3.0587 C.3       1 <0>        -0.1492
      2 C2         -0.8714    5.4079   -1.9861 C.3       1 <0>        -0.1197
      3 C3         -1.1624    3.9294   -2.0064 C.2       1 <0>         0.4546
      4 O1         -1.9580    3.4810   -2.7975 O.2       1 <0>        -0.4766
      5 O2         -0.5377    3.1105   -1.1455 O.3       1 <0>        -0.3530
      6 C4         -0.9518    1.7188   -1.1410 C.3       1 <0>         0.1666
      7 C5         -2.4434    1.6284   -0.8070 C.3       1 <0>        -0.1782
      8 C6         -2.6815    2.1877    0.5975 C.3       1 <0>        -0.0011
      9 N1         -1.8960    1.4190    1.5714 N.4       1 <0>        -0.4006
     10 C7         -0.4564    1.5293    1.2993 C.3       1 <0>         0.0349
     11 H1         -0.1983    2.5979    1.3367 H         1 <0>         0.1387
     12 C8         -0.1528    0.9507   -0.0846 C.3       1 <0>        -0.1240
     13 C9          0.3254    0.7514    2.3598 C.3       1 <0>        -0.1848
     14 C10        -2.2054    1.8377    2.9451 C.3       1 <0>        -0.0517
     15 C11        -0.7022    1.1148   -2.4989 C.ar      1 <0>        -0.1118
     16 C12        -1.3217   -0.0692   -2.8531 C.ar      1 <0>        -0.1096
     17 C13        -1.0966   -0.6207   -4.1005 C.ar      1 <0>        -0.1121
     18 C14        -0.2438    0.0061   -4.9897 C.ar      1 <0>        -0.1040
     19 C15         0.3798    1.1873   -4.6335 C.ar      1 <0>        -0.1094
     20 C16         0.1505    1.7416   -3.3881 C.ar      1 <0>        -0.0969
     21 H2         -1.4964    7.1865   -3.0438 H         1 <0>         0.0773
     22 H3         -2.7771    5.9410   -2.8560 H         1 <0>         0.0654
     23 H4         -1.4549    5.6972   -4.0473 H         1 <0>         0.0682
     24 H5          0.1969    5.5742   -2.1888 H         1 <0>         0.1105
     25 H6         -1.1252    5.8180   -0.9975 H         1 <0>         0.1063
     26 H7         -3.0192    2.2136   -1.5391 H         1 <0>         0.1367
     27 H8         -2.7644    0.5769   -0.8442 H         1 <0>         0.1087
     28 H9         -2.3727    3.2430    0.6291 H         1 <0>         0.1250
     29 H10        -3.7502    2.1108    0.8465 H         1 <0>         0.1381
     30 H11        -0.4376   -0.1115   -0.1101 H         1 <0>         0.1126
     31 H12         0.9223    1.0472   -0.2962 H         1 <0>         0.1253
     32 H13         1.4030    0.8345    2.1553 H         1 <0>         0.1076
     33 H14         0.0275   -0.3071    2.3320 H         1 <0>         0.0835
     34 H15         0.1077    1.1676    3.3545 H         1 <0>         0.0862
     35 H16        -1.6046    1.2473    3.6525 H         1 <0>         0.1292
     36 H17        -3.2744    1.6741    3.1463 H         1 <0>         0.1254
     37 H18        -1.9689    2.9053    3.0651 H         1 <0>         0.1194
     38 H19        -1.9845   -0.5612   -2.1567 H         1 <0>         0.1201
     39 H20        -1.5835   -1.5438   -4.3787 H         1 <0>         0.1293
     40 H21        -0.0645   -0.4271   -5.9626 H         1 <0>         0.1295
     41 H22         1.0463    1.6768   -5.3281 H         1 <0>         0.1282
     42 H23         0.6380    2.6642   -3.1097 H         1 <0>         0.1168
     43 H24        -2.1771    0.3606    1.4673 H         1 <0>         0.4385
@<TRIPOS>BOND
     1    1    2 1
     2    1   21 1
     3    1   22 1
     4    1   23 1
     5    2    3 1
     6    2   24 1
     7    2   25 1
     8    3    4 2
     9    3    5 1
    10    5    6 1
    11    6   12 1
    12    6    7 1
    13    6   15 1
    14    7    8 1
    15    7   26 1
    16    7   27 1
    17    8    9 1
    18    8   28 1
    19    8   29 1
    20    9   10 1
    21    9   14 1
    22    9   43 1
    23   10   11 1
    24   10   12 1
    25   10   13 1
    26   12   30 1
    27   12   31 1
    28   13   32 1
    29   13   33 1
    30   13   34 1
    31   14   35 1
    32   14   36 1
    33   14   37 1
    34   15   20 ar
    35   15   16 ar
    36   16   17 ar
    37   16   38 1
    38   17   18 ar
    39   17   39 1
    40   18   19 ar
    41   18   40 1
    42   19   20 ar
    43   19   41 1
    44   20   42 1
@<TRIPOS>MOLECULE
ZINC04102215
   67    73     0     0     0
SMALL
USER_CHARGES
cyclopropylmethyl-(1-hydroxy-1-methyl-ethyl)-methoxy-BLAHol
@<TRIPOS>ATOM
      1 C1          4.8147    3.3558   -3.7256 C.3       1 <0>        -0.1825
      2 C2          4.1110    2.0584   -3.3227 C.3       1 <0>         0.1398
      3 C3          5.0338    0.8701   -3.6006 C.3       1 <0>        -0.1376
      4 C4          3.7728    2.1036   -1.8312 C.3       1 <0>        -0.0918
      5 H1          4.6803    2.3107   -1.2641 H         1 <0>         0.0965
      6 C5          2.7528    3.2207   -1.5780 C.3       1 <0>        -0.1171
      7 C6          1.4952    2.6165   -0.9739 C.3       1 <0>        -0.0644
      8 C7          0.9098    1.5865   -1.9500 C.3       1 <0>        -0.1040
      9 C8          1.9235    0.4606   -2.1808 C.3       1 <0>        -0.1586
     10 C9          3.2070    0.7456   -1.4003 C.3       1 <0>         0.1278
     11 C10         2.9012    0.7796    0.0986 C.3       1 <0>         0.0764
     12 H2          3.8088    0.9608    0.6743 H         1 <0>         0.1199
     13 C11         1.8726    1.8879    0.3382 C.3       1 <0>        -0.0466
     14 C12         2.2694    2.8303    1.4276 C.3       1 <0>        -0.1242
     15 C13         1.2487    3.9550    1.6061 C.3       1 <0>        -0.0081
     16 C14         0.4230    3.6437   -0.6278 C.3       1 <0>         0.0608
     17 H3          0.1085    4.1596   -1.5350 H         1 <0>         0.1482
     18 C15        -0.8036    3.0570    0.0762 C.3       1 <0>        -0.0929
     19 C16        -0.6531    1.6424    0.5260 C.ar      1 <0>        -0.0526
     20 C17         0.6191    1.1116    0.6169 C.ar      1 <0>        -0.1786
     21 C18         0.9426   -0.2158    0.7980 C.ar      1 <0>         0.1122
     22 C19        -0.1034   -1.0923    1.1209 C.ar      1 <0>         0.1042
     23 C20        -1.3898   -0.5569    1.1355 C.ar      1 <0>        -0.1008
     24 C21        -1.6762    0.7643    0.8258 C.ar      1 <0>        -0.1169
     25 O1          0.1266   -2.4020    1.4058 O.3       1 <0>        -0.4800
     26 O2          2.2482   -0.4247    0.5392 O.3       1 <0>        -0.2689
     27 C22         0.1607    5.7985    0.4683 C.3       1 <0>         0.0271
     28 C23         0.6803    6.6611    1.6202 C.3       1 <0>        -0.2111
     29 C24        -0.2281    6.8332    2.8393 C.3       1 <0>        -0.1678
     30 C25        -0.0172    7.9997    1.8708 C.3       1 <0>        -0.1481
     31 O3          4.1667   -0.2786   -1.6689 O.3       1 <0>        -0.3556
     32 C26         3.7369   -1.5897   -1.2971 C.3       1 <0>         0.0156
     33 O4          2.9076    1.9143   -4.0798 O.3       1 <0>        -0.5436
     34 H4          5.7326    3.4657   -3.1481 H         1 <0>         0.0698
     35 H5          5.0556    3.3236   -4.7882 H         1 <0>         0.0729
     36 H6          4.1573    4.2024   -3.5276 H         1 <0>         0.0539
     37 H7          4.4576   -0.0543   -3.5616 H         1 <0>         0.0876
     38 H8          5.4790    0.9793   -4.5895 H         1 <0>         0.0553
     39 H9          5.8223    0.8387   -2.8487 H         1 <0>         0.0733
     40 H10         3.1750    3.9503   -0.8870 H         1 <0>         0.0689
     41 H11         2.5059    3.7096   -2.5205 H         1 <0>         0.0909
     42 H12        -0.0052    1.1682   -1.5306 H         1 <0>         0.0845
     43 H13         0.6848    2.0730   -2.8991 H         1 <0>         0.0793
     44 H14         2.1543    0.3957   -3.2441 H         1 <0>         0.1226
     45 H15         1.5004   -0.4868   -1.8467 H         1 <0>         0.0690
     46 H16         3.2396    3.2651    1.1876 H         1 <0>         0.0961
     47 H17         2.3507    2.2722    2.3604 H         1 <0>         0.1157
     48 H18         1.6287    4.6800    2.3260 H         1 <0>         0.1397
     49 H19         0.3090    3.5394    1.9700 H         1 <0>         0.1364
     50 H20        -1.0140    3.6580    0.9609 H         1 <0>         0.0999
     51 H21        -1.6562    3.1289   -0.5990 H         1 <0>         0.1183
     52 H22        -2.2097   -1.2072    1.4025 H         1 <0>         0.1407
     53 H23        -2.7005    1.1067    0.8187 H         1 <0>         0.1367
     54 H24         0.2874   -2.5783    2.3429 H         1 <0>         0.3974
     55 H25         0.1692    6.3801   -0.4536 H         1 <0>         0.1342
     56 H26        -0.8578    5.4771    0.6858 H         1 <0>         0.1305
     57 H27         1.7549    6.6129    1.7961 H         1 <0>         0.1245
     58 H28        -1.1958    6.3319    2.8207 H         1 <0>         0.1056
     59 H29         0.2490    6.8986    3.8172 H         1 <0>         0.1102
     60 H30         0.5985    8.8319    2.2119 H         1 <0>         0.1125
     61 H31        -0.8459    8.2659    1.2147 H         1 <0>         0.1079
     62 H32         4.5207   -2.3095   -1.5330 H         1 <0>         0.0888
     63 H33         3.5307   -1.6147   -0.2271 H         1 <0>         0.0644
     64 H34         2.8314   -1.8450   -1.8477 H         1 <0>         0.0457
     65 H35         2.2743    2.6338   -3.9525 H         1 <0>         0.3630
     66 N1          1.0397    4.6104    0.3036 N.4       1 <0>        -0.3972
     67 H36         1.9455    4.9130   -0.0734 H         1 <0>         0.4243
@<TRIPOS>BOND
     1    1    2 1
     2    1   34 1
     3    1   35 1
     4    1   36 1
     5    2    3 1
     6    2    4 1
     7    2   33 1
     8    3   37 1
     9    3   38 1
    10    3   39 1
    11    4    5 1
    12    4   10 1
    13    4    6 1
    14    6    7 1
    15    6   40 1
    16    6   41 1
    17    7   13 1
    18    7   16 1
    19    7    8 1
    20    8    9 1
    21    8   42 1
    22    8   43 1
    23    9   10 1
    24    9   44 1
    25    9   45 1
    26   10   11 1
    27   10   31 1
    28   11   12 1
    29   11   26 1
    30   11   13 1
    31   13   20 1
    32   13   14 1
    33   14   15 1
    34   14   46 1
    35   14   47 1
    36   15   48 1
    37   15   49 1
    38   15   66 1
    39   16   17 1
    40   16   18 1
    41   16   66 1
    42   18   19 1
    43   18   50 1
    44   18   51 1
    45   19   24 ar
    46   19   20 ar
    47   20   21 ar
    48   21   22 ar
    49   21   26 1
    50   22   23 ar
    51   22   25 1
    52   23   24 ar
    53   23   52 1
    54   24   53 1
    55   25   54 1
    56   27   28 1
    57   27   55 1
    58   27   56 1
    59   27   66 1
    60   28   30 1
    61   28   29 1
    62   28   57 1
    63   29   30 1
    64   29   58 1
    65   29   59 1
    66   30   60 1
    67   30   61 1
    68   31   32 1
    69   32   62 1
    70   32   63 1
    71   32   64 1
    72   33   65 1
    73   66   67 1
@<TRIPOS>MOLECULE
ZINC04216763
   63    65     0     0     0
SMALL
USER_CHARGES
methyl 3-methyl-1-phenethyl-4-(phenyl-propanoyl-amino)-piperidine-4-carboxylate
@<TRIPOS>ATOM
      1 C1         -3.1088    8.4880    1.6261 C.3       1 <0>        -0.1524
      2 C2         -2.2275    7.2569    1.4059 C.3       1 <0>        -0.1602
      3 C3         -3.0918    6.0812    1.0294 C.2       1 <0>         0.4738
      4 O1         -4.0711    6.2467    0.3332 O.2       1 <0>        -0.4587
      5 N1         -2.7766    4.8458    1.4662 N.am      1 <0>        -0.5351
      6 C4         -1.4790    4.5713    1.9122 C.ar      1 <0>         0.1321
      7 C5         -1.1895    3.3464    2.4991 C.ar      1 <0>        -0.1089
      8 C6          0.0913    3.0802    2.9422 C.ar      1 <0>        -0.0965
      9 C7          1.0871    4.0279    2.7928 C.ar      1 <0>        -0.1220
     10 C8          0.8032    5.2466    2.2041 C.ar      1 <0>        -0.0900
     11 C9         -0.4766    5.5208    1.7633 C.ar      1 <0>        -0.1850
     12 C10        -3.7925    3.7903    1.4742 C.3       1 <0>         0.1725
     13 C11        -4.1659    3.4503    2.9197 C.3       1 <0>        -0.1652
     14 C12        -4.7733    4.6855    3.5886 C.3       1 <0>         0.0034
     15 C13        -5.6234    5.4878    1.4659 C.3       1 <0>        -0.0613
     16 C14        -5.0414    4.2765    0.7337 C.3       1 <0>        -0.0844
     17 H1         -5.7823    3.4775    0.7060 H         1 <0>         0.1090
     18 C15        -4.6654    4.6754   -0.6948 C.3       1 <0>        -0.1032
     19 C16        -6.6536    6.2093    3.5344 C.3       1 <0>         0.0029
     20 C17        -7.2170    5.7021    4.8634 C.3       1 <0>        -0.1011
     21 C18        -7.9234    6.8289    5.5722 C.ar      1 <0>        -0.1071
     22 C19        -7.2260    7.6392    6.4486 C.ar      1 <0>        -0.1102
     23 C20        -7.8727    8.6761    7.0947 C.ar      1 <0>        -0.1141
     24 C21        -9.2195    8.8956    6.8732 C.ar      1 <0>        -0.1046
     25 C22        -9.9180    8.0820    6.0009 C.ar      1 <0>        -0.1136
     26 C23        -9.2700    7.0487    5.3504 C.ar      1 <0>        -0.1097
     27 C24        -3.2476    2.5617    0.7925 C.2       1 <0>         0.4498
     28 O2         -3.9972    1.8041    0.2231 O.2       1 <0>        -0.4736
     29 O3         -1.9296    2.3090    0.8178 O.3       1 <0>        -0.3221
     30 C25        -1.4756    1.1076    0.1403 C.3       1 <0>         0.0141
     31 H2         -2.4837    9.3383    1.8985 H         1 <0>         0.0803
     32 H3         -3.6515    8.7151    0.7085 H         1 <0>         0.0738
     33 H4         -3.8191    8.2876    2.4282 H         1 <0>         0.0519
     34 H5         -1.6848    7.0297    2.3235 H         1 <0>         0.1142
     35 H6         -1.5172    7.4573    0.6038 H         1 <0>         0.1217
     36 H7         -1.9658    2.6041    2.6120 H         1 <0>         0.1325
     37 H8          0.3163    2.1291    3.4017 H         1 <0>         0.1301
     38 H9          2.0888    3.8158    3.1364 H         1 <0>         0.1290
     39 H10         1.5832    5.9846    2.0886 H         1 <0>         0.1327
     40 H11        -0.6977    6.4727    1.3036 H         1 <0>         0.1603
     41 H12        -4.8929    2.6382    2.9264 H         1 <0>         0.1154
     42 H13        -3.2724    3.1440    3.4639 H         1 <0>         0.1331
     43 H14        -5.0533    4.4426    4.6136 H         1 <0>         0.1405
     44 H15        -4.0409    5.4928    3.5937 H         1 <0>         0.1293
     45 H16        -6.5210    5.8277    0.9492 H         1 <0>         0.1311
     46 H17        -4.8871    6.2913    1.4812 H         1 <0>         0.2060
     47 H18        -4.8584    3.8401   -1.3679 H         1 <0>         0.0436
     48 H19        -5.2623    5.5344   -1.0012 H         1 <0>         0.0844
     49 H20        -3.6077    4.9358   -0.7328 H         1 <0>         0.0666
     50 H21        -5.9480    7.0183    3.7240 H         1 <0>         0.1298
     51 H22        -7.4685    6.5766    2.9108 H         1 <0>         0.1312
     52 H23        -7.9225    4.8932    4.6739 H         1 <0>         0.0945
     53 H24        -6.4020    5.3348    5.4871 H         1 <0>         0.0931
     54 H25        -6.1749    7.4648    6.6253 H         1 <0>         0.1231
     55 H26        -7.3269    9.3120    7.7760 H         1 <0>         0.1291
     56 H27        -9.7258    9.7029    7.3815 H         1 <0>         0.1294
     57 H28       -10.9702    8.2535    5.8278 H         1 <0>         0.1292
     58 H29        -9.8159    6.4129    4.6691 H         1 <0>         0.1239
     59 H30        -0.3932    1.0231    0.2369 H         1 <0>         0.1090
     60 H31        -1.9497    0.2354    0.5905 H         1 <0>         0.0698
     61 H32        -1.7431    1.1624   -0.9149 H         1 <0>         0.0678
     62 N2         -5.9845    5.0881    2.8428 N.4       1 <0>        -0.4026
     63 H33        -6.6295    4.2904    2.7997 H         1 <0>         0.4177
@<TRIPOS>BOND
     1    1    2 1
     2    1   31 1
     3    1   32 1
     4    1   33 1
     5    2    3 1
     6    2   34 1
     7    2   35 1
     8    3    4 2
     9    3    5 am
    10    5    6 1
    11    5   12 1
    12    6   11 ar
    13    6    7 ar
    14    7    8 ar
    15    7   36 1
    16    8    9 ar
    17    8   37 1
    18    9   10 ar
    19    9   38 1
    20   10   11 ar
    21   10   39 1
    22   11   40 1
    23   12   16 1
    24   12   13 1
    25   12   27 1
    26   13   14 1
    27   13   41 1
    28   13   42 1
    29   14   43 1
    30   14   44 1
    31   14   62 1
    32   15   16 1
    33   15   45 1
    34   15   46 1
    35   15   62 1
    36   16   17 1
    37   16   18 1
    38   18   47 1
    39   18   48 1
    40   18   49 1
    41   19   20 1
    42   19   50 1
    43   19   51 1
    44   19   62 1
    45   20   21 1
    46   20   52 1
    47   20   53 1
    48   21   26 ar
    49   21   22 ar
    50   22   23 ar
    51   22   54 1
    52   23   24 ar
    53   23   55 1
    54   24   25 ar
    55   24   56 1
    56   25   26 ar
    57   25   57 1
    58   26   58 1
    59   27   28 2
    60   27   29 1
    61   29   30 1
    62   30   59 1
    63   30   60 1
    64   30   61 1
    65   62   63 1
@<TRIPOS>MOLECULE
ZINC00537744
   30    31     0     0     0
SMALL
USER_CHARGES

@<TRIPOS>ATOM
      1 C1          2.1145    1.4179   -0.7411 C.ar      1 <0>        -0.0975
      2 C2          1.1724    2.0858    0.0200 C.ar      1 <0>        -0.0859
      3 C3          0.2526    1.3742    0.7677 C.ar      1 <0>        -0.1614
      4 C4          0.2715   -0.0070    0.7564 C.ar      1 <0>        -0.0719
      5 C5          1.2158   -0.6807   -0.0071 C.ar      1 <0>         0.1464
      6 C6          2.1389    0.0373   -0.7568 C.ar      1 <0>        -0.1117
      7 N1          1.2377   -2.0789   -0.0208 N.am      1 <0>        -0.6695
      8 C7          0.0870   -2.7720    0.0887 C.2       1 <0>         0.5637
      9 O1         -0.9776   -2.1846    0.1025 O.2       1 <0>        -0.4860
     10 C8          0.1190   -4.2432    0.1916 C.ar      1 <0>        -0.1587
     11 C9          1.3406   -4.9217    0.1819 C.ar      1 <0>        -0.0273
     12 C10         1.3641   -6.2967    0.2790 C.ar      1 <0>        -0.1084
     13 C11         0.1805   -7.0103    0.3858 C.ar      1 <0>        -0.0164
     14 C12        -1.0336   -6.3518    0.3961 C.ar      1 <0>        -0.1298
     15 C13        -1.0749   -4.9675    0.3056 C.ar      1 <0>         0.2202
     16 O2         -2.2666   -4.3189    0.3212 O.3       1 <0>        -0.4599
     17 Br1        -2.6411   -7.3370    0.5417 Br        1 <0>        -0.0056
     18 Br2         3.0181   -7.2132    0.2657 Br        1 <0>        -0.0179
     19 C14        -0.7715    2.1061    1.5963 C.3       1 <0>         0.5090
     20 F1         -0.5922    3.4856    1.4475 F         1 <0>        -0.1757
     21 F2         -2.0560    1.7539    1.1681 F         1 <0>        -0.1720
     22 F3         -0.6170    1.7583    2.9426 F         1 <0>        -0.1754
     23 H1          2.8290    1.9767   -1.3272 H         1 <0>         0.1425
     24 H2          1.1555    3.1656    0.0306 H         1 <0>         0.1423
     25 H3         -0.4471   -0.5623    1.3409 H         1 <0>         0.1469
     26 H4          2.8746   -0.4836   -1.3515 H         1 <0>         0.1378
     27 H5          2.0811   -2.5499   -0.1091 H         1 <0>         0.4132
     28 H6          2.2651   -4.3697    0.0982 H         1 <0>         0.1469
     29 H7          0.2078   -8.0874    0.4610 H         1 <0>         0.1554
     30 H8         -2.6578   -4.1938   -0.5543 H         1 <0>         0.4069
@<TRIPOS>BOND
     1    1    6 ar
     2    1    2 ar
     3    1   23 1
     4    2    3 ar
     5    2   24 1
     6    3    4 ar
     7    3   19 1
     8    4    5 ar
     9    4   25 1
    10    5    6 ar
    11    5    7 1
    12    6   26 1
    13    7    8 am
    14    7   27 1
    15    8    9 2
    16    8   10 1
    17   10   15 ar
    18   10   11 ar
    19   11   12 ar
    20   11   28 1
    21   12   13 ar
    22   12   18 1
    23   13   14 ar
    24   13   29 1
    25   14   15 ar
    26   14   17 1
    27   15   16 1
    28   16   30 1
    29   19   20 1
    30   19   21 1
    31   19   22 1
@<TRIPOS>MOLECULE
ZINC00537744
   29    30     0     0     0
SMALL
USER_CHARGES

@<TRIPOS>ATOM
      1 C1          2.1145    1.4179   -0.7411 C.ar      1 <0>        -0.1003
      2 C2          1.1724    2.0858    0.0200 C.ar      1 <0>        -0.1049
      3 C3          0.2526    1.3742    0.7677 C.ar      1 <0>        -0.1623
      4 C4          0.2715   -0.0070    0.7564 C.ar      1 <0>        -0.0768
      5 C5          1.2158   -0.6807   -0.0071 C.ar      1 <0>         0.1723
      6 C6          2.1389    0.0373   -0.7568 C.ar      1 <0>        -0.1273
      7 N1          1.2377   -2.0789   -0.0208 N.am      1 <0>        -0.6883
      8 C7          0.0870   -2.7720    0.0887 C.2       1 <0>         0.5672
      9 O1         -0.9776   -2.1846    0.1025 O.2       1 <0>        -0.4895
     10 C8          0.1190   -4.2432    0.1916 C.ar      1 <0>        -0.2865
     11 C9          1.3406   -4.9217    0.1819 C.ar      1 <0>         0.0127
     12 C10         1.3641   -6.2967    0.2790 C.ar      1 <0>        -0.2256
     13 C11         0.1805   -7.0103    0.3858 C.ar      1 <0>         0.0081
     14 C12        -1.0336   -6.3518    0.3961 C.ar      1 <0>        -0.2110
     15 C13        -1.0749   -4.9675    0.3056 C.ar      1 <0>         0.3329
     16 O2         -2.2666   -4.3189    0.3212 O.3       1 <0>        -0.6188
     17 Br1        -2.6411   -7.3370    0.5417 Br        1 <0>        -0.0746
     18 Br2         3.0181   -7.2132    0.2657 Br        1 <0>        -0.0917
     19 C14        -0.7715    2.1061    1.5963 C.3       1 <0>         0.5091
     20 F1         -0.5922    3.4856    1.4475 F         1 <0>        -0.1810
     21 F2         -2.0560    1.7539    1.1681 F         1 <0>        -0.1713
     22 F3         -0.6170    1.7583    2.9426 F         1 <0>        -0.1773
     23 H1          2.8290    1.9767   -1.3272 H         1 <0>         0.1346
     24 H2          1.1555    3.1656    0.0306 H         1 <0>         0.1347
     25 H3         -0.4471   -0.5623    1.3409 H         1 <0>         0.1482
     26 H4          2.8746   -0.4836   -1.3515 H         1 <0>         0.1330
     27 H5          2.0811   -2.5499   -0.1091 H         1 <0>         0.4064
     28 H6          2.2651   -4.3697    0.0982 H         1 <0>         0.1100
     29 H7          0.2078   -8.0874    0.4610 H         1 <0>         0.1178
@<TRIPOS>BOND
     1    1    6 ar
     2    1    2 ar
     3    1   23 1
     4    2    3 ar
     5    2   24 1
     6    3    4 ar
     7    3   19 1
     8    4    5 ar
     9    4   25 1
    10    5    6 ar
    11    5    7 1
    12    6   26 1
    13    7    8 am
    14    7   27 1
    15    8    9 2
    16    8   10 1
    17   10   15 ar
    18   10   11 ar
    19   11   12 ar
    20   11   28 1
    21   12   13 ar
    22   12   18 1
    23   13   14 ar
    24   13   29 1
    25   14   15 ar
    26   14   17 1
    27   15   16 1
    28   19   20 1
    29   19   21 1
    30   19   22 1
@<TRIPOS>MOLECULE
ZINC05966698
   39    41     0     0     0
SMALL
USER_CHARGES
3-(6-methyl-6-azabicyclo[3.3.1]non-1-yl)phenol
@<TRIPOS>ATOM
      1 C1         -3.9625    3.5082   -0.6811 C.3       1 <0>        -0.0429
      2 C2         -3.0781    1.5347    0.4294 C.3       1 <0>        -0.0069
      3 C3         -2.0816    0.9744    1.4330 C.3       1 <0>        -0.1321
      4 C4         -0.6883    1.5742    1.2875 C.3       1 <0>        -0.0096
      5 C5         -0.0128    1.0919    0.0080 C.3       1 <0>        -0.1136
      6 C6         -0.7176    1.5916   -1.2440 C.3       1 <0>        -0.1332
      7 C7         -0.9894    3.0884   -1.2004 C.3       1 <0>        -0.1257
      8 C8         -1.6538    3.5214    0.0997 C.3       1 <0>         0.0351
      9 H1         -1.7184    4.6216    0.1044 H         1 <0>         0.1301
     10 C9         -0.7724    3.1023    1.2821 C.3       1 <0>        -0.1341
     11 C10         0.1487    1.1469    2.4656 C.ar      1 <0>        -0.0735
     12 C11         0.6759    2.0980    3.3198 C.ar      1 <0>        -0.1324
     13 C12         1.4394    1.7089    4.4046 C.ar      1 <0>        -0.0943
     14 C13         1.6869    0.3686    4.6315 C.ar      1 <0>        -0.1398
     15 C14         1.1640   -0.5871    3.7729 C.ar      1 <0>         0.1167
     16 C15         0.3933   -0.1942    2.6880 C.ar      1 <0>        -0.1404
     17 O1          1.4064   -1.9059    3.9936 O.3       1 <0>        -0.4982
     18 H2         -3.6425    3.2791   -1.6976 H         1 <0>         0.1275
     19 H3         -4.9364    3.0550   -0.4960 H         1 <0>         0.1194
     20 H4         -4.0354    4.5888   -0.5581 H         1 <0>         0.1189
     21 H5         -2.9935    1.0232   -0.5270 H         1 <0>         0.1397
     22 H6         -4.0957    1.2978    0.8020 H         1 <0>         0.1167
     23 H7         -2.0176   -0.1141    1.3059 H         1 <0>         0.1103
     24 H8         -2.4493    1.1643    2.4494 H         1 <0>         0.0900
     25 H9          0.0021   -0.0041    0.0020 H         1 <0>         0.0789
     26 H10         1.0272    1.4393   -0.0000 H         1 <0>         0.0784
     27 H11        -0.0555    1.3932   -2.1078 H         1 <0>         0.0820
     28 H12        -1.6296    1.0330   -1.4267 H         1 <0>         0.0691
     29 H13        -0.0351    3.6238   -1.3040 H         1 <0>         0.1091
     30 H14        -1.6132    3.3705   -2.0528 H         1 <0>         0.0859
     31 H15         0.2227    3.5269    1.1637 H         1 <0>         0.1152
     32 H16        -1.2185    3.4514    2.2113 H         1 <0>         0.0920
     33 H17         0.4875    3.1464    3.1415 H         1 <0>         0.1277
     34 H18         1.8461    2.4533    5.0730 H         1 <0>         0.1320
     35 H19         2.2874    0.0654    5.4764 H         1 <0>         0.1337
     36 H20        -0.0153   -0.9364    2.0183 H         1 <0>         0.1283
     37 H21         2.2040   -2.2373    3.5589 H         1 <0>         0.3975
     38 N1         -3.0320    3.0144    0.3503 N.4       1 <0>        -0.3874
     39 H22        -3.3398    3.3843    1.2573 H         1 <0>         0.4297
@<TRIPOS>BOND
     1    1   18 1
     2    1   19 1
     3    1   20 1
     4    1   38 1
     5    2    3 1
     6    2   21 1
     7    2   22 1
     8    2   38 1
     9    3    4 1
    10    3   23 1
    11    3   24 1
    12    4   10 1
    13    4    5 1
    14    4   11 1
    15    5    6 1
    16    5   25 1
    17    5   26 1
    18    6    7 1
    19    6   27 1
    20    6   28 1
    21    7    8 1
    22    7   29 1
    23    7   30 1
    24    8    9 1
    25    8   10 1
    26    8   38 1
    27   10   31 1
    28   10   32 1
    29   11   16 ar
    30   11   12 ar
    31   12   13 ar
    32   12   33 1
    33   13   14 ar
    34   13   34 1
    35   14   15 ar
    36   14   35 1
    37   15   16 ar
    38   15   17 1
    39   16   36 1
    40   17   37 1
    41   38   39 1
@<TRIPOS>MOLECULE
ZINC05561290
   64    69     0     0     0
SMALL
USER_CHARGES
(1-hydroxy-1-methyl-butyl)-methoxy-methyl-BLAHol
@<TRIPOS>ATOM
      1 C1         -1.8728   -0.2831   -1.2025 C.3       1 <0>        -0.1541
      2 C2         -0.6848    0.6793   -1.2582 C.3       1 <0>        -0.1239
      3 C3          0.0983    0.5993    0.0538 C.3       1 <0>        -0.1541
      4 C4          1.2864    1.5618   -0.0018 C.3       1 <0>         0.1447
      5 C5          2.1134    1.2790   -1.2576 C.3       1 <0>        -0.1484
      6 C6          2.1599    1.3660    1.2390 C.3       1 <0>        -0.0878
      7 H1          2.4452    0.3170    1.3175 H         1 <0>         0.0972
      8 C7          3.4237    2.2284    1.1121 C.3       1 <0>        -0.1123
      9 C8          3.4807    3.1961    2.2845 C.3       1 <0>        -0.0357
     10 C9          2.1982    4.0134    2.2942 C.2       1 <0>        -0.1301
     11 C10         1.1012    3.2642    2.4075 C.2       1 <0>        -0.1567
     12 C11         1.3632    1.7683    2.4908 C.3       1 <0>         0.1410
     13 C12         2.2435    1.5017    3.7211 C.3       1 <0>         0.0813
     14 H2          2.5135    0.4485    3.7978 H         1 <0>         0.1268
     15 C13         3.4897    2.3807    3.5902 C.3       1 <0>        -0.0503
     16 C14         4.7776    1.6202    3.7697 C.3       1 <0>        -0.1227
     17 C15         5.9891    2.5376    3.5870 C.3       1 <0>        -0.0073
     18 C16         4.6958    4.1035    2.2915 C.3       1 <0>         0.0694
     19 H3          4.6973    4.7136    1.3882 H         1 <0>         0.1496
     20 C17         4.8114    5.0106    3.5172 C.3       1 <0>        -0.0920
     21 C18         3.8736    4.6793    4.6284 C.ar      1 <0>        -0.0484
     22 C19         3.2489    3.4471    4.6166 C.ar      1 <0>        -0.1771
     23 C20         2.1629    3.0874    5.3910 C.ar      1 <0>         0.1137
     24 C21         1.8394    3.9224    6.4701 C.ar      1 <0>         0.1018
     25 C22         2.5576    5.1103    6.5859 C.ar      1 <0>        -0.0988
     26 C23         3.5306    5.5060    5.6806 C.ar      1 <0>        -0.1176
     27 O1          0.8695    3.5877    7.3627 O.3       1 <0>        -0.4810
     28 O2          1.5991    1.9577    4.9246 O.3       1 <0>        -0.2691
     29 C24         7.1136    4.0140    2.0286 C.3       1 <0>        -0.0474
     30 O3          0.1420    1.0307    2.5727 O.3       1 <0>        -0.3502
     31 C25        -0.6552    1.3514    3.7145 C.3       1 <0>         0.0146
     32 O4          0.8077    2.9077   -0.0399 O.3       1 <0>        -0.5497
     33 H4         -1.5097   -1.3006   -1.0576 H         1 <0>         0.0530
     34 H5         -2.5245   -0.0084   -0.3731 H         1 <0>         0.0534
     35 H6         -2.4307   -0.2261   -2.1372 H         1 <0>         0.0550
     36 H7         -1.0479    1.6968   -1.4031 H         1 <0>         0.0635
     37 H8         -0.0331    0.4046   -2.0876 H         1 <0>         0.0618
     38 H9          0.4615   -0.4182    0.1987 H         1 <0>         0.0685
     39 H10        -0.5533    0.8741    0.8832 H         1 <0>         0.1007
     40 H11         2.9775    1.9430   -1.2807 H         1 <0>         0.0589
     41 H12         2.4517    0.2429   -1.2441 H         1 <0>         0.0705
     42 H13         1.5003    1.4495   -2.1425 H         1 <0>         0.0753
     43 H14         4.3054    1.5877    1.1245 H         1 <0>         0.0664
     44 H15         3.3917    2.7872    0.1767 H         1 <0>         0.1068
     45 H16         2.1782    5.0905    2.2173 H         1 <0>         0.1389
     46 H17         0.1072    3.6854    2.4380 H         1 <0>         0.1380
     47 H18         4.8025    1.1901    4.7710 H         1 <0>         0.1173
     48 H19         4.8237    0.8164    3.0350 H         1 <0>         0.0982
     49 H20         6.9018    1.9423    3.6146 H         1 <0>         0.1375
     50 H21         6.0122    3.2718    4.3923 H         1 <0>         0.1357
     51 H22         4.6259    6.0381    3.2044 H         1 <0>         0.1187
     52 H23         5.8312    4.9487    3.8969 H         1 <0>         0.1007
     53 H24         2.3451    5.7572    7.4241 H         1 <0>         0.1406
     54 H25         4.0209    6.4610    5.7984 H         1 <0>         0.1366
     55 H26         1.1904    3.0790    8.1199 H         1 <0>         0.3971
     56 H27         7.2319    4.7750    2.8000 H         1 <0>         0.1241
     57 H28         7.9794    3.3519    2.0356 H         1 <0>         0.1266
     58 H29         7.0316    4.4946    1.0537 H         1 <0>         0.1267
     59 H30        -0.9191    2.4087    3.6880 H         1 <0>         0.0452
     60 H31        -1.5640    0.7497    3.7037 H         1 <0>         0.0918
     61 H32        -0.0906    1.1406    4.6227 H         1 <0>         0.0692
     62 H33         0.0862    3.0861    0.5788 H         1 <0>         0.3749
     63 N1          5.8894    3.2182    2.2849 N.4       1 <0>        -0.4038
     64 H34         5.7858    2.5158    1.5432 H         1 <0>         0.4271
@<TRIPOS>BOND
     1    1    2 1
     2    1   33 1
     3    1   34 1
     4    1   35 1
     5    2    3 1
     6    2   36 1
     7    2   37 1
     8    3    4 1
     9    3   38 1
    10    3   39 1
    11    4    5 1
    12    4    6 1
    13    4   32 1
    14    5   40 1
    15    5   41 1
    16    5   42 1
    17    6    7 1
    18    6   12 1
    19    6    8 1
    20    8    9 1
    21    8   43 1
    22    8   44 1
    23    9   15 1
    24    9   18 1
    25    9   10 1
    26   10   11 2
    27   10   45 1
    28   11   12 1
    29   11   46 1
    30   12   13 1
    31   12   30 1
    32   13   14 1
    33   13   28 1
    34   13   15 1
    35   15   22 1
    36   15   16 1
    37   16   17 1
    38   16   47 1
    39   16   48 1
    40   17   49 1
    41   17   50 1
    42   17   63 1
    43   18   19 1
    44   18   20 1
    45   18   63 1
    46   20   21 1
    47   20   51 1
    48   20   52 1
    49   21   26 ar
    50   21   22 ar
    51   22   23 ar
    52   23   24 ar
    53   23   28 1
    54   24   25 ar
    55   24   27 1
    56   25   26 ar
    57   25   53 1
    58   26   54 1
    59   27   55 1
    60   29   56 1
    61   29   57 1
    62   29   58 1
    63   29   63 1
    64   30   31 1
    65   31   59 1
    66   31   60 1
    67   31   61 1
    68   32   62 1
    69   63   64 1
@<TRIPOS>MOLECULE
ZINC04215196
   60    62     0     0     0
SMALL
USER_CHARGES
methyl 1-phenethyl-4-(phenyl-propanoyl-amino)-piperidine-4-carboxylate
@<TRIPOS>ATOM
      1 C1          2.1074   -3.0605    2.2980 C.3       1 <0>        -0.1434
      2 C2          2.1109   -2.2022    1.0314 C.3       1 <0>        -0.1389
      3 C3          3.4150   -1.4529    0.9360 C.2       1 <0>         0.5226
      4 O1          4.2964   -1.6647    1.7419 O.2       1 <0>        -0.5046
      5 N1          3.6019   -0.5476   -0.0447 N.am      1 <0>        -0.5682
      6 C4          2.5467   -0.2174   -0.9023 C.ar      1 <0>         0.1148
      7 C5          2.0167   -1.1769   -1.7549 C.ar      1 <0>        -0.1448
      8 C6          0.9749   -0.8479   -2.5999 C.ar      1 <0>        -0.0980
      9 C7          0.4600    0.4354   -2.5979 C.ar      1 <0>        -0.1055
     10 C8          0.9856    1.3932   -1.7502 C.ar      1 <0>        -0.0939
     11 C9          2.0271    1.0704   -0.9024 C.ar      1 <0>        -0.1190
     12 C10         4.9097    0.0908   -0.2128 C.3       1 <0>         0.1859
     13 C11         4.9230    0.8946   -1.5160 C.3       1 <0>        -0.1516
     14 C12         4.7150   -0.0577   -2.6976 C.3       1 <0>        -0.0235
     15 C13         5.7598   -1.8797   -1.4888 C.3       1 <0>         0.0051
     16 C14         5.9995   -0.9831   -0.2720 C.3       1 <0>        -0.1564
     17 C15         5.6944   -1.9110   -3.9086 C.3       1 <0>        -0.0013
     18 C16         5.9705   -1.0638   -5.1524 C.3       1 <0>        -0.1005
     19 C17         5.8796   -1.9313   -6.3813 C.ar      1 <0>        -0.1078
     20 C18         7.0066   -2.5737   -6.8588 C.ar      1 <0>        -0.1096
     21 C19         6.9222   -3.3733   -7.9833 C.ar      1 <0>        -0.1136
     22 C20         5.7129   -3.5223   -8.6361 C.ar      1 <0>        -0.1041
     23 C21         4.5871   -2.8753   -8.1620 C.ar      1 <0>        -0.1141
     24 C22         4.6704   -2.0800   -7.0344 C.ar      1 <0>        -0.1097
     25 C23         5.1734    1.0124    0.9500 C.2       1 <0>         0.4618
     26 O2          6.2934    1.1259    1.3890 O.2       1 <0>        -0.4813
     27 O3          4.1642    1.7073    1.4980 O.3       1 <0>        -0.3490
     28 C24         4.4916    2.5755    2.6148 C.3       1 <0>         0.0336
     29 H1          1.1641   -3.6024    2.3670 H         1 <0>         0.0705
     30 H2          2.9327   -3.7714    2.2575 H         1 <0>         0.0649
     31 H3          2.2227   -2.4192    3.1718 H         1 <0>         0.0639
     32 H4          1.2856   -1.4913    1.0720 H         1 <0>         0.0999
     33 H5          1.9956   -2.8434    0.1576 H         1 <0>         0.0990
     34 H6          2.4189   -2.1792   -1.7574 H         1 <0>         0.1274
     35 H7          0.5622   -1.5937   -3.2632 H         1 <0>         0.1362
     36 H8         -0.3515    0.6915   -3.2630 H         1 <0>         0.1350
     37 H9          0.5815    2.3947   -1.7513 H         1 <0>         0.1368
     38 H10         2.4369    1.8188   -0.2403 H         1 <0>         0.1392
     39 H11         4.1215    1.6330   -1.4964 H         1 <0>         0.1319
     40 H12         5.8825    1.4008   -1.6215 H         1 <0>         0.1148
     41 H13         4.7386    0.5086   -3.6286 H         1 <0>         0.1407
     42 H14         3.7493   -0.5533   -2.5983 H         1 <0>         0.1496
     43 H15         6.5422   -2.6367   -1.5419 H         1 <0>         0.1417
     44 H16         4.7891   -2.3667   -1.3955 H         1 <0>         0.1274
     45 H17         6.9759   -0.5064   -0.3580 H         1 <0>         0.1164
     46 H18         5.9671   -1.5849    0.6362 H         1 <0>         0.1468
     47 H19         6.4312   -2.7117   -3.8435 H         1 <0>         0.1337
     48 H20         4.6953   -2.3413   -3.9765 H         1 <0>         0.1325
     49 H21         5.2338   -0.2631   -5.2175 H         1 <0>         0.0942
     50 H22         6.9697   -0.6336   -5.0844 H         1 <0>         0.0957
     51 H23         7.9523   -2.4540   -6.3511 H         1 <0>         0.1242
     52 H24         7.8019   -3.8785   -8.3539 H         1 <0>         0.1293
     53 H25         5.6477   -4.1440   -9.5168 H         1 <0>         0.1294
     54 H26         3.6423   -2.9915   -8.6722 H         1 <0>         0.1291
     55 H27         3.7908   -1.5745   -6.6640 H         1 <0>         0.1234
     56 H28         5.2201    3.3203    2.2946 H         1 <0>         0.0693
     57 H29         3.5882    3.0767    2.9624 H         1 <0>         0.1100
     58 H30         4.9122    1.9811    3.4259 H         1 <0>         0.0695
     59 N2          5.8095   -1.0513   -2.7125 N.4       1 <0>        -0.3947
     60 H31         6.7084   -0.5561   -2.7431 H         1 <0>         0.4273
@<TRIPOS>BOND
     1    1    2 1
     2    1   29 1
     3    1   30 1
     4    1   31 1
     5    2    3 1
     6    2   32 1
     7    2   33 1
     8    3    4 2
     9    3    5 am
    10    5    6 1
    11    5   12 1
    12    6   11 ar
    13    6    7 ar
    14    7    8 ar
    15    7   34 1
    16    8    9 ar
    17    8   35 1
    18    9   10 ar
    19    9   36 1
    20   10   11 ar
    21   10   37 1
    22   11   38 1
    23   12   16 1
    24   12   13 1
    25   12   25 1
    26   13   14 1
    27   13   39 1
    28   13   40 1
    29   14   41 1
    30   14   42 1
    31   14   59 1
    32   15   16 1
    33   15   43 1
    34   15   44 1
    35   15   59 1
    36   16   45 1
    37   16   46 1
    38   17   18 1
    39   17   47 1
    40   17   48 1
    41   17   59 1
    42   18   19 1
    43   18   49 1
    44   18   50 1
    45   19   24 ar
    46   19   20 ar
    47   20   21 ar
    48   20   51 1
    49   21   22 ar
    50   21   52 1
    51   22   23 ar
    52   22   53 1
    53   23   24 ar
    54   23   54 1
    55   24   55 1
    56   25   26 2
    57   25   27 1
    58   27   28 1
    59   28   56 1
    60   28   57 1
    61   28   58 1
    62   59   60 1
@<TRIPOS>MOLECULE
ZINC01718862
   45    48     0     0     0
SMALL
USER_CHARGES
1-(1-benzyl-4-piperidyl)-3H-benzoimidazol-2-one
@<TRIPOS>ATOM
      1 C1         -6.4550    6.9731    3.9602 C.ar      1 <0>        -0.0841
      2 C2         -5.1616    7.3817    3.6933 C.ar      1 <0>        -0.1145
      3 C3         -4.6111    7.1617    2.4446 C.ar      1 <0>        -0.0973
      4 C4         -5.3540    6.5335    1.4626 C.ar      1 <0>        -0.1621
      5 C5         -6.6493    6.1300    1.7277 C.ar      1 <0>        -0.0932
      6 C6         -7.1981    6.3453    2.9781 C.ar      1 <0>        -0.1129
      7 C7         -4.7539    6.2941    0.1011 C.3       1 <0>         0.0492
      8 C8         -3.2879    4.8194   -1.1385 C.3       1 <0>         0.0069
      9 C9         -2.7234    3.3979   -1.1904 C.3       1 <0>        -0.1681
     10 C10        -1.8516    3.1548    0.0447 C.3       1 <0>         0.1610
     11 C11        -2.6893    3.3838    1.3058 C.3       1 <0>        -0.1651
     12 C12        -3.2561    4.8052    1.2845 C.3       1 <0>         0.0002
     13 N1         -1.3555    1.7764    0.0301 N.am      1 <0>        -0.5377
     14 C13        -0.0169    1.3921    0.0097 C.ar      1 <0>         0.0793
     15 C14         1.1760    2.0989    0.0021 C.ar      1 <0>        -0.1046
     16 C15         2.3780    1.4188   -0.0122 C.ar      1 <0>        -0.1027
     17 C16         2.3967    0.0346   -0.0198 C.ar      1 <0>        -0.0990
     18 C17         1.2138   -0.6781   -0.0128 C.ar      1 <0>        -0.0998
     19 C18         0.0021   -0.0041    0.0020 C.ar      1 <0>         0.0914
     20 N2         -1.3257   -0.4247    0.0124 N.am      1 <0>        -0.6393
     21 H1         -1.6293   -1.3460    0.0109 H         1 <0>         0.4398
     22 C19        -2.1159    0.6653    0.0258 C.2       1 <0>         0.6857
     23 O1         -3.3326    0.6487    0.0373 O.2       1 <0>        -0.5583
     24 H2         -6.8850    7.1447    4.9359 H         1 <0>         0.1358
     25 H3         -4.5812    7.8725    4.4606 H         1 <0>         0.1361
     26 H4         -3.6006    7.4809    2.2361 H         1 <0>         0.1308
     27 H5         -7.2312    5.6432    0.9591 H         1 <0>         0.1314
     28 H6         -8.2086    6.0265    3.1865 H         1 <0>         0.1362
     29 H7         -4.0290    7.0776   -0.1193 H         1 <0>         0.1377
     30 H8         -5.5428    6.3069   -0.6510 H         1 <0>         0.1358
     31 H9         -2.4669    5.5365   -1.1394 H         1 <0>         0.1343
     32 H10        -3.9208    4.9909   -2.0092 H         1 <0>         0.1367
     33 H11        -2.1205    3.2784   -2.0906 H         1 <0>         0.1177
     34 H12        -3.5437    2.6802   -1.2038 H         1 <0>         0.1074
     35 H13        -1.0084    3.8455    0.0371 H         1 <0>         0.1143
     36 H14        -3.5095    2.6663    1.3331 H         1 <0>         0.1058
     37 H15        -2.0622    3.2542    2.1878 H         1 <0>         0.1160
     38 H16        -2.4353    5.5223    1.2723 H         1 <0>         0.1322
     39 H17        -3.8658    4.9664    2.1736 H         1 <0>         0.1380
     40 H18         1.1653    3.1788    0.0076 H         1 <0>         0.1287
     41 H19         3.3072    1.9692   -0.0182 H         1 <0>         0.1388
     42 H20         3.3406   -0.4903   -0.0317 H         1 <0>         0.1402
     43 H21         1.2324   -1.7579   -0.0191 H         1 <0>         0.1369
     44 N3         -4.1048    4.9669    0.0850 N.4       1 <0>        -0.3955
     45 H22        -4.8307    4.2407    0.0903 H         1 <0>         0.4301
@<TRIPOS>BOND
     1    1    6 ar
     2    1    2 ar
     3    1   24 1
     4    2    3 ar
     5    2   25 1
     6    3    4 ar
     7    3   26 1
     8    4    5 ar
     9    4    7 1
    10    5    6 ar
    11    5   27 1
    12    6   28 1
    13    7   29 1
    14    7   30 1
    15    7   44 1
    16    8    9 1
    17    8   31 1
    18    8   32 1
    19    8   44 1
    20    9   10 1
    21    9   33 1
    22    9   34 1
    23   10   11 1
    24   10   13 1
    25   10   35 1
    26   11   12 1
    27   11   36 1
    28   11   37 1
    29   12   38 1
    30   12   39 1
    31   12   44 1
    32   13   22 am
    33   13   14 1
    34   14   19 ar
    35   14   15 ar
    36   15   16 ar
    37   15   40 1
    38   16   17 ar
    39   16   41 1
    40   17   18 ar
    41   17   42 1
    42   18   19 ar
    43   18   43 1
    44   19   20 1
    45   20   21 1
    46   20   22 am
    47   22   23 2
    48   44   45 1
