@<TRIPOS>MOLECULE
ZINC03985980
   40    42     0     0     0
SMALL
USER_CHARGES

@<TRIPOS>ATOM
      1 C1         -0.0178    1.4608    0.0101 C.3       1 <0>         0.1059
      2 N1          0.0021   -0.0041    0.0020 N.pl3     1 <0>        -0.7119
      3 C2         -1.1869   -0.7123    0.0096 C.ar      1 <0>         0.4922
      4 C3         -1.1867   -2.1177    0.0079 C.ar      1 <0>        -0.0981
      5 C4         -2.4251   -2.7811    0.0158 C.ar      1 <0>         0.2956
      6 N2         -3.5430   -2.0622    0.0249 N.ar      1 <0>        -0.5367
      7 C5         -3.4948   -0.7469    0.0265 C.ar      1 <0>         0.3352
      8 N3         -2.3552   -0.0793    0.0241 N.ar      1 <0>        -0.5980
      9 N4         -2.1358   -4.1222    0.0117 N.pl3     1 <0>        -0.4482
     10 C6         -0.7785   -4.2474    0.0017 C.2       1 <0>         0.2947
     11 N5         -0.2235   -3.0703   -0.0005 N.2       1 <0>        -0.4895
     12 C7         -3.1074   -5.2186    0.0174 C.3       1 <0>         0.2890
     13 H1         -3.9753   -4.9524    0.6208 H         1 <0>         0.1074
     14 C8         -3.5403   -5.5612   -1.4254 C.3       1 <0>        -0.1637
     15 C9         -3.6896   -7.0991   -1.4174 C.3       1 <0>         0.1424
     16 H2         -2.9964   -7.5538   -2.1250 H         1 <0>         0.0706
     17 C10        -3.3294   -7.5037    0.0293 C.3       1 <0>         0.0725
     18 H3         -4.2315   -7.5898    0.6351 H         1 <0>         0.0889
     19 O1         -2.4980   -6.4279    0.5194 O.3       1 <0>        -0.3579
     20 C11        -2.5563   -8.8240    0.0363 C.3       1 <0>         0.1383
     21 O2         -2.3347   -9.2390    1.3856 O.3       1 <0>        -0.7616
     22 P1         -1.5491  -10.5910    1.7694 P.3       1 <0>         2.1422
     23 O3         -2.2264  -11.8094    1.0545 O.2       1 <0>        -1.1885
     24 O4         -0.0568  -10.4772    1.3060 O.3       1 <0>        -1.1976
     25 O5         -1.5995  -10.8018    3.3210 O.3       1 <0>        -1.1824
     26 O6         -5.0341   -7.4732   -1.7248 O.3       1 <0>        -0.7405
     27 P2         -5.4188   -8.4140   -2.9733 P.3       1 <0>         2.1191
     28 O7         -4.8362   -7.7978   -4.2906 O.2       1 <0>        -1.1913
     29 O8         -4.8168   -9.8438   -2.7548 O.3       1 <0>        -1.1692
     30 O9         -6.9778   -8.5160   -3.0895 O.3       1 <0>        -1.1722
     31 H4          1.0048    1.8381    0.0023 H         1 <0>         0.0650
     32 H5         -0.5450    1.8219   -0.8730 H         1 <0>         0.0545
     33 H6         -0.5280    1.8123    0.9069 H         1 <0>         0.0539
     34 H7          0.8486   -0.4776   -0.0086 H         1 <0>         0.4169
     35 H8         -4.4217   -0.1927    0.0336 H         1 <0>         0.1965
     36 H9         -0.2427   -5.1851   -0.0035 H         1 <0>         0.2309
     37 H10        -4.4925   -5.0862   -1.6614 H         1 <0>         0.0958
     38 H11        -2.7732   -5.2557   -2.1369 H         1 <0>         0.0756
     39 H12        -3.1334   -9.5857   -0.4880 H         1 <0>         0.0872
     40 H13        -1.5975   -8.6863   -0.4636 H         1 <0>         0.0368
@<TRIPOS>BOND
     1    1    2 1
     2    1   31 1
     3    1   32 1
     4    1   33 1
     5    2    3 1
     6    2   34 1
     7    3    8 ar
     8    3    4 ar
     9    4   11 1
    10    4    5 ar
    11    5    6 ar
    12    5    9 1
    13    6    7 ar
    14    7    8 ar
    15    7   35 1
    16    9   10 1
    17    9   12 1
    18   10   11 2
    19   10   36 1
    20   12   13 1
    21   12   19 1
    22   12   14 1
    23   14   15 1
    24   14   37 1
    25   14   38 1
    26   15   16 1
    27   15   17 1
    28   15   26 1
    29   17   18 1
    30   17   19 1
    31   17   20 1
    32   20   21 1
    33   20   39 1
    34   20   40 1
    35   21   22 1
    36   22   23 2
    37   22   24 1
    38   22   25 1
    39   26   27 1
    40   27   28 2
    41   27   29 1
    42   27   30 1
@<TRIPOS>MOLECULE
ZINC03985980
   41    43     0     0     0
SMALL
USER_CHARGES

@<TRIPOS>ATOM
      1 C1         -0.0178    1.4608    0.0101 C.3       1 <0>         0.1032
      2 N1          0.0021   -0.0041    0.0020 N.pl3     1 <0>        -0.7091
      3 C2          0.6007   -0.6822   -1.0453 C.ar      1 <0>         0.4954
      4 C3          0.6240   -2.0872   -1.0724 C.ar      1 <0>        -0.1004
      5 C4          1.2463   -2.7194   -2.1619 C.ar      1 <0>         0.2996
      6 N2          1.7859   -1.9726   -3.1200 N.ar      1 <0>        -0.5415
      7 C5          1.7399   -0.6589   -3.0527 C.ar      1 <0>         0.3437
      8 N3          1.1621   -0.0202   -2.0515 N.ar      1 <0>        -0.5956
      9 N4          1.1262   -4.0673   -1.9362 N.pl3     1 <0>        -0.4536
     10 C6          0.4585   -4.2265   -0.7585 C.2       1 <0>         0.2858
     11 N5          0.1647   -3.0636   -0.2533 N.2       1 <0>        -0.4841
     12 C7          1.6238   -5.1390   -2.8022 C.3       1 <0>         0.2957
     13 H1          1.5308   -4.8531   -3.8500 H         1 <0>         0.1100
     14 C8          3.0950   -5.4655   -2.4625 C.3       1 <0>        -0.1658
     15 C9          3.1867   -6.9992   -2.6265 C.3       1 <0>         0.1424
     16 H2          3.4601   -7.4687   -1.6816 H         1 <0>         0.0727
     17 C10         1.7600   -7.4177   -3.0460 C.3       1 <0>         0.0698
     18 H3          1.6876   -7.4833   -4.1316 H         1 <0>         0.0944
     19 O1          0.9034   -6.3649   -2.5497 O.3       1 <0>        -0.3651
     20 C11         1.3882   -8.7570   -2.4065 C.3       1 <0>         0.1422
     21 O2          0.1154   -9.1823   -2.8975 O.3       1 <0>        -0.7604
     22 P1         -0.5885  -10.5548   -2.4362 P.3       1 <0>         2.2071
     23 O3         -0.7015  -10.5831   -0.8956 O.2       1 <0>        -1.1123
     24 O4         -2.0594  -10.6477   -3.0841 O.3       1 <0>        -0.8975
     25 O5          0.2607  -11.7544   -2.9124 O.3       1 <0>        -1.1017
     26 O6          4.1306   -7.3383   -3.6444 O.3       1 <0>        -0.7380
     27 P2          5.4188   -8.2648   -3.3721 P.3       1 <0>         2.1140
     28 O7          6.2589   -7.6588   -2.1967 O.2       1 <0>        -1.1857
     29 O8          4.9510   -9.7100   -2.9887 O.3       1 <0>        -1.1710
     30 O9          6.3001   -8.3272   -4.6659 O.3       1 <0>        -1.1662
     31 H4          1.0048    1.8381    0.0023 H         1 <0>         0.0569
     32 H5         -0.5450    1.8219   -0.8730 H         1 <0>         0.0559
     33 H6         -0.5280    1.8123    0.9069 H         1 <0>         0.0674
     34 H7         -0.4044   -0.4986    0.7308 H         1 <0>         0.4172
     35 H8          2.1883   -0.0817   -3.8478 H         1 <0>         0.1991
     36 H9          0.2099   -5.1773   -0.3107 H         1 <0>         0.2277
     37 H10         3.7679   -4.9660   -3.1594 H         1 <0>         0.1005
     38 H11         3.3232   -5.1769   -1.4365 H         1 <0>         0.0798
     39 H12         2.1426   -9.5022   -2.6593 H         1 <0>         0.1017
     40 H13         1.3399   -8.6417   -1.3237 H         1 <0>         0.0595
     41 H14        -2.5431  -11.4512   -2.8482 H         1 <0>         0.4063
@<TRIPOS>BOND
     1    1    2 1
     2    1   31 1
     3    1   32 1
     4    1   33 1
     5    2    3 1
     6    2   34 1
     7    3    8 ar
     8    3    4 ar
     9    4   11 1
    10    4    5 ar
    11    5    6 ar
    12    5    9 1
    13    6    7 ar
    14    7    8 ar
    15    7   35 1
    16    9   10 1
    17    9   12 1
    18   10   11 2
    19   10   36 1
    20   12   13 1
    21   12   19 1
    22   12   14 1
    23   14   15 1
    24   14   37 1
    25   14   38 1
    26   15   16 1
    27   15   17 1
    28   15   26 1
    29   17   18 1
    30   17   19 1
    31   17   20 1
    32   20   21 1
    33   20   39 1
    34   20   40 1
    35   21   22 1
    36   22   23 2
    37   22   24 1
    38   22   25 1
    39   24   41 1
    40   26   27 1
    41   27   28 2
    42   27   29 1
    43   27   30 1
@<TRIPOS>MOLECULE
ZINC03985980
   41    43     0     0     0
SMALL
USER_CHARGES

@<TRIPOS>ATOM
      1 C1         -0.0178    1.4608    0.0101 C.3       1 <0>         0.1029
      2 N1          0.0021   -0.0041    0.0020 N.pl3     1 <0>        -0.7082
      3 C2          0.6205   -0.6934    1.0304 C.ar      1 <0>         0.4963
      4 C3          0.6543   -2.0984    1.0360 C.ar      1 <0>        -0.0987
      5 C4          1.2966   -2.7422    2.1069 C.ar      1 <0>         0.2972
      6 N2          1.8451   -2.0058    3.0680 N.ar      1 <0>        -0.5447
      7 C5          1.7894   -0.6917    3.0208 C.ar      1 <0>         0.3423
      8 N3          1.2011   -0.0421    2.0327 N.ar      1 <0>        -0.5959
      9 N4          1.1822   -4.0874    1.8631 N.pl3     1 <0>        -0.4558
     10 C6          0.4984   -4.2339    0.6930 C.2       1 <0>         0.2913
     11 N5          0.1896   -3.0658    0.2094 N.2       1 <0>        -0.4822
     12 C7          1.7002   -5.1682    2.7055 C.3       1 <0>         0.2922
     13 H1          2.6497   -4.8765    3.1545 H         1 <0>         0.1098
     14 C8          0.6759   -5.5328    3.8029 C.3       1 <0>        -0.1668
     15 C9          0.7961   -7.0677    3.9336 C.3       1 <0>         0.1458
     16 H2         -0.1516   -7.5472    3.6886 H         1 <0>         0.0872
     17 C10         1.8788   -7.4488    2.8998 C.3       1 <0>         0.0722
     18 H3          2.8562   -7.5087    3.3785 H         1 <0>         0.0928
     19 O1          1.8606   -6.3766    1.9309 O.3       1 <0>        -0.3476
     20 C11         1.5316   -8.7806    2.2314 C.3       1 <0>         0.1354
     21 O2          2.5996   -9.1720    1.3663 O.3       1 <0>        -0.7570
     22 P1          2.5732  -10.5281    0.4988 P.3       1 <0>         2.1345
     23 O3          2.3234  -11.7499    1.4471 O.2       1 <0>        -1.1870
     24 O4          1.4234  -10.4469   -0.5623 O.3       1 <0>        -1.1912
     25 O5          3.9471  -10.7070   -0.2326 O.3       1 <0>        -1.1752
     26 O6          1.2112   -7.4268    5.2530 O.3       1 <0>        -0.7435
     27 P2          0.3460   -8.3864    6.2137 P.3       1 <0>         2.1928
     28 O7          0.0578   -9.7187    5.4865 O.2       1 <0>        -1.0871
     29 O8          1.1722   -8.6797    7.5640 O.3       1 <0>        -0.8948
     30 O9         -0.9889   -7.6932    6.5669 O.3       1 <0>        -1.1061
     31 H4          1.0048    1.8381    0.0023 H         1 <0>         0.0563
     32 H5         -0.5450    1.8219   -0.8730 H         1 <0>         0.0682
     33 H6         -0.5280    1.8123    0.9069 H         1 <0>         0.0565
     34 H7         -0.4183   -0.4908   -0.7241 H         1 <0>         0.4182
     35 H8          2.2449   -0.1231    3.8181 H         1 <0>         0.1981
     36 H9          0.2496   -5.1798    0.2348 H         1 <0>         0.2315
     37 H10         0.9355   -5.0479    4.7439 H         1 <0>         0.1005
     38 H11        -0.3312   -5.2535    3.4932 H         1 <0>         0.0868
     39 H12         1.3852   -9.5436    2.9959 H         1 <0>         0.0804
     40 H13         0.6162   -8.6679    1.6505 H         1 <0>         0.0430
     41 H14         0.7102   -9.2529    8.1911 H         1 <0>         0.4099
@<TRIPOS>BOND
     1    1    2 1
     2    1   31 1
     3    1   32 1
     4    1   33 1
     5    2    3 1
     6    2   34 1
     7    3    8 ar
     8    3    4 ar
     9    4   11 1
    10    4    5 ar
    11    5    6 ar
    12    5    9 1
    13    6    7 ar
    14    7    8 ar
    15    7   35 1
    16    9   10 1
    17    9   12 1
    18   10   11 2
    19   10   36 1
    20   12   13 1
    21   12   19 1
    22   12   14 1
    23   14   15 1
    24   14   37 1
    25   14   38 1
    26   15   16 1
    27   15   17 1
    28   15   26 1
    29   17   18 1
    30   17   19 1
    31   17   20 1
    32   20   21 1
    33   20   39 1
    34   20   40 1
    35   21   22 1
    36   22   23 2
    37   22   24 1
    38   22   25 1
    39   26   27 1
    40   27   28 2
    41   27   29 1
    42   27   30 1
    43   29   41 1
@<TRIPOS>MOLECULE
ZINC03879185
   50    53     0     0     0
SMALL
USER_CHARGES

@<TRIPOS>ATOM
      1 C1         -5.3124   -3.8788   -1.7014 C.3       1 <0>        -0.1044
      2 C2         -3.8609   -4.1000   -1.3620 C.ar      1 <0>        -0.1233
      3 C3         -3.4744   -4.2373   -0.0412 C.ar      1 <0>        -0.0969
      4 C4         -2.1452   -4.4401    0.2734 C.ar      1 <0>        -0.1237
      5 C5         -1.1957   -4.5066   -0.7388 C.ar      1 <0>         0.2021
      6 C6         -1.5876   -4.3686   -2.0646 C.ar      1 <0>        -0.1059
      7 C7         -2.9192   -4.1708   -2.3723 C.ar      1 <0>        -0.1010
      8 C8         -0.5614   -4.4400   -3.1660 C.3       1 <0>        -0.0962
      9 N1          0.1496   -4.7111   -0.4242 N.pl3     1 <0>        -0.6900
     10 C9          0.4953   -5.4972    0.6644 C.ar      1 <0>         0.1429
     11 C10         1.1152   -4.9208    1.7781 C.ar      1 <0>         0.0228
     12 C11         1.4605   -5.6833    2.8546 C.ar      1 <0>        -0.6966
     13 C12         1.2021   -7.0581    2.8681 C.ar      1 <0>         0.3462
     14 C13         0.5836   -7.6584    1.7682 C.ar      1 <0>        -0.2309
     15 C14         0.2205   -6.8676    0.6555 C.ar      1 <0>        -0.0742
     16 C15        -0.4380   -7.4951   -0.5017 C.2       1 <0>         0.4278
     17 O1         -0.5287   -6.8975   -1.5571 O.2       1 <0>        -0.4066
     18 C16        -0.9876   -8.8616   -0.3655 C.ar      1 <0>        -0.1127
     19 C17        -1.8546   -9.3751   -1.3249 C.ar      1 <0>        -0.0720
     20 C18        -2.3589  -10.6552   -1.1810 C.ar      1 <0>        -0.1061
     21 C19        -2.0074  -11.4293   -0.0895 C.ar      1 <0>        -0.1050
     22 C20        -1.1465  -10.9342    0.8737 C.ar      1 <0>        -0.0740
     23 C21        -0.6302   -9.6487    0.7446 C.ar      1 <0>        -0.1104
     24 C22         0.3011   -9.1030    1.7598 C.2       1 <0>         0.4453
     25 O2          0.8141   -9.8354    2.5842 O.2       1 <0>        -0.4541
     26 N2          1.5588   -7.8221    3.9683 N.pl3     1 <0>        -0.8402
     27 S1          2.2407   -4.9292    4.2428 S.o2      1 <0>         2.6897
     28 O3          1.1937   -4.6403    5.2105 O.2       1 <0>        -1.0558
     29 O4          3.2064   -5.8879    4.7570 O.2       1 <0>        -1.0501
     30 O5          2.8832   -3.7170    3.7593 O.3       1 <0>        -1.0564
     31 C23        -1.7249   -4.5886    1.7130 C.3       1 <0>        -0.1221
     32 H1         -5.8032   -4.8416   -1.8432 H         1 <0>         0.0616
     33 H2         -5.7978   -3.3399   -0.8876 H         1 <0>         0.0605
     34 H3         -5.3861   -3.2948   -2.6188 H         1 <0>         0.0597
     35 H4         -4.2130   -4.1855    0.7451 H         1 <0>         0.1171
     36 H5         -3.2251   -4.0676   -3.4029 H         1 <0>         0.1155
     37 H6         -0.5115   -5.4587   -3.5506 H         1 <0>         0.0732
     38 H7         -0.8442   -3.7613   -3.9706 H         1 <0>         0.0558
     39 H8          0.4136   -4.1518   -2.7733 H         1 <0>         0.0554
     40 H9          0.8421   -4.3032   -0.9672 H         1 <0>         0.4074
     41 H10         1.3228   -3.8610    1.7853 H         1 <0>         0.1497
     42 H11        -2.1335   -8.7759   -2.1790 H         1 <0>         0.1388
     43 H12        -3.0321  -11.0532   -1.9259 H         1 <0>         0.1330
     44 H13        -2.4082  -12.4270    0.0116 H         1 <0>         0.1335
     45 H14        -0.8757  -11.5439    1.7230 H         1 <0>         0.1406
     46 H15         1.5436   -7.4310    4.8559 H         1 <0>         0.4097
     47 H16         1.8236   -8.7478    3.8507 H         1 <0>         0.4139
     48 H17        -1.6412   -5.6471    1.9597 H         1 <0>         0.0650
     49 H18        -0.7603   -4.1035    1.8618 H         1 <0>         0.0775
     50 H19        -2.4693   -4.1228    2.3587 H         1 <0>         0.0639
@<TRIPOS>BOND
     1    1    2 1
     2    1   32 1
     3    1   33 1
     4    1   34 1
     5    2    7 ar
     6    2    3 ar
     7    3    4 ar
     8    3   35 1
     9    4    5 ar
    10    4   31 1
    11    5    6 ar
    12    5    9 1
    13    6    7 ar
    14    6    8 1
    15    7   36 1
    16    8   37 1
    17    8   38 1
    18    8   39 1
    19    9   10 1
    20    9   40 1
    21   10   15 ar
    22   10   11 ar
    23   11   12 ar
    24   11   41 1
    25   12   13 ar
    26   12   27 1
    27   13   14 ar
    28   13   26 1
    29   14   24 1
    30   14   15 ar
    31   15   16 1
    32   16   17 2
    33   16   18 1
    34   18   23 ar
    35   18   19 ar
    36   19   20 ar
    37   19   42 1
    38   20   21 ar
    39   20   43 1
    40   21   22 ar
    41   21   44 1
    42   22   23 ar
    43   22   45 1
    44   23   24 1
    45   24   25 2
    46   26   46 1
    47   26   47 1
    48   27   28 2
    49   27   29 2
    50   27   30 1
    51   31   48 1
    52   31   49 1
    53   31   50 1
@<TRIPOS>MOLECULE
ZINC00639843
   28    29     0     0     0
SMALL
USER_CHARGES
1-(3,4-dichlorophenyl)-3-(3,5-dichlorophenyl)-urea
@<TRIPOS>ATOM
      1 C1         -2.5664    9.1912   -0.7264 C.ar      1 <0>        -0.1288
      2 C2         -3.7701    9.8690   -0.7163 C.ar      1 <0>        -0.0754
      3 C3         -4.8778    9.3056   -0.1088 C.ar      1 <0>        -0.0475
      4 C4         -4.7848    8.0576    0.4850 C.ar      1 <0>        -0.0097
      5 C5         -3.5845    7.3728    0.4716 C.ar      1 <0>        -0.1028
      6 C6         -2.4716    7.9374   -0.1375 C.ar      1 <0>         0.1797
      7 N1         -1.2544    7.2460   -0.1526 N.am      1 <0>        -0.6767
      8 C7         -1.2448    5.9001   -0.2215 C.2       1 <0>         0.7051
      9 O1         -2.2874    5.2912   -0.3653 O.2       1 <0>        -0.5436
     10 N2         -0.0795    5.2290   -0.1310 N.am      1 <0>        -0.6763
     11 C8         -0.0554    3.8415   -0.3109 C.ar      1 <0>         0.1894
     12 C9         -0.9397    3.2395   -1.1961 C.ar      1 <0>        -0.1090
     13 C10        -0.9141    1.8685   -1.3716 C.ar      1 <0>        -0.0026
     14 C11        -0.0085    1.0962   -0.6657 C.ar      1 <0>        -0.1169
     15 C12         0.8700    1.6931    0.2214 C.ar      1 <0>        -0.0029
     16 C13         0.8526    3.0643    0.3959 C.ar      1 <0>        -0.1339
     17 Cl1         1.9993    0.7198    1.1108 Cl        1 <0>        -0.0473
     18 Cl2        -2.0193    1.1151   -2.4782 Cl        1 <0>        -0.0458
     19 Cl3        -6.1771    7.3531    1.2460 Cl        1 <0>        -0.0386
     20 Cl4        -6.3868   10.1635   -0.0912 Cl        1 <0>        -0.0447
     21 H1         -1.7008    9.6341   -1.1965 H         1 <0>         0.1439
     22 H2         -3.8451   10.8420   -1.1790 H         1 <0>         0.1498
     23 H3         -3.5120    6.3998    0.9346 H         1 <0>         0.1567
     24 H4         -0.4180    7.7357   -0.1135 H         1 <0>         0.4150
     25 H5          0.7424    5.7078    0.0587 H         1 <0>         0.4151
     26 H6         -1.6471    3.8417   -1.7468 H         1 <0>         0.1548
     27 H7          0.0096    0.0252   -0.8039 H         1 <0>         0.1479
     28 H8          1.5417    3.5302    1.0848 H         1 <0>         0.1450
@<TRIPOS>BOND
     1    1    6 ar
     2    1    2 ar
     3    1   21 1
     4    2    3 ar
     5    2   22 1
     6    3    4 ar
     7    3   20 1
     8    4    5 ar
     9    4   19 1
    10    5    6 ar
    11    5   23 1
    12    6    7 1
    13    7    8 am
    14    7   24 1
    15    8    9 2
    16    8   10 am
    17   10   11 1
    18   10   25 1
    19   11   16 ar
    20   11   12 ar
    21   12   13 ar
    22   12   26 1
    23   13   14 ar
    24   13   18 1
    25   14   15 ar
    26   14   27 1
    27   15   16 ar
    28   15   17 1
    29   16   28 1
@<TRIPOS>MOLECULE
ZINC03926308
   43    46     0     0     0
SMALL
USER_CHARGES

@<TRIPOS>ATOM
      1 C1         -0.0178    1.4608    0.0101 C.3       1 <0>         0.1036
      2 N1          0.0021   -0.0041    0.0020 N.pl3     1 <0>        -0.7074
      3 C2          0.6007   -0.6822   -1.0453 C.ar      1 <0>         0.4965
      4 C3          0.6239   -2.0873   -1.0723 C.ar      1 <0>        -0.0874
      5 C4          1.2461   -2.7197   -2.1615 C.ar      1 <0>         0.2896
      6 N2          1.7865   -1.9734   -3.1196 N.ar      1 <0>        -0.4981
      7 C5          1.7414   -0.6591   -3.0523 C.ar      1 <0>         0.3427
      8 N3          1.1620   -0.0201   -2.0513 N.ar      1 <0>        -0.5693
      9 I1          2.6117    0.4602   -4.5945 I         1 <0>         0.0637
     10 N4          1.1255   -4.0676   -1.9357 N.pl3     1 <0>        -0.4320
     11 C6          0.4574   -4.2264   -0.7580 C.2       1 <0>         0.2822
     12 N5          0.1641   -3.0634   -0.2531 N.2       1 <0>        -0.4856
     13 C7          1.6228   -5.1395   -2.8016 C.3       1 <0>         0.1651
     14 H1          2.1288   -4.7218   -3.6720 H         1 <0>         0.1203
     15 C8          2.5772   -6.0725   -2.0156 C.3       1 <0>        -0.1386
     16 C9          2.5057   -7.3928   -2.8224 C.3       1 <0>         0.2006
     17 H2          2.7800   -8.2396   -2.1932 H         1 <0>         0.0817
     18 C10         1.0272   -7.4948   -3.2506 C.3       1 <0>        -0.1045
     19 C11         0.4653   -6.0601   -3.2403 C.3       1 <0>        -0.2064
     20 H3         -0.5267   -5.8424   -2.8444 H         1 <0>         0.1047
     21 C12         0.6051   -6.8218   -4.5582 C.3       1 <0>        -0.1203
     22 C13         0.2236   -8.6878   -2.7291 C.3       1 <0>         0.1784
     23 O1          0.9963   -9.8814   -2.8714 O.3       1 <0>        -0.7196
     24 P1          0.4600  -11.3318   -2.4231 P.3       1 <0>         2.1510
     25 O2          0.0216  -11.2847   -0.9198 O.2       1 <0>        -1.2077
     26 O3         -0.7659  -11.7331   -3.3122 O.3       1 <0>        -1.2064
     27 O4          1.6025  -12.3889   -2.6010 O.3       1 <0>        -1.1627
     28 O5          3.3574   -7.3257   -3.9679 O.3       1 <0>        -0.7442
     29 P2          4.5587   -8.3653   -4.2295 P.3       1 <0>         2.1171
     30 O6          5.5144   -8.3820   -2.9882 O.2       1 <0>        -1.1981
     31 O7          3.9688   -9.7992   -4.4537 O.3       1 <0>        -1.1501
     32 O8          5.3617   -7.9262   -5.5010 O.3       1 <0>        -1.1845
     33 H4          1.0048    1.8381    0.0023 H         1 <0>         0.0562
     34 H5         -0.5450    1.8219   -0.8730 H         1 <0>         0.0557
     35 H6         -0.5280    1.8123    0.9069 H         1 <0>         0.0670
     36 H7         -0.4044   -0.4986    0.7308 H         1 <0>         0.4182
     37 H8          0.2079   -5.1771   -0.3104 H         1 <0>         0.2283
     38 H9          3.5921   -5.6748   -2.0148 H         1 <0>         0.0811
     39 H10         2.2190   -6.2222   -0.9971 H         1 <0>         0.0729
     40 H11         1.3956   -6.5058   -5.2388 H         1 <0>         0.1044
     41 H12        -0.3098   -7.1759   -5.0332 H         1 <0>         0.0924
     42 H13        -0.0153   -8.5329   -1.6770 H         1 <0>         0.0265
     43 H14        -0.6994   -8.7821   -3.3012 H         1 <0>         0.0230
@<TRIPOS>BOND
     1    1    2 1
     2    1   33 1
     3    1   34 1
     4    1   35 1
     5    2    3 1
     6    2   36 1
     7    3    8 ar
     8    3    4 ar
     9    4   12 1
    10    4    5 ar
    11    5    6 ar
    12    5   10 1
    13    6    7 ar
    14    7    8 ar
    15    7    9 1
    16   10   11 1
    17   10   13 1
    18   11   12 2
    19   11   37 1
    20   13   14 1
    21   13   19 1
    22   13   15 1
    23   15   16 1
    24   15   38 1
    25   15   39 1
    26   16   17 1
    27   16   18 1
    28   16   28 1
    29   18   21 1
    30   18   19 1
    31   18   22 1
    32   19   20 1
    33   19   21 1
    34   21   40 1
    35   21   41 1
    36   22   23 1
    37   22   42 1
    38   22   43 1
    39   23   24 1
    40   24   25 2
    41   24   26 1
    42   24   27 1
    43   28   29 1
    44   29   30 2
    45   29   31 1
    46   29   32 1
@<TRIPOS>MOLECULE
ZINC03926308
   44    47     0     0     0
SMALL
USER_CHARGES

@<TRIPOS>ATOM
      1 C1         -0.0178    1.4608    0.0101 C.3       1 <0>         0.1012
      2 N1          0.0021   -0.0041    0.0020 N.pl3     1 <0>        -0.7047
      3 C2         -1.1868   -0.7122    0.0096 C.ar      1 <0>         0.4992
      4 C3         -1.1865   -2.1178    0.0079 C.ar      1 <0>        -0.0894
      5 C4         -2.4247   -2.7815    0.0158 C.ar      1 <0>         0.2938
      6 N2         -3.5430   -2.0630    0.0241 N.ar      1 <0>        -0.5034
      7 C5         -3.4951   -0.7471    0.0250 C.ar      1 <0>         0.3487
      8 N3         -2.3550   -0.0792    0.0241 N.ar      1 <0>        -0.5674
      9 I1         -5.2935    0.3275    0.0384 I         1 <0>         0.0697
     10 N4         -2.1350   -4.1225    0.0121 N.pl3     1 <0>        -0.4382
     11 C6         -0.7775   -4.2474    0.0024 C.2       1 <0>         0.2754
     12 N5         -0.2230   -3.0701   -0.0001 N.2       1 <0>        -0.4804
     13 C7         -3.1064   -5.2192    0.0180 C.3       1 <0>         0.1647
     14 H1         -4.1233   -4.8268    0.0135 H         1 <0>         0.1228
     15 C8         -2.8794   -6.1510   -1.1982 C.3       1 <0>        -0.1399
     16 C9         -3.5090   -7.4858   -0.7284 C.3       1 <0>         0.2013
     17 H2         -3.0801   -8.3241   -1.2775 H         1 <0>         0.0756
     18 C10        -3.1383   -7.5734    0.7666 C.3       1 <0>        -0.1241
     19 C11        -2.8846   -6.1302    1.2430 C.3       1 <0>        -0.1897
     20 H3         -2.0516   -5.8892    1.9034 H         1 <0>         0.1099
     21 C12        -4.0764   -6.9202    1.7835 C.3       1 <0>        -0.1182
     22 C13        -2.2553   -8.7431    1.2060 C.3       1 <0>         0.1874
     23 O1         -2.7347   -9.9512    0.6121 O.3       1 <0>        -0.7263
     24 P1         -2.0421  -11.3838    0.8574 P.3       1 <0>         2.2392
     25 O2         -1.9624  -11.6642    2.3747 O.2       1 <0>        -1.1303
     26 O3         -2.9172  -12.5320    0.1447 O.3       1 <0>        -0.8763
     27 O4         -0.6175  -11.3762    0.2596 O.3       1 <0>        -1.1268
     28 O5         -4.9281   -7.4550   -0.8935 O.3       1 <0>        -0.7417
     29 P2         -5.7288   -8.5181   -1.7994 P.3       1 <0>         2.1235
     30 O6         -5.1313   -8.5249   -3.2477 O.2       1 <0>        -1.1950
     31 O7         -5.5922   -9.9469   -1.1714 O.3       1 <0>        -1.1661
     32 O8         -7.2420   -8.1171   -1.8607 O.3       1 <0>        -1.1775
     33 H4          1.0048    1.8381    0.0023 H         1 <0>         0.0693
     34 H5         -0.5450    1.8219   -0.8730 H         1 <0>         0.0581
     35 H6         -0.5280    1.8123    0.9069 H         1 <0>         0.0576
     36 H7          0.8486   -0.4776   -0.0086 H         1 <0>         0.4186
     37 H8         -0.2414   -5.1849   -0.0019 H         1 <0>         0.2261
     38 H9         -3.3958   -5.7692   -2.0790 H         1 <0>         0.0851
     39 H10        -1.8148   -6.2747   -1.3967 H         1 <0>         0.0748
     40 H11        -5.0688   -6.6302    1.4381 H         1 <0>         0.1090
     41 H12        -4.0217   -7.2694    2.8146 H         1 <0>         0.0958
     42 H13        -1.2288   -8.5635    0.8863 H         1 <0>         0.0452
     43 H14        -2.2871   -8.8344    2.2917 H         1 <0>         0.0466
     44 H15        -2.5582  -13.4235    0.2517 H         1 <0>         0.3968
@<TRIPOS>BOND
     1    1    2 1
     2    1   33 1
     3    1   34 1
     4    1   35 1
     5    2    3 1
     6    2   36 1
     7    3    8 ar
     8    3    4 ar
     9    4   12 1
    10    4    5 ar
    11    5    6 ar
    12    5   10 1
    13    6    7 ar
    14    7    8 ar
    15    7    9 1
    16   10   11 1
    17   10   13 1
    18   11   12 2
    19   11   37 1
    20   13   14 1
    21   13   19 1
    22   13   15 1
    23   15   16 1
    24   15   38 1
    25   15   39 1
    26   16   17 1
    27   16   18 1
    28   16   28 1
    29   18   21 1
    30   18   19 1
    31   18   22 1
    32   19   20 1
    33   19   21 1
    34   21   40 1
    35   21   41 1
    36   22   23 1
    37   22   42 1
    38   22   43 1
    39   23   24 1
    40   24   25 2
    41   24   26 1
    42   24   27 1
    43   26   44 1
    44   28   29 1
    45   29   30 2
    46   29   31 1
    47   29   32 1
@<TRIPOS>MOLECULE
ZINC03926308
   44    47     0     0     0
SMALL
USER_CHARGES

@<TRIPOS>ATOM
      1 C1         -0.0178    1.4608    0.0101 C.3       1 <0>         0.1006
      2 N1          0.0021   -0.0041    0.0020 N.pl3     1 <0>        -0.7033
      3 C2          0.6007   -0.6822   -1.0453 C.ar      1 <0>         0.5006
      4 C3          0.6239   -2.0873   -1.0723 C.ar      1 <0>        -0.0882
      5 C4          1.2461   -2.7197   -2.1615 C.ar      1 <0>         0.2923
      6 N2          1.7865   -1.9734   -3.1196 N.ar      1 <0>        -0.5075
      7 C5          1.7414   -0.6591   -3.0523 C.ar      1 <0>         0.3488
      8 N3          1.1620   -0.0201   -2.0513 N.ar      1 <0>        -0.5678
      9 I1          2.6117    0.4602   -4.5945 I         1 <0>         0.0683
     10 N4          1.1255   -4.0676   -1.9357 N.pl3     1 <0>        -0.4406
     11 C6          0.4574   -4.2264   -0.7580 C.2       1 <0>         0.2790
     12 N5          0.1641   -3.0634   -0.2531 N.2       1 <0>        -0.4780
     13 C7          1.6228   -5.1395   -2.8016 C.3       1 <0>         0.1668
     14 H1          2.1288   -4.7218   -3.6720 H         1 <0>         0.1191
     15 C8          2.5772   -6.0725   -2.0156 C.3       1 <0>        -0.1409
     16 C9          2.5057   -7.3928   -2.8224 C.3       1 <0>         0.2070
     17 H2          2.7800   -8.2396   -2.1932 H         1 <0>         0.0967
     18 C10         1.0272   -7.4948   -3.2506 C.3       1 <0>        -0.1129
     19 C11         0.4653   -6.0601   -3.2403 C.3       1 <0>        -0.1979
     20 H3         -0.5267   -5.8424   -2.8444 H         1 <0>         0.1132
     21 C12         0.6051   -6.8218   -4.5582 C.3       1 <0>        -0.1196
     22 C13         0.2236   -8.6878   -2.7291 C.3       1 <0>         0.1727
     23 O1          0.9963   -9.8814   -2.8714 O.3       1 <0>        -0.7259
     24 P1          0.4600  -11.3318   -2.4231 P.3       1 <0>         2.1424
     25 O2          0.0216  -11.2847   -0.9198 O.2       1 <0>        -1.2015
     26 O3         -0.7659  -11.7331   -3.3122 O.3       1 <0>        -1.2010
     27 O4          1.6025  -12.3889   -2.6010 O.3       1 <0>        -1.1599
     28 O5          3.3574   -7.3257   -3.9679 O.3       1 <0>        -0.7459
     29 P2          4.5587   -8.3653   -4.2295 P.3       1 <0>         2.1695
     30 O6          4.0067   -9.8080   -4.2001 O.2       1 <0>        -1.0544
     31 O7          5.2182   -8.0722   -5.6686 O.3       1 <0>        -0.9007
     32 O8          5.6304   -8.2014   -3.1288 O.3       1 <0>        -1.1091
     33 H4          1.0048    1.8381    0.0023 H         1 <0>         0.0583
     34 H5         -0.5450    1.8219   -0.8730 H         1 <0>         0.0581
     35 H6         -0.5280    1.8123    0.9069 H         1 <0>         0.0704
     36 H7         -0.4044   -0.4986    0.7308 H         1 <0>         0.4196
     37 H8          0.2079   -5.1771   -0.3104 H         1 <0>         0.2290
     38 H9          3.5921   -5.6748   -2.0148 H         1 <0>         0.0858
     39 H10         2.2190   -6.2222   -0.9971 H         1 <0>         0.0869
     40 H11         1.3956   -6.5058   -5.2388 H         1 <0>         0.1001
     41 H12        -0.3098   -7.1759   -5.0332 H         1 <0>         0.0995
     42 H13        -0.0153   -8.5329   -1.6770 H         1 <0>         0.0338
     43 H14        -0.6994   -8.7821   -3.3012 H         1 <0>         0.0309
     44 H15         5.9505   -8.6624   -5.8933 H         1 <0>         0.4059
@<TRIPOS>BOND
     1    1    2 1
     2    1   33 1
     3    1   34 1
     4    1   35 1
     5    2    3 1
     6    2   36 1
     7    3    8 ar
     8    3    4 ar
     9    4   12 1
    10    4    5 ar
    11    5    6 ar
    12    5   10 1
    13    6    7 ar
    14    7    8 ar
    15    7    9 1
    16   10   11 1
    17   10   13 1
    18   11   12 2
    19   11   37 1
    20   13   14 1
    21   13   19 1
    22   13   15 1
    23   15   16 1
    24   15   38 1
    25   15   39 1
    26   16   17 1
    27   16   18 1
    28   16   28 1
    29   18   21 1
    30   18   19 1
    31   18   22 1
    32   19   20 1
    33   19   21 1
    34   21   40 1
    35   21   41 1
    36   22   23 1
    37   22   42 1
    38   22   43 1
    39   23   24 1
    40   24   25 2
    41   24   26 1
    42   24   27 1
    43   28   29 1
    44   29   30 2
    45   29   31 1
    46   29   32 1
    47   31   44 1
@<TRIPOS>MOLECULE
ZINC13492626
   43    46     0     0     0
SMALL
USER_CHARGES

@<TRIPOS>ATOM
      1 C1         -0.0178    1.4608    0.0101 C.3       1 <0>         0.1026
      2 N1          0.0021   -0.0041    0.0020 N.pl3     1 <0>        -0.7058
      3 C2         -1.1868   -0.7122    0.0096 C.ar      1 <0>         0.5079
      4 C3         -1.1863   -2.1177    0.0079 C.ar      1 <0>        -0.0989
      5 C4         -2.4242   -2.7818    0.0158 C.ar      1 <0>         0.3028
      6 N2         -3.5429   -2.0638    0.0248 N.ar      1 <0>        -0.5171
      7 C5         -3.4955   -0.7472    0.0263 C.ar      1 <0>         0.4091
      8 N3         -2.3549   -0.0790    0.0241 N.ar      1 <0>        -0.5830
      9 Cl1        -4.9858    0.1429    0.0376 Cl        1 <0>         0.0119
     10 N4         -2.1342   -4.1227    0.0114 N.pl3     1 <0>        -0.4326
     11 C6         -0.7765   -4.2472    0.0012 C.2       1 <0>         0.2808
     12 N5         -0.2224   -3.0698   -0.0008 N.2       1 <0>        -0.4832
     13 C7         -3.1053   -5.2197    0.0166 C.3       1 <0>         0.1648
     14 C8         -2.8466   -6.1783   -1.1722 C.3       1 <0>        -0.1388
     15 C9         -3.4881   -7.5027   -0.6891 C.3       1 <0>         0.2003
     16 C10        -3.1564   -7.5566    0.8165 C.3       1 <0>        -0.1048
     17 C11        -2.9130   -6.1050    1.2652 C.3       1 <0>        -0.2057
     18 H1         -2.0962   -5.8499    1.9403 H         1 <0>         0.1048
     19 C12        -4.1207   -6.8814    1.7938 C.3       1 <0>        -0.1209
     20 C13        -2.2850   -8.7155    1.3048 C.3       1 <0>         0.1783
     21 O1         -2.7487   -9.9369    0.7259 O.3       1 <0>        -0.7198
     22 P1         -2.0626  -11.3632    1.0211 P.3       1 <0>         2.1509
     23 O2         -0.5339  -11.2865    0.6868 O.2       1 <0>        -1.2076
     24 O3         -2.2488  -11.7293    2.5330 O.3       1 <0>        -1.2064
     25 O4         -2.7374  -12.4616    0.1308 O.3       1 <0>        -1.1628
     26 O5         -4.9028   -7.4753   -0.8889 O.3       1 <0>        -0.7442
     27 P2         -5.6821   -8.5576   -1.7908 P.3       1 <0>         2.1170
     28 O6         -5.0500   -8.5955   -3.2238 O.2       1 <0>        -1.1981
     29 O7         -5.5615   -9.9726   -1.1293 O.3       1 <0>        -1.1501
     30 O8         -7.1932   -8.1579   -1.8970 O.3       1 <0>        -1.1847
     31 H2          1.0048    1.8381    0.0023 H         1 <0>         0.0677
     32 H3         -0.5450    1.8219   -0.8730 H         1 <0>         0.0569
     33 H4         -0.5280    1.8123    0.9069 H         1 <0>         0.0565
     34 H5          0.8486   -0.4776   -0.0086 H         1 <0>         0.4195
     35 H6         -0.2402   -5.1846   -0.0043 H         1 <0>         0.2286
     36 H7         -4.1218   -4.8282   -0.0206 H         1 <0>         0.1210
     37 H8         -3.3400   -5.8167   -2.0744 H         1 <0>         0.0814
     38 H9         -1.7772   -6.3057   -1.3401 H         1 <0>         0.0734
     39 H10        -3.0450   -8.3527   -1.2080 H         1 <0>         0.0819
     40 H11        -5.1038   -6.5999    1.4163 H         1 <0>         0.1046
     41 H12        -4.0928   -7.2075    2.8335 H         1 <0>         0.0922
     42 H13        -1.2506   -8.5424    1.0080 H         1 <0>         0.0266
     43 H14        -2.3450   -8.7826    2.3911 H         1 <0>         0.0230
@<TRIPOS>BOND
     1    1    2 1
     2    1   31 1
     3    1   32 1
     4    1   33 1
     5    2    3 1
     6    2   34 1
     7    3    8 ar
     8    3    4 ar
     9    4   12 1
    10    4    5 ar
    11    5    6 ar
    12    5   10 1
    13    6    7 ar
    14    7    8 ar
    15    7    9 1
    16   10   11 1
    17   10   13 1
    18   11   12 2
    19   11   35 1
    20   13   17 1
    21   13   14 1
    22   13   36 1
    23   14   15 1
    24   14   37 1
    25   14   38 1
    26   15   16 1
    27   15   26 1
    28   15   39 1
    29   16   19 1
    30   16   17 1
    31   16   20 1
    32   17   18 1
    33   17   19 1
    34   19   40 1
    35   19   41 1
    36   20   21 1
    37   20   42 1
    38   20   43 1
    39   21   22 1
    40   22   23 2
    41   22   24 1
    42   22   25 1
    43   26   27 1
    44   27   28 2
    45   27   29 1
    46   27   30 1
@<TRIPOS>MOLECULE
ZINC13492626
   44    47     0     0     0
SMALL
USER_CHARGES

@<TRIPOS>ATOM
      1 C1         -0.0178    1.4608    0.0101 C.3       1 <0>         0.1001
      2 N1          0.0021   -0.0041    0.0020 N.pl3     1 <0>        -0.7030
      3 C2          0.6007   -0.6822   -1.0452 C.ar      1 <0>         0.5108
      4 C3          0.6238   -2.0872   -1.0721 C.ar      1 <0>        -0.1009
      5 C4          1.2459   -2.7201   -2.1611 C.ar      1 <0>         0.3070
      6 N2          1.7860   -1.9742   -3.1198 N.ar      1 <0>        -0.5224
      7 C5          1.7404   -0.6593   -3.0532 C.ar      1 <0>         0.4149
      8 N3          1.1619   -0.0199   -2.0512 N.ar      1 <0>        -0.5812
      9 Cl1         2.4615    0.2680   -4.3315 Cl        1 <0>         0.0174
     10 N4          1.1257   -4.0678   -1.9346 N.pl3     1 <0>        -0.4385
     11 C6          0.4579   -4.2263   -0.7566 C.2       1 <0>         0.2739
     12 N5          0.1644   -3.0632   -0.2522 N.2       1 <0>        -0.4778
     13 C7          1.6235   -5.1400   -2.7999 C.3       1 <0>         0.1643
     14 C8          2.5388   -6.1007   -2.0008 C.3       1 <0>        -0.1400
     15 C9          2.4616   -7.4103   -2.8242 C.3       1 <0>         0.2010
     16 C10         0.9927   -7.4777   -3.2909 C.3       1 <0>        -0.1242
     17 C11         0.4599   -6.0343   -3.2754 C.3       1 <0>        -0.1892
     18 H1         -0.5370   -5.8021   -2.9007 H         1 <0>         0.1100
     19 C12         0.6177   -6.7820   -4.6009 C.3       1 <0>        -0.1188
     20 C13         0.1524   -8.6599   -2.8037 C.3       1 <0>         0.1873
     21 O1          0.9045   -9.8672   -2.9401 O.3       1 <0>        -0.7264
     22 P1          0.3282  -11.3113   -2.5222 P.3       1 <0>         2.2393
     23 O2         -1.0085  -11.5639   -3.2545 O.2       1 <0>        -1.1303
     24 O3          1.3885  -12.4514   -2.9321 O.3       1 <0>        -0.8764
     25 O4          0.0944  -11.3503   -0.9955 O.3       1 <0>        -1.1268
     26 O5          3.3411   -7.3467   -3.9487 O.3       1 <0>        -0.7417
     27 P2          4.5285   -8.4059   -4.1941 P.3       1 <0>         2.1234
     28 O6          5.4543   -8.4546   -2.9312 O.2       1 <0>        -1.1949
     29 O7          3.9174   -9.8258   -4.4487 O.3       1 <0>        -1.1661
     30 O8          5.3694   -7.9680   -5.4414 O.3       1 <0>        -1.1778
     31 H2          1.0048    1.8381    0.0023 H         1 <0>         0.0589
     32 H3         -0.5450    1.8219   -0.8730 H         1 <0>         0.0584
     33 H4         -0.5280    1.8123    0.9069 H         1 <0>         0.0700
     34 H5         -0.4044   -0.4986    0.7308 H         1 <0>         0.4199
     35 H6          0.2093   -5.1769   -0.3082 H         1 <0>         0.2265
     36 H7          2.1577   -4.7230   -3.6537 H         1 <0>         0.1235
     37 H8          3.5610   -5.7236   -1.9697 H         1 <0>         0.0855
     38 H9          2.1517   -6.2543   -0.9935 H         1 <0>         0.0752
     39 H10         2.7028   -8.2693   -2.1981 H         1 <0>         0.0758
     40 H11         1.4315   -6.4746   -5.2577 H         1 <0>         0.1093
     41 H12        -0.2917   -7.1123   -5.1030 H         1 <0>         0.0956
     42 H13        -0.1102   -8.5118   -1.7562 H         1 <0>         0.0453
     43 H14        -0.7574   -8.7292   -3.4000 H         1 <0>         0.0465
     44 H15         1.1064  -13.3492   -2.7095 H         1 <0>         0.3968
@<TRIPOS>BOND
     1    1    2 1
     2    1   31 1
     3    1   32 1
     4    1   33 1
     5    2    3 1
     6    2   34 1
     7    3    8 ar
     8    3    4 ar
     9    4   12 1
    10    4    5 ar
    11    5    6 ar
    12    5   10 1
    13    6    7 ar
    14    7    8 ar
    15    7    9 1
    16   10   11 1
    17   10   13 1
    18   11   12 2
    19   11   35 1
    20   13   17 1
    21   13   14 1
    22   13   36 1
    23   14   15 1
    24   14   37 1
    25   14   38 1
    26   15   16 1
    27   15   26 1
    28   15   39 1
    29   16   19 1
    30   16   17 1
    31   16   20 1
    32   17   18 1
    33   17   19 1
    34   19   40 1
    35   19   41 1
    36   20   21 1
    37   20   42 1
    38   20   43 1
    39   21   22 1
    40   22   23 2
    41   22   24 1
    42   22   25 1
    43   24   44 1
    44   26   27 1
    45   27   28 2
    46   27   29 1
    47   27   30 1
@<TRIPOS>MOLECULE
ZINC13492626
   44    47     0     0     0
SMALL
USER_CHARGES

@<TRIPOS>ATOM
      1 C1         -0.0178    1.4608    0.0101 C.3       1 <0>         0.0994
      2 N1          0.0021   -0.0041    0.0020 N.pl3     1 <0>        -0.7016
      3 C2          0.6205   -0.6933    1.0303 C.ar      1 <0>         0.5122
      4 C3          0.6541   -2.0984    1.0357 C.ar      1 <0>        -0.0998
      5 C4          1.2962   -2.7429    2.1061 C.ar      1 <0>         0.3055
      6 N2          1.8450   -2.0075    3.0679 N.ar      1 <0>        -0.5266
      7 C5          1.7895   -0.6920    3.0215 C.ar      1 <0>         0.4153
      8 N3          1.2009   -0.0419    2.0325 N.ar      1 <0>        -0.5814
      9 Cl1         2.5218    0.2213    4.3035 Cl        1 <0>         0.0160
     10 N4          1.1811   -4.0880    1.8619 N.pl3     1 <0>        -0.4410
     11 C6          0.4970   -4.2338    0.6915 C.2       1 <0>         0.2773
     12 N5          0.1888   -3.0654    0.2085 N.2       1 <0>        -0.4754
     13 C7          1.6984   -5.1693    2.7041 C.3       1 <0>         0.1664
     14 C8          0.5639   -6.1554    3.0778 C.3       1 <0>        -0.1410
     15 C9          1.3360   -7.4598    3.3964 C.3       1 <0>         0.2067
     16 C10         2.4752   -7.4887    2.3566 C.3       1 <0>        -0.1130
     17 C11         2.7056   -6.0324    1.9164 C.3       1 <0>        -0.1973
     18 H1          2.8756   -5.7765    0.8706 H         1 <0>         0.1133
     19 C12         3.7864   -6.7792    2.7008 C.3       1 <0>        -0.1202
     20 C13         2.4916   -8.6510    1.3619 C.3       1 <0>         0.1726
     21 O1          2.2527   -9.8764    2.0571 O.3       1 <0>        -0.7261
     22 P1          2.2013  -11.3070    1.3203 P.3       1 <0>         2.1424
     23 O2          1.1461  -11.2609    0.1633 O.2       1 <0>        -1.2014
     24 O3          3.6126  -11.6399    0.7271 O.3       1 <0>        -1.2011
     25 O4          1.7953  -12.4123    2.3537 O.3       1 <0>        -1.1601
     26 O5          1.8693   -7.4143    4.7214 O.3       1 <0>        -0.7459
     27 P2          1.5050   -8.5022    5.8510 P.3       1 <0>         2.1695
     28 O6          1.8171   -9.9194    5.3209 O.2       1 <0>        -1.0546
     29 O7          2.3810   -8.2183    7.1717 O.3       1 <0>        -0.9008
     30 O8          0.0028   -8.4012    6.1978 O.3       1 <0>        -1.1092
     31 H2          1.0048    1.8381    0.0023 H         1 <0>         0.0589
     32 H3         -0.5450    1.8219   -0.8730 H         1 <0>         0.0711
     33 H4         -0.5280    1.8123    0.9069 H         1 <0>         0.0591
     34 H5         -0.4183   -0.4908   -0.7241 H         1 <0>         0.4210
     35 H6          0.2477   -5.1793    0.2331 H         1 <0>         0.2293
     36 H7          2.1644   -4.7628    3.6017 H         1 <0>         0.1197
     37 H8          0.0203   -5.8043    3.9548 H         1 <0>         0.0861
     38 H9         -0.1126   -6.3028    2.2360 H         1 <0>         0.0873
     39 H10         0.6867   -8.3268    3.2751 H         1 <0>         0.0970
     40 H11         3.9437   -6.4900    3.7399 H         1 <0>         0.1003
     41 H12         4.6808   -7.0848    2.1579 H         1 <0>         0.0994
     42 H13         1.7134   -8.5001    0.6138 H         1 <0>         0.0339
     43 H14         3.4638   -8.6954    0.8709 H         1 <0>         0.0308
     44 H15         2.2130   -8.8371    7.8956 H         1 <0>         0.4058
@<TRIPOS>BOND
     1    1    2 1
     2    1   31 1
     3    1   32 1
     4    1   33 1
     5    2    3 1
     6    2   34 1
     7    3    8 ar
     8    3    4 ar
     9    4   12 1
    10    4    5 ar
    11    5    6 ar
    12    5   10 1
    13    6    7 ar
    14    7    8 ar
    15    7    9 1
    16   10   11 1
    17   10   13 1
    18   11   12 2
    19   11   35 1
    20   13   17 1
    21   13   14 1
    22   13   36 1
    23   14   15 1
    24   14   37 1
    25   14   38 1
    26   15   16 1
    27   15   26 1
    28   15   39 1
    29   16   19 1
    30   16   17 1
    31   16   20 1
    32   17   18 1
    33   17   19 1
    34   19   40 1
    35   19   41 1
    36   20   21 1
    37   20   42 1
    38   20   43 1
    39   21   22 1
    40   22   23 2
    41   22   24 1
    42   22   25 1
    43   26   27 1
    44   27   28 2
    45   27   29 1
    46   27   30 1
    47   29   44 1
@<TRIPOS>MOLECULE
ZINC53227588
   43    45     0     0     0
SMALL
USER_CHARGES

@<TRIPOS>ATOM
      1 C1         -0.0225    1.8097    0.0120 C.3       1 <0>        -0.1410
      2 S1          0.0021   -0.0041    0.0020 S.3       1 <0>         0.0003
      3 C2         -1.7016   -0.4536    0.0159 C.ar      1 <0>         0.3516
      4 N1         -2.6181    0.5070    0.0244 N.ar      1 <0>        -0.6003
      5 C3         -3.9143    0.2188    0.0349 C.ar      1 <0>         0.5161
      6 C4         -4.3029   -1.1326    0.0370 C.ar      1 <0>        -0.1056
      7 C5         -3.2987   -2.1144    0.0278 C.ar      1 <0>         0.3178
      8 N2         -2.0240   -1.7373    0.0121 N.ar      1 <0>        -0.5161
      9 N3         -3.9497   -3.3221    0.0322 N.pl3     1 <0>        -0.4615
     10 C6         -5.2895   -3.0642    0.0436 C.2       1 <0>         0.2861
     11 N4         -5.4943   -1.7795    0.0464 N.2       1 <0>        -0.4692
     12 C7         -3.3216   -4.6456    0.0251 C.3       1 <0>         0.3040
     13 H1         -2.4147   -4.6311   -0.5795 H         1 <0>         0.1214
     14 C8         -2.9994   -5.0957    1.4673 C.3       1 <0>         0.0378
     15 H2         -3.6502   -4.5891    2.1799 H         1 <0>         0.0803
     16 C9         -3.2839   -6.6143    1.4590 C.3       1 <0>         0.0478
     17 H3         -4.0754   -6.8585    2.1675 H         1 <0>         0.0928
     18 C10        -3.7444   -6.9021    0.0127 C.3       1 <0>         0.0873
     19 H4         -2.9026   -7.2356   -0.5942 H         1 <0>         0.1040
     20 O1         -4.2442   -5.6373   -0.4762 O.3       1 <0>        -0.3324
     21 C11        -4.8544   -7.9551    0.0067 C.3       1 <0>         0.1426
     22 O2         -5.1845   -8.2915   -1.3423 O.3       1 <0>        -0.7599
     23 P1         -6.3157   -9.3712   -1.7251 P.3       1 <0>         2.2797
     24 O3         -6.0076  -10.7115   -1.0211 O.2       1 <0>        -1.1149
     25 O4         -7.6974   -8.8541   -1.2662 O.3       1 <0>        -1.1261
     26 O5         -6.3283   -9.5930   -3.3197 O.3       1 <0>        -1.0898
     27 P2         -6.9669  -10.7089   -4.2887 P.3       1 <0>         2.2102
     28 O6         -6.7985  -12.1240   -3.6377 O.2       1 <0>        -1.1918
     29 O7         -8.4901  -10.4085   -4.4984 O.3       1 <0>        -1.2029
     30 O8         -6.2335  -10.6803   -5.6728 O.3       1 <0>        -1.2031
     31 O9         -2.0963   -7.3480    1.7646 O.3       1 <0>        -0.5302
     32 O10        -1.6274   -4.8423    1.7762 O.3       1 <0>        -0.5298
     33 N5         -4.8623    1.2266    0.0442 N.pl3     1 <0>        -0.8206
     34 H5          1.0001    2.1870    0.0043 H         1 <0>         0.1045
     35 H6         -0.5497    2.1708   -0.8711 H         1 <0>         0.0863
     36 H7         -0.5327    2.1613    0.9088 H         1 <0>         0.0851
     37 H8         -6.0653   -3.8156    0.0489 H         1 <0>         0.2342
     38 H9         -4.5114   -8.8475    0.5302 H         1 <0>         0.0758
     39 H10        -5.7363   -7.5562    0.5079 H         1 <0>         0.0569
     40 H11        -1.7316   -7.1590    2.6400 H         1 <0>         0.3715
     41 H12        -1.3704   -5.1060    2.6703 H         1 <0>         0.3762
     42 H13        -4.5827    2.1554    0.0430 H         1 <0>         0.4050
     43 H14        -5.8064    1.0043    0.0519 H         1 <0>         0.4200
@<TRIPOS>BOND
     1    1    2 1
     2    1   34 1
     3    1   35 1
     4    1   36 1
     5    2    3 1
     6    3    8 ar
     7    3    4 ar
     8    4    5 ar
     9    5    6 ar
    10    5   33 1
    11    6   11 1
    12    6    7 ar
    13    7    8 ar
    14    7    9 1
    15    9   10 1
    16    9   12 1
    17   10   11 2
    18   10   37 1
    19   12   13 1
    20   12   20 1
    21   12   14 1
    22   14   15 1
    23   14   16 1
    24   14   32 1
    25   16   17 1
    26   16   18 1
    27   16   31 1
    28   18   19 1
    29   18   20 1
    30   18   21 1
    31   21   22 1
    32   21   38 1
    33   21   39 1
    34   22   23 1
    35   23   24 2
    36   23   25 1
    37   23   26 1
    38   26   27 1
    39   27   28 2
    40   27   29 1
    41   27   30 1
    42   31   40 1
    43   32   41 1
    44   33   42 1
    45   33   43 1
@<TRIPOS>MOLECULE
ZINC04663425
   56    59     0     0     0
SMALL
USER_CHARGES
(4-anilino-2-ethyl-3-methyl-3,4-dihydro-2H-quinolin-1-yl)-(4-nitrophenyl)-methanone
@<TRIPOS>ATOM
      1 C1         -0.5140    0.4295    2.0968 C.3       1 <0>        -0.1518
      2 C2         -0.7893   -0.4197    0.8542 C.3       1 <0>        -0.1474
      3 C3          0.0887    0.0666   -0.3006 C.3       1 <0>         0.1529
      4 H1         -0.1155   -0.5231   -1.1942 H         1 <0>         0.0884
      5 C4          1.5690   -0.0643    0.0814 C.3       1 <0>        -0.1078
      6 H2          1.7846    0.5801    0.9336 H         1 <0>         0.0891
      7 C5          2.4259    0.3599   -1.1112 C.3       1 <0>         0.2024
      8 H3          2.3232   -0.3766   -1.9081 H         1 <0>         0.0939
      9 C6          1.9896    1.7081   -1.6210 C.ar      1 <0>        -0.1330
     10 C7          2.8721    2.4530   -2.3856 C.ar      1 <0>        -0.0778
     11 C8          2.5002    3.6917   -2.8706 C.ar      1 <0>        -0.1364
     12 C9          1.2425    4.1969   -2.5949 C.ar      1 <0>        -0.0837
     13 C10         0.3575    3.4616   -1.8324 C.ar      1 <0>        -0.1843
     14 C11         0.7300    2.2146   -1.3427 C.ar      1 <0>         0.1615
     15 N1         -0.1819    1.4857   -0.5682 N.am      1 <0>        -0.5502
     16 C12        -1.2919    2.0751   -0.0813 C.2       1 <0>         0.5697
     17 O1         -2.2220    1.3942    0.3050 O.2       1 <0>        -0.4824
     18 C13        -1.3784    3.5493   -0.0171 C.ar      1 <0>        -0.1006
     19 C14        -0.2265    4.3108    0.1868 C.ar      1 <0>        -0.0551
     20 C15        -0.3134    5.6866    0.2400 C.ar      1 <0>        -0.0769
     21 C16        -1.5405    6.3111    0.1036 C.ar      1 <0>        -0.0149
     22 C17        -2.6869    5.5619   -0.0934 C.ar      1 <0>        -0.0630
     23 C18        -2.6132    4.1857   -0.1543 C.ar      1 <0>        -0.0629
     24 N2         -1.6271    7.7874    0.1684 N.pl3     1 <0>         0.0223
     25 O2         -2.7059    8.3399    0.0483 O.2       1 <0>        -0.1499
     26 O3         -0.6197    8.4495    0.3418 O.3       1 <0>        -0.1493
     27 N3          3.8293    0.4314   -0.6970 N.pl3     1 <0>        -0.7368
     28 C19         4.8454    0.2785   -1.6432 C.ar      1 <0>         0.2144
     29 C20         4.5269    0.0529   -2.9763 C.ar      1 <0>        -0.2004
     30 C21         5.5340   -0.0931   -3.9100 C.ar      1 <0>        -0.0724
     31 C22         6.8582   -0.0253   -3.5174 C.ar      1 <0>        -0.1759
     32 C23         7.1787    0.1940   -2.1902 C.ar      1 <0>        -0.0710
     33 C24         6.1766    0.3461   -1.2522 C.ar      1 <0>        -0.1934
     34 C25         1.8776   -1.5176    0.4466 C.3       1 <0>        -0.1459
     35 H4         -1.0719    0.0274    2.9425 H         1 <0>         0.0600
     36 H5          0.5522    0.4088    2.3221 H         1 <0>         0.0517
     37 H6         -0.8263    1.4572    1.9111 H         1 <0>         0.0487
     38 H7         -1.8392   -0.3271    0.5762 H         1 <0>         0.1144
     39 H8         -0.5611   -1.4635    1.0696 H         1 <0>         0.0789
     40 H9          3.8554    2.0635   -2.6039 H         1 <0>         0.1409
     41 H10         3.1932    4.2673   -3.4662 H         1 <0>         0.1267
     42 H11         0.9532    5.1651   -2.9759 H         1 <0>         0.1269
     43 H12        -0.6248    3.8549   -1.6163 H         1 <0>         0.1425
     44 H13         0.7313    3.8243    0.2982 H         1 <0>         0.1547
     45 H14         0.5777    6.2773    0.3932 H         1 <0>         0.1615
     46 H15        -3.6416    6.0556   -0.1994 H         1 <0>         0.1640
     47 H16        -3.5088    3.6020   -0.3081 H         1 <0>         0.1606
     48 H17         4.0530    0.5850    0.2343 H         1 <0>         0.4012
     49 H18         3.4929   -0.0046   -3.2829 H         1 <0>         0.1205
     50 H19         5.2871   -0.2645   -4.9473 H         1 <0>         0.1205
     51 H20         7.6438   -0.1443   -4.2488 H         1 <0>         0.1184
     52 H21         8.2139    0.2467   -1.8869 H         1 <0>         0.1210
     53 H22         6.4276    0.5177   -0.2158 H         1 <0>         0.1191
     54 H23         1.6657   -2.1599   -0.4082 H         1 <0>         0.0617
     55 H24         2.9295   -1.6087    0.7176 H         1 <0>         0.0663
     56 H25         1.2575   -1.8197    1.2906 H         1 <0>         0.0684
@<TRIPOS>BOND
     1    1    2 1
     2    1   35 1
     3    1   36 1
     4    1   37 1
     5    2    3 1
     6    2   38 1
     7    2   39 1
     8    3    4 1
     9    3   15 1
    10    3    5 1
    11    5    6 1
    12    5    7 1
    13    5   34 1
    14    7    8 1
    15    7    9 1
    16    7   27 1
    17    9   14 ar
    18    9   10 ar
    19   10   11 ar
    20   10   40 1
    21   11   12 ar
    22   11   41 1
    23   12   13 ar
    24   12   42 1
    25   13   14 ar
    26   13   43 1
    27   14   15 1
    28   15   16 am
    29   16   17 2
    30   16   18 1
    31   18   23 ar
    32   18   19 ar
    33   19   20 ar
    34   19   44 1
    35   20   21 ar
    36   20   45 1
    37   21   22 ar
    38   21   24 1
    39   22   23 ar
    40   22   46 1
    41   23   47 1
    42   24   25 2
    43   24   26 1
    44   27   28 1
    45   27   48 1
    46   28   33 ar
    47   28   29 ar
    48   29   30 ar
    49   29   49 1
    50   30   31 ar
    51   30   50 1
    52   31   32 ar
    53   31   51 1
    54   32   33 ar
    55   32   52 1
    56   33   53 1
    57   34   54 1
    58   34   55 1
    59   34   56 1
@<TRIPOS>MOLECULE
ZINC09272405
   54    57     0     0     0
SMALL
USER_CHARGES
(4-anilino-2-ethyl-3-methyl-3,4-dihydro-2H-quinolin-1-yl)-(4-bromophenyl)-methanone
@<TRIPOS>ATOM
      1 C1          3.5661    3.6266    1.6593 C.3       1 <0>        -0.1372
      2 C2          4.5498    3.5035    0.4939 C.3       1 <0>        -0.1314
      3 C3          3.7818    3.5490   -0.8286 C.3       1 <0>         0.1503
      4 H1          2.8947    2.9191   -0.7631 H         1 <0>         0.0856
      5 C4          4.6832    3.0601   -1.9700 C.3       1 <0>        -0.1071
      6 H2          5.5346    3.7324   -2.0764 H         1 <0>         0.0857
      7 C5          3.8749    3.0481   -3.2672 C.3       1 <0>         0.2036
      8 H3          3.1192    2.2644   -3.2129 H         1 <0>         0.0924
      9 C6          3.1986    4.3768   -3.4795 C.ar      1 <0>        -0.1396
     10 C7          2.7875    4.7230   -4.7560 C.ar      1 <0>        -0.0780
     11 C8          2.1658    5.9353   -4.9832 C.ar      1 <0>        -0.1448
     12 C9          1.9383    6.8070   -3.9337 C.ar      1 <0>        -0.0799
     13 C10         2.3451    6.4698   -2.6586 C.ar      1 <0>        -0.2122
     14 C11         2.9783    5.2533   -2.4289 C.ar      1 <0>         0.1714
     15 N1          3.3886    4.9326   -1.1283 N.am      1 <0>        -0.5512
     16 C12         3.4226    5.8778   -0.1680 C.2       1 <0>         0.5628
     17 O1          4.1172    5.7189    0.8169 O.2       1 <0>        -0.4759
     18 C13         2.6155    7.1071   -0.3125 C.ar      1 <0>        -0.0919
     19 C14         1.2236    7.0466   -0.2215 C.ar      1 <0>        -0.0903
     20 C15         0.4763    8.1983   -0.3514 C.ar      1 <0>        -0.0854
     21 C16         1.1029    9.4112   -0.5831 C.ar      1 <0>        -0.0800
     22 C17         2.4827    9.4769   -0.6801 C.ar      1 <0>        -0.0831
     23 C18         3.2414    8.3331   -0.5462 C.ar      1 <0>        -0.0874
     24 Br1         0.0701   10.9844   -0.7685 Br        1 <0>        -0.0360
     25 N2          4.7724    2.7770   -4.3929 N.pl3     1 <0>        -0.7363
     26 C19         4.2740    2.1889   -5.5576 C.ar      1 <0>         0.2162
     27 C20         2.9287    1.8550   -5.6480 C.ar      1 <0>        -0.2001
     28 C21         2.4382    1.2779   -6.8029 C.ar      1 <0>        -0.0723
     29 C22         3.2868    1.0227   -7.8645 C.ar      1 <0>        -0.1776
     30 C23         4.6277    1.3491   -7.7758 C.ar      1 <0>        -0.0713
     31 C24         5.1237    1.9312   -6.6259 C.ar      1 <0>        -0.1947
     32 C25         5.1815    1.6464   -1.6634 C.3       1 <0>        -0.1464
     33 H4          2.8658    4.4376    1.4595 H         1 <0>         0.0542
     34 H5          3.0170    2.6917    1.7716 H         1 <0>         0.0410
     35 H6          4.1148    3.8382    2.5771 H         1 <0>         0.0590
     36 H7          5.0866    2.5579    0.5699 H         1 <0>         0.0723
     37 H8          5.2608    4.3289    0.5298 H         1 <0>         0.0987
     38 H9          2.9578    4.0439   -5.5783 H         1 <0>         0.1365
     39 H10         1.8529    6.2015   -5.9820 H         1 <0>         0.1226
     40 H11         1.4470    7.7520   -4.1124 H         1 <0>         0.1240
     41 H12         2.1719    7.1514   -1.8389 H         1 <0>         0.1702
     42 H13         0.7335    6.1004   -0.0453 H         1 <0>         0.1398
     43 H14        -0.6002    8.1535   -0.2764 H         1 <0>         0.1442
     44 H15         2.9657   10.4259   -0.8605 H         1 <0>         0.1443
     45 H16         4.3175    8.3855   -0.6223 H         1 <0>         0.1411
     46 H17         5.7129    3.0061   -4.3293 H         1 <0>         0.4009
     47 H18         2.2662    2.0499   -4.8176 H         1 <0>         0.1205
     48 H19         1.3915    1.0218   -6.8755 H         1 <0>         0.1201
     49 H20         2.9016    0.5673   -8.7648 H         1 <0>         0.1178
     50 H21         5.2877    1.1488   -8.6069 H         1 <0>         0.1204
     51 H22         6.1710    2.1861   -6.5574 H         1 <0>         0.1187
     52 H23         5.8132    1.2986   -2.4808 H         1 <0>         0.0658
     53 H24         5.7576    1.6569   -0.7381 H         1 <0>         0.0687
     54 H25         4.3287    0.9766   -1.5528 H         1 <0>         0.0609
@<TRIPOS>BOND
     1    1    2 1
     2    1   33 1
     3    1   34 1
     4    1   35 1
     5    2    3 1
     6    2   36 1
     7    2   37 1
     8    3    4 1
     9    3   15 1
    10    3    5 1
    11    5    6 1
    12    5    7 1
    13    5   32 1
    14    7    8 1
    15    7    9 1
    16    7   25 1
    17    9   14 ar
    18    9   10 ar
    19   10   11 ar
    20   10   38 1
    21   11   12 ar
    22   11   39 1
    23   12   13 ar
    24   12   40 1
    25   13   14 ar
    26   13   41 1
    27   14   15 1
    28   15   16 am
    29   16   17 2
    30   16   18 1
    31   18   23 ar
    32   18   19 ar
    33   19   20 ar
    34   19   42 1
    35   20   21 ar
    36   20   43 1
    37   21   22 ar
    38   21   24 1
    39   22   23 ar
    40   22   44 1
    41   23   45 1
    42   25   26 1
    43   25   46 1
    44   26   31 ar
    45   26   27 ar
    46   27   28 ar
    47   27   47 1
    48   28   29 ar
    49   28   48 1
    50   29   30 ar
    51   29   49 1
    52   30   31 ar
    53   30   50 1
    54   31   51 1
    55   32   52 1
    56   32   53 1
    57   32   54 1
@<TRIPOS>MOLECULE
ZINC04663284
   54    57     0     0     0
SMALL
USER_CHARGES
(4-anilino-2-ethyl-3-methyl-3,4-dihydro-2H-quinolin-1-yl)-(4-chlorophenyl)-methanone
@<TRIPOS>ATOM
      1 C1          3.5659    3.6273    1.6596 C.3       1 <0>        -0.1371
      2 C2          4.5495    3.5039    0.4942 C.3       1 <0>        -0.1313
      3 C3          3.7817    3.5509   -0.8284 C.3       1 <0>         0.1503
      4 H1          2.8938    2.9221   -0.7631 H         1 <0>         0.0854
      5 C4          4.6825    3.0613   -1.9698 C.3       1 <0>        -0.1071
      6 H2          5.5347    3.7325   -2.0760 H         1 <0>         0.0856
      7 C5          3.8742    3.0508   -3.2671 C.3       1 <0>         0.2037
      8 H3          3.1176    2.2681   -3.2132 H         1 <0>         0.0924
      9 C6          3.1997    4.3805   -3.4789 C.ar      1 <0>        -0.1398
     10 C7          2.7890    4.7277   -4.7553 C.ar      1 <0>        -0.0782
     11 C8          2.1688    5.9409   -4.9821 C.ar      1 <0>        -0.1451
     12 C9          1.9422    6.8123   -3.9322 C.ar      1 <0>        -0.0802
     13 C10         2.3485    6.4741   -2.6571 C.ar      1 <0>        -0.2122
     14 C11         2.9802    5.2568   -2.4279 C.ar      1 <0>         0.1717
     15 N1          3.3902    4.9351   -1.1275 N.am      1 <0>        -0.5513
     16 C12         3.4246    5.8796   -0.1667 C.2       1 <0>         0.5639
     17 O1          4.1188    5.7196    0.8185 O.2       1 <0>        -0.4768
     18 C13         2.6186    7.1096   -0.3106 C.ar      1 <0>        -0.1044
     19 C14         1.2265    7.0499   -0.2205 C.ar      1 <0>        -0.0829
     20 C15         0.4800    8.2020   -0.3504 C.ar      1 <0>        -0.1050
     21 C16         1.1078    9.4150   -0.5810 C.ar      1 <0>        -0.0229
     22 C17         2.4881    9.4797   -0.6771 C.ar      1 <0>        -0.1032
     23 C18         3.2457    8.3353   -0.5432 C.ar      1 <0>        -0.0800
     24 Cl1         0.1608   10.8600   -0.7508 Cl        1 <0>        -0.0559
     25 N2          4.7715    2.7791   -4.3929 N.pl3     1 <0>        -0.7363
     26 C19         4.2724    2.1920   -5.5578 C.ar      1 <0>         0.2162
     27 C20         2.9267    1.8599   -5.6485 C.ar      1 <0>        -0.2001
     28 C21         2.4355    1.2838   -6.8036 C.ar      1 <0>        -0.0723
     29 C22         3.2839    1.0281   -7.8653 C.ar      1 <0>        -0.1777
     30 C23         4.6252    1.3526   -7.7764 C.ar      1 <0>        -0.0713
     31 C24         5.1219    1.9337   -6.6262 C.ar      1 <0>        -0.1948
     32 C25         5.1790    1.6469   -1.6638 C.3       1 <0>        -0.1464
     33 H4          2.8659    4.4386    1.4598 H         1 <0>         0.0543
     34 H5          3.0165    2.6927    1.7719 H         1 <0>         0.0408
     35 H6          4.1147    3.8388    2.5774 H         1 <0>         0.0589
     36 H7          5.0854    2.5577    0.5697 H         1 <0>         0.0721
     37 H8          5.2614    4.3285    0.5306 H         1 <0>         0.0987
     38 H9          2.9585    4.0487   -5.5779 H         1 <0>         0.1364
     39 H10         1.8564    6.2078   -5.9808 H         1 <0>         0.1225
     40 H11         1.4519    7.7579   -4.1105 H         1 <0>         0.1240
     41 H12         2.1760    7.1555   -1.8372 H         1 <0>         0.1707
     42 H13         0.7357    6.1040   -0.0452 H         1 <0>         0.1401
     43 H14        -0.5965    8.1579   -0.2764 H         1 <0>         0.1449
     44 H15         2.9720   10.4283   -0.8570 H         1 <0>         0.1450
     45 H16         4.3218    8.3869   -0.6183 H         1 <0>         0.1413
     46 H17         5.7122    3.0069   -4.3292 H         1 <0>         0.4009
     47 H18         2.2644    2.0553   -4.8180 H         1 <0>         0.1205
     48 H19         1.3885    1.0291   -6.8763 H         1 <0>         0.1201
     49 H20         2.8981    0.5734   -8.7658 H         1 <0>         0.1178
     50 H21         5.2850    1.1519   -8.6075 H         1 <0>         0.1204
     51 H22         6.1694    2.1873   -6.5575 H         1 <0>         0.1187
     52 H23         5.8103    1.2986   -2.4813 H         1 <0>         0.0658
     53 H24         5.7551    1.6563   -0.7385 H         1 <0>         0.0687
     54 H25         4.3254    0.9781   -1.5536 H         1 <0>         0.0608
@<TRIPOS>BOND
     1    1    2 1
     2    1   33 1
     3    1   34 1
     4    1   35 1
     5    2    3 1
     6    2   36 1
     7    2   37 1
     8    3    4 1
     9    3   15 1
    10    3    5 1
    11    5    6 1
    12    5    7 1
    13    5   32 1
    14    7    8 1
    15    7    9 1
    16    7   25 1
    17    9   14 ar
    18    9   10 ar
    19   10   11 ar
    20   10   38 1
    21   11   12 ar
    22   11   39 1
    23   12   13 ar
    24   12   40 1
    25   13   14 ar
    26   13   41 1
    27   14   15 1
    28   15   16 am
    29   16   17 2
    30   16   18 1
    31   18   23 ar
    32   18   19 ar
    33   19   20 ar
    34   19   42 1
    35   20   21 ar
    36   20   43 1
    37   21   22 ar
    38   21   24 1
    39   22   23 ar
    40   22   44 1
    41   23   45 1
    42   25   26 1
    43   25   46 1
    44   26   31 ar
    45   26   27 ar
    46   27   28 ar
    47   27   47 1
    48   28   29 ar
    49   28   48 1
    50   29   30 ar
    51   29   49 1
    52   30   31 ar
    53   30   50 1
    54   31   51 1
    55   32   52 1
    56   32   53 1
    57   32   54 1
@<TRIPOS>MOLECULE
ZINC04561732
   58    61     0     0     0
SMALL
USER_CHARGES
(4-anilino-2-ethyl-3-methyl-3,4-dihydro-2H-quinolin-1-yl)-(4-methoxyphenyl)-methanone
@<TRIPOS>ATOM
      1 C1         -0.5119    0.4280    2.0952 C.3       1 <0>        -0.1508
      2 C2         -0.7889   -0.4203    0.8524 C.3       1 <0>        -0.1458
      3 C3          0.0880    0.0664   -0.3030 C.3       1 <0>         0.1536
      4 H1         -0.1174   -0.5227   -1.1969 H         1 <0>         0.0839
      5 C4          1.5687   -0.0653    0.0771 C.3       1 <0>        -0.1077
      6 H2          1.7855    0.5785    0.9296 H         1 <0>         0.0877
      7 C5          2.4244    0.3594   -1.1161 C.3       1 <0>         0.2034
      8 H3          2.3205   -0.3766   -1.9134 H         1 <0>         0.0916
      9 C6          1.9880    1.7080   -1.6246 C.ar      1 <0>        -0.1397
     10 C7          2.8699    2.4532   -2.3897 C.ar      1 <0>        -0.0817
     11 C8          2.4980    3.6923   -2.8734 C.ar      1 <0>        -0.1436
     12 C9          1.2406    4.1975   -2.5963 C.ar      1 <0>        -0.0865
     13 C10         0.3562    3.4621   -1.8333 C.ar      1 <0>        -0.1794
     14 C11         0.7289    2.2148   -1.3445 C.ar      1 <0>         0.1688
     15 N1         -0.1824    1.4858   -0.5694 N.am      1 <0>        -0.5561
     16 C12        -1.2917    2.0752   -0.0809 C.2       1 <0>         0.5786
     17 O1         -2.2215    1.3943    0.3068 O.2       1 <0>        -0.4993
     18 C13        -1.3778    3.5470   -0.0166 C.ar      1 <0>        -0.2018
     19 C14        -0.2237    4.3081    0.1876 C.ar      1 <0>        -0.0086
     20 C15        -0.3076    5.6815    0.2417 C.ar      1 <0>        -0.2276
     21 C16        -1.5396    6.3103    0.1050 C.ar      1 <0>         0.1655
     22 C17        -2.6906    5.5566   -0.0930 C.ar      1 <0>        -0.1699
     23 C18        -2.6145    4.1831   -0.1541 C.ar      1 <0>        -0.0171
     24 O2         -1.6189    7.6638    0.1646 O.3       1 <0>        -0.3105
     25 C19        -0.3976    8.3767    0.3702 C.3       1 <0>         0.0236
     26 N2          3.8283    0.4301   -0.7035 N.pl3     1 <0>        -0.7361
     27 C20         4.8432    0.2774   -1.6509 C.ar      1 <0>         0.2165
     28 C21         4.5232    0.0527   -2.9838 C.ar      1 <0>        -0.1998
     29 C22         5.5291   -0.0930   -3.9188 C.ar      1 <0>        -0.0724
     30 C23         6.8538   -0.0260   -3.5276 C.ar      1 <0>        -0.1777
     31 C24         7.1759    0.1923   -2.2006 C.ar      1 <0>        -0.0715
     32 C25         6.1749    0.3442   -1.2613 C.ar      1 <0>        -0.1951
     33 C26         1.8772   -1.5190    0.4411 C.3       1 <0>        -0.1453
     34 H4          0.5546    0.4068    2.3193 H         1 <0>         0.0488
     35 H5         -0.8241    1.4559    1.9105 H         1 <0>         0.0530
     36 H6         -1.0690    0.0256    2.9413 H         1 <0>         0.0573
     37 H7         -1.8391   -0.3273    0.5756 H         1 <0>         0.1148
     38 H8         -0.5608   -1.4644    1.0669 H         1 <0>         0.0745
     39 H9          3.8529    2.0633   -2.6093 H         1 <0>         0.1374
     40 H10         3.1907    4.2682   -3.4691 H         1 <0>         0.1222
     41 H11         0.9511    5.1660   -2.9767 H         1 <0>         0.1241
     42 H12        -0.6259    3.8555   -1.6162 H         1 <0>         0.1550
     43 H13         0.7333    3.8200    0.2986 H         1 <0>         0.1327
     44 H14         0.5845    6.2706    0.3951 H         1 <0>         0.1358
     45 H15        -3.6460    6.0490   -0.1987 H         1 <0>         0.1403
     46 H16        -3.5092    3.5983   -0.3083 H         1 <0>         0.1420
     47 H17         0.0489    8.0676    1.3153 H         1 <0>         0.0589
     48 H18         0.2918    8.1594   -0.4457 H         1 <0>         0.0596
     49 H19        -0.6020    9.4471    0.3978 H         1 <0>         0.1043
     50 H20         4.0531    0.5829    0.2277 H         1 <0>         0.4004
     51 H21         3.4888   -0.0041   -3.2893 H         1 <0>         0.1209
     52 H22         5.2810   -0.2636   -4.9559 H         1 <0>         0.1201
     53 H23         7.6386   -0.1447   -4.2600 H         1 <0>         0.1176
     54 H24         8.2115    0.2445   -1.8985 H         1 <0>         0.1202
     55 H25         6.4272    0.5150   -0.2252 H         1 <0>         0.1184
     56 H26         1.6641   -2.1607   -0.4139 H         1 <0>         0.0606
     57 H27         2.9293   -1.6106    0.7108 H         1 <0>         0.0645
     58 H28         1.2579   -1.8214    1.2856 H         1 <0>         0.0677
@<TRIPOS>BOND
     1    1    2 1
     2    1   34 1
     3    1   35 1
     4    1   36 1
     5    2    3 1
     6    2   37 1
     7    2   38 1
     8    3    4 1
     9    3   15 1
    10    3    5 1
    11    5    6 1
    12    5    7 1
    13    5   33 1
    14    7    8 1
    15    7    9 1
    16    7   26 1
    17    9   14 ar
    18    9   10 ar
    19   10   11 ar
    20   10   39 1
    21   11   12 ar
    22   11   40 1
    23   12   13 ar
    24   12   41 1
    25   13   14 ar
    26   13   42 1
    27   14   15 1
    28   15   16 am
    29   16   17 2
    30   16   18 1
    31   18   23 ar
    32   18   19 ar
    33   19   20 ar
    34   19   43 1
    35   20   21 ar
    36   20   44 1
    37   21   22 ar
    38   21   24 1
    39   22   23 ar
    40   22   45 1
    41   23   46 1
    42   24   25 1
    43   25   47 1
    44   25   48 1
    45   25   49 1
    46   26   27 1
    47   26   50 1
    48   27   32 ar
    49   27   28 ar
    50   28   29 ar
    51   28   51 1
    52   29   30 ar
    53   29   52 1
    54   30   31 ar
    55   30   53 1
    56   31   32 ar
    57   31   54 1
    58   32   55 1
    59   33   56 1
    60   33   57 1
    61   33   58 1
@<TRIPOS>MOLECULE
ZINC04475125
   43    45     0     0     0
SMALL
USER_CHARGES

@<TRIPOS>ATOM
      1 C1         -0.0164    1.3592    0.0095 C.2       1 <0>         0.2933
      2 N1          1.2005    1.8201    0.0004 N.2       1 <0>        -0.4687
      3 C2          2.0747    0.7850   -0.0135 C.ar      1 <0>        -0.0974
      4 C3          3.4758    0.6753   -0.0279 C.ar      1 <0>         0.5187
      5 N2          4.0162   -0.5385   -0.0400 N.ar      1 <0>        -0.5829
      6 C4          3.2613   -1.6237   -0.0386 C.ar      1 <0>         0.4181
      7 N3          1.9451   -1.5686   -0.0258 N.ar      1 <0>        -0.5217
      8 C5          1.3163   -0.3974   -0.0126 C.ar      1 <0>         0.3159
      9 N4          0.0021   -0.0041    0.0020 N.pl3     1 <0>        -0.4579
     10 C6         -1.1670   -0.8869    0.0084 C.3       1 <0>         0.3015
     11 H1         -0.9746   -1.7745   -0.5943 H         1 <0>         0.1237
     12 C7         -1.5302   -1.2878    1.4554 C.3       1 <0>         0.0378
     13 H2         -1.1596   -0.5452    2.1620 H         1 <0>         0.0808
     14 C8         -3.0750   -1.3163    1.4606 C.3       1 <0>         0.0484
     15 H3         -3.4681   -0.5878    2.1697 H         1 <0>         0.0936
     16 C9         -3.4624   -0.9293    0.0161 C.3       1 <0>         0.0856
     17 H4         -3.6240   -1.8235   -0.5860 H         1 <0>         0.1066
     18 O1         -2.3291   -0.1859   -0.4855 O.3       1 <0>        -0.3313
     19 C10        -4.7182   -0.0553    0.0175 C.3       1 <0>         0.1425
     20 O2         -5.1260    0.1947   -1.3291 O.3       1 <0>        -0.7597
     21 P1         -6.4155    1.0827   -1.7043 P.3       1 <0>         2.2896
     22 O3         -7.6597    0.5126   -0.9873 O.2       1 <0>        -1.1037
     23 O4         -6.1847    2.5422   -1.2530 O.3       1 <0>        -1.1153
     24 O5         -6.6490    1.0439   -3.2968 O.3       1 <0>        -1.0974
     25 P2         -7.8794    1.4398   -4.2567 P.3       1 <0>         2.3453
     26 O6         -9.2068    0.9974   -3.6015 O.2       1 <0>        -1.1157
     27 O7         -7.8949    2.9700   -4.4695 O.3       1 <0>        -1.1397
     28 O8         -7.7103    0.7021   -5.6778 O.3       1 <0>        -1.1049
     29 P3         -8.6970    0.4283   -6.9201 P.3       1 <0>         2.2212
     30 O9        -10.1205    0.0534   -6.3837 O.2       1 <0>        -1.1973
     31 O10        -8.7949    1.7184   -7.8035 O.3       1 <0>        -1.2115
     32 O11        -8.1359   -0.7535   -7.7821 O.3       1 <0>        -1.2131
     33 O12        -3.5506   -2.6266    1.7754 O.3       1 <0>        -0.5287
     34 O13        -1.0018   -2.5790    1.7649 O.3       1 <0>        -0.5301
     35 Cl1         4.0328   -3.1787   -0.0548 Cl        1 <0>         0.0203
     36 N5          4.2743    1.8056   -0.0299 N.pl3     1 <0>        -0.8164
     37 H5         -0.9091    1.9668    0.0254 H         1 <0>         0.2372
     38 H6         -5.5183   -0.5696    0.5499 H         1 <0>         0.0785
     39 H7         -4.5017    0.8911    0.5131 H         1 <0>         0.0585
     40 H8         -3.2842   -2.9421    2.6498 H         1 <0>         0.3708
     41 H9         -1.2003   -2.8805    2.6620 H         1 <0>         0.3761
     42 H10         3.8680    2.6864   -0.0214 H         1 <0>         0.4219
     43 H11         5.2402    1.7170   -0.0399 H         1 <0>         0.4075
@<TRIPOS>BOND
     1    1    9 1
     2    1    2 2
     3    1   37 1
     4    2    3 1
     5    3    8 ar
     6    3    4 ar
     7    4    5 ar
     8    4   36 1
     9    5    6 ar
    10    6    7 ar
    11    6   35 1
    12    7    8 ar
    13    8    9 1
    14    9   10 1
    15   10   11 1
    16   10   18 1
    17   10   12 1
    18   12   13 1
    19   12   14 1
    20   12   34 1
    21   14   15 1
    22   14   16 1
    23   14   33 1
    24   16   17 1
    25   16   18 1
    26   16   19 1
    27   19   20 1
    28   19   38 1
    29   19   39 1
    30   20   21 1
    31   21   22 2
    32   21   23 1
    33   21   24 1
    34   24   25 1
    35   25   26 2
    36   25   27 1
    37   25   28 1
    38   28   29 1
    39   29   30 2
    40   29   31 1
    41   29   32 1
    42   33   40 1
    43   34   41 1
    44   36   42 1
    45   36   43 1
@<TRIPOS>MOLECULE
ZINC04475125
   44    46     0     0     0
SMALL
USER_CHARGES

@<TRIPOS>ATOM
      1 C1         -0.0164    1.3592    0.0095 C.2       1 <0>         0.2897
      2 N1          1.2005    1.8201    0.0004 N.2       1 <0>        -0.4666
      3 C2          2.0747    0.7850   -0.0135 C.ar      1 <0>        -0.0987
      4 C3          3.4758    0.6753   -0.0279 C.ar      1 <0>         0.5199
      5 N2          4.0162   -0.5385   -0.0400 N.ar      1 <0>        -0.5819
      6 C4          3.2613   -1.6237   -0.0386 C.ar      1 <0>         0.4203
      7 N3          1.9451   -1.5686   -0.0258 N.ar      1 <0>        -0.5242
      8 C5          1.3163   -0.3974   -0.0126 C.ar      1 <0>         0.3169
      9 N4          0.0021   -0.0041    0.0020 N.pl3     1 <0>        -0.4598
     10 C6         -1.1670   -0.8869    0.0084 C.3       1 <0>         0.3035
     11 H1         -0.9746   -1.7745   -0.5943 H         1 <0>         0.1231
     12 C7         -1.5302   -1.2878    1.4554 C.3       1 <0>         0.0372
     13 H2         -1.1596   -0.5452    2.1620 H         1 <0>         0.0819
     14 C8         -3.0750   -1.3163    1.4606 C.3       1 <0>         0.0479
     15 H3         -3.4681   -0.5878    2.1697 H         1 <0>         0.0940
     16 C9         -3.4624   -0.9293    0.0161 C.3       1 <0>         0.0864
     17 H4         -3.6240   -1.8235   -0.5860 H         1 <0>         0.1050
     18 O1         -2.3291   -0.1859   -0.4855 O.3       1 <0>        -0.3339
     19 C10        -4.7182   -0.0553    0.0175 C.3       1 <0>         0.1425
     20 O2         -5.1260    0.1947   -1.3291 O.3       1 <0>        -0.7624
     21 P1         -6.4155    1.0827   -1.7043 P.3       1 <0>         2.2879
     22 O3         -7.6597    0.5126   -0.9873 O.2       1 <0>        -1.0987
     23 O4         -6.1847    2.5422   -1.2530 O.3       1 <0>        -1.1085
     24 O5         -6.6490    1.0439   -3.2968 O.3       1 <0>        -1.0976
     25 P2         -7.8794    1.4398   -4.2567 P.3       1 <0>         2.3536
     26 O6         -9.2068    0.9974   -3.6015 O.2       1 <0>        -1.1050
     27 O7         -7.8949    2.9700   -4.4695 O.3       1 <0>        -1.1150
     28 O8         -7.7103    0.7021   -5.6778 O.3       1 <0>        -1.0986
     29 P3         -8.6970    0.4283   -6.9201 P.3       1 <0>         2.2762
     30 O9         -9.4813    1.7182   -7.2490 O.2       1 <0>        -1.1170
     31 O10        -7.8330   -0.0165   -8.2038 O.3       1 <0>        -0.9091
     32 O11        -9.6888   -0.6976   -6.5517 O.3       1 <0>        -1.1166
     33 O12        -3.5506   -2.6266    1.7754 O.3       1 <0>        -0.5303
     34 O13        -1.0018   -2.5790    1.7649 O.3       1 <0>        -0.5300
     35 Cl1         4.0328   -3.1787   -0.0548 Cl        1 <0>         0.0231
     36 N5          4.2743    1.8056   -0.0299 N.pl3     1 <0>        -0.8151
     37 H5         -0.9091    1.9668    0.0254 H         1 <0>         0.2361
     38 H6         -5.5183   -0.5696    0.5499 H         1 <0>         0.0801
     39 H7         -4.5017    0.8911    0.5131 H         1 <0>         0.0612
     40 H8         -3.2842   -2.9421    2.6498 H         1 <0>         0.3734
     41 H9         -1.2003   -2.8805    2.6620 H         1 <0>         0.3778
     42 H10         3.8680    2.6864   -0.0214 H         1 <0>         0.4222
     43 H11         5.2402    1.7170   -0.0399 H         1 <0>         0.4088
     44 H12        -8.3638   -0.1982   -8.9914 H         1 <0>         0.3998
@<TRIPOS>BOND
     1    1    9 1
     2    1    2 2
     3    1   37 1
     4    2    3 1
     5    3    8 ar
     6    3    4 ar
     7    4    5 ar
     8    4   36 1
     9    5    6 ar
    10    6    7 ar
    11    6   35 1
    12    7    8 ar
    13    8    9 1
    14    9   10 1
    15   10   11 1
    16   10   18 1
    17   10   12 1
    18   12   13 1
    19   12   14 1
    20   12   34 1
    21   14   15 1
    22   14   16 1
    23   14   33 1
    24   16   17 1
    25   16   18 1
    26   16   19 1
    27   19   20 1
    28   19   38 1
    29   19   39 1
    30   20   21 1
    31   21   22 2
    32   21   23 1
    33   21   24 1
    34   24   25 1
    35   25   26 2
    36   25   27 1
    37   25   28 1
    38   28   29 1
    39   29   30 2
    40   29   31 1
    41   29   32 1
    42   31   44 1
    43   33   40 1
    44   34   41 1
    45   36   42 1
    46   36   43 1
@<TRIPOS>MOLECULE
ZINC17654543
   47    49     0     0     0
SMALL
USER_CHARGES

@<TRIPOS>ATOM
      1 C1         -0.0225    1.8097    0.0120 C.3       1 <0>        -0.1410
      2 S1          0.0021   -0.0041    0.0020 S.3       1 <0>         0.0004
      3 C2         -1.7016   -0.4536    0.0159 C.ar      1 <0>         0.3506
      4 N1         -2.6181    0.5070    0.0244 N.ar      1 <0>        -0.6004
      5 C3         -3.9143    0.2188    0.0349 C.ar      1 <0>         0.5155
      6 C4         -4.3029   -1.1326    0.0370 C.ar      1 <0>        -0.1048
      7 C5         -3.2987   -2.1144    0.0278 C.ar      1 <0>         0.3179
      8 N2         -2.0240   -1.7373    0.0121 N.ar      1 <0>        -0.5152
      9 N3         -3.9497   -3.3221    0.0322 N.pl3     1 <0>        -0.4605
     10 C6         -5.2895   -3.0642    0.0436 C.2       1 <0>         0.2874
     11 N4         -5.4943   -1.7795    0.0464 N.2       1 <0>        -0.4701
     12 C7         -3.3216   -4.6456    0.0251 C.3       1 <0>         0.3029
     13 C8         -3.0362   -5.1132    1.4695 C.3       1 <0>         0.0380
     14 H1         -3.7050   -4.6150    2.1713 H         1 <0>         0.0802
     15 C9         -3.3204   -6.6315    1.4356 C.3       1 <0>         0.0481
     16 H2         -4.1297   -6.8840    2.1207 H         1 <0>         0.0931
     17 C10        -3.7439   -6.9016   -0.0253 C.3       1 <0>         0.0857
     18 H3         -2.8870   -7.2281   -0.6146 H         1 <0>         0.1061
     19 O1         -4.2321   -5.6313   -0.5089 O.3       1 <0>        -0.3319
     20 C11        -4.8533   -7.9542   -0.0723 C.3       1 <0>         0.1427
     21 O2         -5.1490   -8.2741   -1.4333 O.3       1 <0>        -0.7597
     22 P1         -6.2701   -9.3488   -1.8578 P.3       1 <0>         2.2900
     23 O3         -5.9800  -10.6977   -1.1625 O.2       1 <0>        -1.1039
     24 O4         -7.6630   -8.8369   -1.4280 O.3       1 <0>        -1.1156
     25 O5         -6.2420   -9.5513   -3.4548 O.3       1 <0>        -1.0974
     26 P2         -6.8557  -10.6553   -4.4531 P.3       1 <0>         2.3456
     27 O6         -6.7060  -12.0584   -3.8240 O.2       1 <0>        -1.1159
     28 O7         -8.3521  -10.3561   -4.6946 O.3       1 <0>        -1.1399
     29 O8         -6.0661  -10.6088   -5.8554 O.3       1 <0>        -1.1051
     30 P3         -5.9683  -11.6038   -7.1174 P.3       1 <0>         2.2213
     31 O9         -5.9013  -13.0848   -6.6107 O.2       1 <0>        -1.1973
     32 O10        -7.2306  -11.4195   -8.0268 O.3       1 <0>        -1.2116
     33 O11        -4.6777  -11.2753   -7.9426 O.3       1 <0>        -1.2130
     34 O12        -2.1410   -7.3692    1.7624 O.3       1 <0>        -0.5289
     35 O13        -1.6725   -4.8639    1.8163 O.3       1 <0>        -0.5301
     36 N5         -4.8623    1.2266    0.0442 N.pl3     1 <0>        -0.8212
     37 H4          1.0001    2.1870    0.0043 H         1 <0>         0.1038
     38 H5         -0.5497    2.1708   -0.8711 H         1 <0>         0.0862
     39 H6         -0.5327    2.1613    0.9088 H         1 <0>         0.0844
     40 H7         -6.0653   -3.8156    0.0489 H         1 <0>         0.2345
     41 H8         -2.4006   -4.6246   -0.5577 H         1 <0>         0.1227
     42 H9         -4.5238   -8.8530    0.4489 H         1 <0>         0.0782
     43 H10        -5.7477   -7.5611    0.4110 H         1 <0>         0.0582
     44 H11        -1.7987   -7.1909    2.6491 H         1 <0>         0.3705
     45 H12        -1.4384   -5.1385    2.7134 H         1 <0>         0.3755
     46 H13        -4.5827    2.1554    0.0430 H         1 <0>         0.4043
     47 H14        -5.8064    1.0043    0.0519 H         1 <0>         0.4199
@<TRIPOS>BOND
     1    1    2 1
     2    1   37 1
     3    1   38 1
     4    1   39 1
     5    2    3 1
     6    3    8 ar
     7    3    4 ar
     8    4    5 ar
     9    5    6 ar
    10    5   36 1
    11    6   11 1
    12    6    7 ar
    13    7    8 ar
    14    7    9 1
    15    9   10 1
    16    9   12 1
    17   10   11 2
    18   10   40 1
    19   12   19 1
    20   12   13 1
    21   12   41 1
    22   13   14 1
    23   13   15 1
    24   13   35 1
    25   15   16 1
    26   15   17 1
    27   15   34 1
    28   17   18 1
    29   17   19 1
    30   17   20 1
    31   20   21 1
    32   20   42 1
    33   20   43 1
    34   21   22 1
    35   22   23 2
    36   22   24 1
    37   22   25 1
    38   25   26 1
    39   26   27 2
    40   26   28 1
    41   26   29 1
    42   29   30 1
    43   30   31 2
    44   30   32 1
    45   30   33 1
    46   34   44 1
    47   35   45 1
    48   36   46 1
    49   36   47 1
@<TRIPOS>MOLECULE
ZINC17654543
   48    50     0     0     0
SMALL
USER_CHARGES

@<TRIPOS>ATOM
      1 C1         -0.0225    1.8097    0.0120 C.3       1 <0>        -0.1412
      2 S1          0.0021   -0.0041    0.0020 S.3       1 <0>         0.0016
      3 C2          0.8484   -0.4107   -1.4889 C.ar      1 <0>         0.3532
      4 N1          1.2841    0.5726   -2.2676 N.ar      1 <0>        -0.5998
      5 C3          1.9272    0.3169   -3.4009 C.ar      1 <0>         0.5168
      6 C4          2.1406   -1.0243   -3.7654 C.ar      1 <0>        -0.1065
      7 C5          1.6621   -2.0310   -2.9109 C.ar      1 <0>         0.3192
      8 N2          1.0329   -1.6859   -1.7919 N.ar      1 <0>        -0.5180
      9 N3          2.0024   -3.2219   -3.5009 N.pl3     1 <0>        -0.4624
     10 C6          2.6581   -2.9305   -4.6615 C.2       1 <0>         0.2836
     11 N4          2.7379   -1.6411   -4.8146 N.2       1 <0>        -0.4679
     12 C7          1.7153   -4.5607   -2.9800 C.3       1 <0>         0.3049
     13 C8          0.3291   -5.0404   -3.4644 C.3       1 <0>         0.0375
     14 H1          0.0477   -4.5281   -4.3844 H         1 <0>         0.0813
     15 C9          0.5241   -6.5510   -3.7239 C.3       1 <0>         0.0476
     16 H2          0.3391   -6.7855   -4.7722 H         1 <0>         0.0935
     17 C10         2.0051   -6.8053   -3.3655 C.3       1 <0>         0.0864
     18 H3          2.0923   -7.1511   -2.3355 H         1 <0>         0.1046
     19 O1          2.6481   -5.5215   -3.5211 O.3       1 <0>        -0.3345
     20 C11         2.6167   -7.8295   -4.3237 C.3       1 <0>         0.1428
     21 O2          3.9481   -8.1372   -3.9056 O.3       1 <0>        -0.7624
     22 P1          4.8927   -9.1819   -4.6856 P.3       1 <0>         2.2884
     23 O3          4.1666  -10.5400   -4.8090 O.2       1 <0>        -1.0989
     24 O4          5.2086   -8.6367   -6.0962 O.3       1 <0>        -1.1088
     25 O5          6.2649   -9.3794   -3.8669 O.3       1 <0>        -1.0977
     26 P2          7.4534  -10.4641   -3.9212 P.3       1 <0>         2.3537
     27 O6          6.8556  -11.8728   -4.1341 O.2       1 <0>        -1.1051
     28 O7          8.4056  -10.1267   -5.0901 O.3       1 <0>        -1.1152
     29 O8          8.2725  -10.4326   -2.5355 O.3       1 <0>        -1.0987
     30 P3          9.3320  -11.4253   -1.8398 P.3       1 <0>         2.2761
     31 O9         10.3690  -11.8880   -2.8874 O.2       1 <0>        -1.1170
     32 O10        10.0848  -10.6540   -0.6438 O.3       1 <0>        -0.9090
     33 O11         8.5893  -12.6555   -1.2722 O.3       1 <0>        -1.1166
     34 O12        -0.3369   -7.3192   -2.8808 O.3       1 <0>        -0.5305
     35 O13        -0.6566   -4.8267   -2.4521 O.3       1 <0>        -0.5300
     36 N5          2.3772    1.3481   -4.2061 N.pl3     1 <0>        -0.8201
     37 H4          1.0001    2.1870    0.0043 H         1 <0>         0.0866
     38 H5         -0.5497    2.1708   -0.8711 H         1 <0>         0.0855
     39 H6         -0.5327    2.1613    0.9088 H         1 <0>         0.1051
     40 H7          3.0529   -3.6622   -5.3509 H         1 <0>         0.2334
     41 H8          1.7595   -4.5609   -1.8909 H         1 <0>         0.1221
     42 H9          2.0146   -8.7381   -4.3169 H         1 <0>         0.0798
     43 H10         2.6389   -7.4158   -5.3319 H         1 <0>         0.0610
     44 H11        -1.2786   -7.1527   -3.0242 H         1 <0>         0.3731
     45 H12        -1.5463   -5.1101   -2.7034 H         1 <0>         0.3772
     46 H13         2.2241    2.2697   -3.9449 H         1 <0>         0.4055
     47 H14         2.8458    1.1496   -5.0319 H         1 <0>         0.4201
     48 H15        10.7393  -11.1930   -0.1787 H         1 <0>         0.3997
@<TRIPOS>BOND
     1    1    2 1
     2    1   37 1
     3    1   38 1
     4    1   39 1
     5    2    3 1
     6    3    8 ar
     7    3    4 ar
     8    4    5 ar
     9    5    6 ar
    10    5   36 1
    11    6   11 1
    12    6    7 ar
    13    7    8 ar
    14    7    9 1
    15    9   10 1
    16    9   12 1
    17   10   11 2
    18   10   40 1
    19   12   19 1
    20   12   13 1
    21   12   41 1
    22   13   14 1
    23   13   15 1
    24   13   35 1
    25   15   16 1
    26   15   17 1
    27   15   34 1
    28   17   18 1
    29   17   19 1
    30   17   20 1
    31   20   21 1
    32   20   42 1
    33   20   43 1
    34   21   22 1
    35   22   23 2
    36   22   24 1
    37   22   25 1
    38   25   26 1
    39   26   27 2
    40   26   28 1
    41   26   29 1
    42   29   30 1
    43   30   31 2
    44   30   32 1
    45   30   33 1
    46   32   48 1
    47   34   44 1
    48   35   45 1
    49   36   46 1
    50   36   47 1
