@<TRIPOS>MOLECULE
ZINC26819872
   34    34     0     0     0
SMALL
USER_CHARGES

@<TRIPOS>ATOM
      1 C1         -0.0127    1.0858    0.0080 C.3       1 <0>         0.0738
      2 H1          0.0021   -0.0041    0.0020 H         1 <0>         0.0919
      3 C2         -0.7288    1.5792    1.2668 C.3       1 <0>         0.1618
      4 H2         -0.7436    2.6691    1.2728 H         1 <0>         0.0597
      5 C3          0.0111    1.0724    2.5063 C.3       1 <0>         0.0944
      6 H3         -0.4990    1.4239    3.4031 H         1 <0>         0.0593
      7 C4          1.4465    1.6020    2.4955 C.3       1 <0>         0.1695
      8 H4          1.4318    2.6919    2.5015 H         1 <0>         0.0414
      9 C5          2.1627    1.1086    1.2367 C.3       1 <0>         0.1685
     10 H5          3.1853    1.4858    1.2289 H         1 <0>         0.0533
     11 C6          1.4227    1.6154   -0.0028 C.3       1 <0>         0.0641
     12 H6          1.4079    2.7053    0.0031 H         1 <0>         0.0503
     13 O1          2.0915    1.1545   -1.1786 O.3       1 <0>        -0.5168
     14 O2          2.1820   -0.3203    1.2288 O.3       1 <0>        -0.7078
     15 P1          3.5440   -1.1787    1.2112 P.3       1 <0>         2.1510
     16 O3          4.4259   -0.7339   -0.0049 O.2       1 <0>        -1.2101
     17 O4          4.3314   -0.9362    2.5437 O.3       1 <0>        -1.1762
     18 O5          3.2000   -2.7013    1.0776 O.3       1 <0>        -1.2015
     19 O6          2.1377    1.1286    3.6532 O.3       1 <0>        -0.7031
     20 P2          2.7732    2.1120    4.7582 P.3       1 <0>         2.1563
     21 O7          3.7500    3.1192    4.0610 O.2       1 <0>        -1.2045
     22 O8          1.6267    2.9058    5.4721 O.3       1 <0>        -1.2091
     23 O9          3.5616    1.2680    5.8168 O.3       1 <0>        -1.1784
     24 O10         0.0305   -0.3564    2.4985 O.3       1 <0>        -0.4906
     25 O11        -2.0695    1.0846    1.2770 O.3       1 <0>        -0.7498
     26 P3         -3.3594    2.0479    1.2944 P.3       1 <0>         2.2046
     27 O12        -3.2607    3.0190    2.4920 O.2       1 <0>        -1.1107
     28 O13        -3.4163    2.8564   -0.0209 O.3       1 <0>        -1.1053
     29 O14        -4.6929    1.1566    1.4347 O.3       1 <0>        -0.8965
     30 O15        -0.7038    1.5592   -1.1497 O.3       1 <0>        -0.5539
     31 H7          1.6763    1.4388   -2.0043 H         1 <0>         0.3327
     32 H8         -0.8474   -0.7617    2.5047 H         1 <0>         0.3340
     33 H9         -5.5107    1.6724    1.4519 H         1 <0>         0.3989
     34 H10        -0.3044    1.2838   -1.9862 H         1 <0>         0.3489
@<TRIPOS>BOND
     1    1    2 1
     2    1   11 1
     3    1    3 1
     4    1   30 1
     5    3    4 1
     6    3    5 1
     7    3   25 1
     8    5    6 1
     9    5    7 1
    10    5   24 1
    11    7    8 1
    12    7    9 1
    13    7   19 1
    14    9   10 1
    15    9   11 1
    16    9   14 1
    17   11   12 1
    18   11   13 1
    19   13   31 1
    20   14   15 1
    21   15   16 2
    22   15   17 1
    23   15   18 1
    24   19   20 1
    25   20   21 2
    26   20   22 1
    27   20   23 1
    28   24   32 1
    29   25   26 1
    30   26   27 2
    31   26   28 1
    32   26   29 1
    33   29   33 1
    34   30   34 1
@<TRIPOS>MOLECULE
ZINC26819872
   34    34     0     0     0
SMALL
USER_CHARGES

@<TRIPOS>ATOM
      1 C1         -0.0127    1.0858    0.0080 C.3       1 <0>         0.0744
      2 H1          0.0021   -0.0041    0.0020 H         1 <0>         0.0919
      3 C2         -0.7527    1.5927   -1.2315 C.3       1 <0>         0.0642
      4 H2         -0.7675    2.6825   -1.2255 H         1 <0>         0.0506
      5 C3         -0.0366    1.0992   -2.4903 C.3       1 <0>         0.1685
      6 H3         -0.5637    1.4603   -3.3734 H         1 <0>         0.0533
      7 C4          1.3988    1.6288   -2.5012 C.3       1 <0>         0.1695
      8 H4          1.3840    2.7187   -2.4952 H         1 <0>         0.0411
      9 C5          2.1388    1.1220   -1.2617 C.3       1 <0>         0.0940
     10 H5          3.1614    1.4993   -1.2694 H         1 <0>         0.0603
     11 C6          1.4227    1.6154   -0.0028 C.3       1 <0>         0.1616
     12 H6          1.4079    2.7053    0.0031 H         1 <0>         0.0597
     13 O1          2.1138    1.1420    1.1549 O.3       1 <0>        -0.7497
     14 P1          2.7494    2.1254    2.2599 P.3       1 <0>         2.2048
     15 O2          1.6575    3.0841    2.7850 O.2       1 <0>        -1.1068
     16 O3          3.3317    1.2542    3.4822 O.3       1 <0>        -0.8964
     17 O4          3.8923    2.9464    1.6222 O.3       1 <0>        -1.1093
     18 O5          2.1582   -0.3069   -1.2695 O.3       1 <0>        -0.4906
     19 O6          2.0677    1.1680   -3.6769 O.3       1 <0>        -0.7029
     20 P2          2.6821    2.1632   -4.7832 P.3       1 <0>         2.1561
     21 O7          1.5651    3.1410   -5.2840 O.2       1 <0>        -1.2045
     22 O8          3.8534    2.9889   -4.1499 O.3       1 <0>        -1.2090
     23 O9          3.2259    1.3284   -5.9923 O.3       1 <0>        -1.1783
     24 O10        -0.0172   -0.3296   -2.4982 O.3       1 <0>        -0.7078
     25 P3         -0.6915   -1.2093   -3.6659 P.3       1 <0>         2.1509
     26 O11        -2.1963   -0.8027   -3.8233 O.2       1 <0>        -1.2101
     27 O12         0.0627   -0.9525   -5.0149 O.3       1 <0>        -1.1762
     28 O13        -0.5971   -2.7287   -3.2958 O.3       1 <0>        -1.2014
     29 O14        -2.0933    1.0980   -1.2214 O.3       1 <0>        -0.5167
     30 O15        -0.6816    1.5467    1.1837 O.3       1 <0>        -0.5554
     31 H7          2.6125   -0.6982   -0.5109 H         1 <0>         0.3342
     32 H8         -2.6079    1.3722   -0.4499 H         1 <0>         0.3325
     33 H9         -1.5985    1.2485    1.2570 H         1 <0>         0.3489
     34 H10         3.7309    1.7827    4.1867 H         1 <0>         0.3987
@<TRIPOS>BOND
     1    1    2 1
     2    1   11 1
     3    1    3 1
     4    1   30 1
     5    3    4 1
     6    3    5 1
     7    3   29 1
     8    5    6 1
     9    5    7 1
    10    5   24 1
    11    7    8 1
    12    7    9 1
    13    7   19 1
    14    9   10 1
    15    9   11 1
    16    9   18 1
    17   11   12 1
    18   11   13 1
    19   13   14 1
    20   14   15 2
    21   14   16 1
    22   14   17 1
    23   16   34 1
    24   18   31 1
    25   19   20 1
    26   20   21 2
    27   20   22 1
    28   20   23 1
    29   24   25 1
    30   25   26 2
    31   25   27 1
    32   25   28 1
    33   29   32 1
    34   30   33 1
@<TRIPOS>MOLECULE
ZINC26819872
   34    34     0     0     0
SMALL
USER_CHARGES

@<TRIPOS>ATOM
      1 C1         -0.0127    1.0858    0.0080 C.3       1 <0>         0.0727
      2 H1          0.0021   -0.0041    0.0020 H         1 <0>         0.0860
      3 C2         -0.7527    1.5927   -1.2315 C.3       1 <0>         0.0629
      4 H2         -0.7675    2.6825   -1.2255 H         1 <0>         0.0496
      5 C3         -0.0366    1.0992   -2.4903 C.3       1 <0>         0.1727
      6 H3         -0.5637    1.4603   -3.3734 H         1 <0>         0.0502
      7 C4          1.3988    1.6288   -2.5012 C.3       1 <0>         0.1760
      8 H4          1.3840    2.7187   -2.4952 H         1 <0>         0.0555
      9 C5          2.1388    1.1220   -1.2617 C.3       1 <0>         0.0966
     10 H5          3.1614    1.4993   -1.2694 H         1 <0>         0.0572
     11 C6          1.4227    1.6154   -0.0028 C.3       1 <0>         0.1557
     12 H6          1.4079    2.7053    0.0031 H         1 <0>         0.0461
     13 O1          2.1138    1.1420    1.1549 O.3       1 <0>        -0.7469
     14 P1          2.7494    2.1254    2.2599 P.3       1 <0>         2.1476
     15 O2          3.7261    3.1326    1.5627 O.2       1 <0>        -1.1979
     16 O3          1.6028    2.9192    2.9738 O.3       1 <0>        -1.1892
     17 O4          3.5378    1.2814    3.3184 O.3       1 <0>        -1.1885
     18 O5          2.1582   -0.3069   -1.2695 O.3       1 <0>        -0.5058
     19 O6          2.0677    1.1680   -3.6769 O.3       1 <0>        -0.7110
     20 P2          2.6821    2.1632   -4.7832 P.3       1 <0>         2.2216
     21 O7          3.6584    3.1491   -4.1035 O.2       1 <0>        -1.1247
     22 O8          3.4713    1.3077   -5.8956 O.3       1 <0>        -0.8831
     23 O9          1.5383    2.9535   -5.4571 O.3       1 <0>        -1.1208
     24 O10        -0.0172   -0.3296   -2.4982 O.3       1 <0>        -0.7048
     25 P3         -0.6915   -1.2093   -3.6659 P.3       1 <0>         2.1585
     26 O11        -2.1963   -0.8027   -3.8233 O.2       1 <0>        -1.2067
     27 O12         0.0627   -0.9525   -5.0149 O.3       1 <0>        -1.1920
     28 O13        -0.5971   -2.7287   -3.2958 O.3       1 <0>        -1.1974
     29 O14        -2.0933    1.0980   -1.2214 O.3       1 <0>        -0.5227
     30 O15        -0.6816    1.5467    1.1837 O.3       1 <0>        -0.5376
     31 H7          2.6125   -0.6982   -0.5109 H         1 <0>         0.3504
     32 H8         -2.6079    1.3722   -0.4499 H         1 <0>         0.3395
     33 H9         -1.5985    1.2485    1.2570 H         1 <0>         0.3401
     34 H10         3.8686    1.8439   -6.5954 H         1 <0>         0.3902
@<TRIPOS>BOND
     1    1    2 1
     2    1   11 1
     3    1    3 1
     4    1   30 1
     5    3    4 1
     6    3    5 1
     7    3   29 1
     8    5    6 1
     9    5    7 1
    10    5   24 1
    11    7    8 1
    12    7    9 1
    13    7   19 1
    14    9   10 1
    15    9   11 1
    16    9   18 1
    17   11   12 1
    18   11   13 1
    19   13   14 1
    20   14   15 2
    21   14   16 1
    22   14   17 1
    23   18   31 1
    24   19   20 1
    25   20   21 2
    26   20   22 1
    27   20   23 1
    28   22   34 1
    29   24   25 1
    30   25   26 2
    31   25   27 1
    32   25   28 1
    33   29   32 1
    34   30   33 1
@<TRIPOS>MOLECULE
ZINC26819872
   33    33     0     0     0
SMALL
USER_CHARGES

@<TRIPOS>ATOM
      1 C1         -0.0127    1.0858    0.0080 C.3       1 <0>         0.0761
      2 H1          0.0021   -0.0041    0.0020 H         1 <0>         0.0839
      3 C2         -0.7527    1.5927   -1.2315 C.3       1 <0>         0.0623
      4 H2         -0.7675    2.6825   -1.2255 H         1 <0>         0.0464
      5 C3         -0.0366    1.0992   -2.4903 C.3       1 <0>         0.1758
      6 H3         -0.5637    1.4603   -3.3734 H         1 <0>         0.0456
      7 C4          1.3988    1.6288   -2.5012 C.3       1 <0>         0.1707
      8 H4          1.3840    2.7187   -2.4952 H         1 <0>         0.0373
      9 C5          2.1388    1.1220   -1.2617 C.3       1 <0>         0.0972
     10 H5          3.1614    1.4993   -1.2694 H         1 <0>         0.0542
     11 C6          1.4227    1.6154   -0.0028 C.3       1 <0>         0.1569
     12 H6          1.4079    2.7053    0.0031 H         1 <0>         0.0425
     13 O1          2.1138    1.1420    1.1549 O.3       1 <0>        -0.7513
     14 P1          2.7494    2.1254    2.2599 P.3       1 <0>         2.1540
     15 O2          3.7261    3.1326    1.5627 O.2       1 <0>        -1.1995
     16 O3          1.6028    2.9192    2.9738 O.3       1 <0>        -1.1947
     17 O4          3.5378    1.2814    3.3184 O.3       1 <0>        -1.1944
     18 O5          2.1582   -0.3069   -1.2695 O.3       1 <0>        -0.5013
     19 O6          2.0677    1.1680   -3.6769 O.3       1 <0>        -0.7080
     20 P2          2.6821    2.1632   -4.7832 P.3       1 <0>         2.1628
     21 O7          1.5651    3.1409   -5.2840 O.2       1 <0>        -1.2099
     22 O8          3.8533    2.9889   -4.1499 O.3       1 <0>        -1.2107
     23 O9          3.2259    1.3284   -5.9922 O.3       1 <0>        -1.1847
     24 O10        -0.0172   -0.3296   -2.4982 O.3       1 <0>        -0.7071
     25 P3         -0.6915   -1.2093   -3.6659 P.3       1 <0>         2.1581
     26 O11        -2.1963   -0.8027   -3.8233 O.2       1 <0>        -1.2147
     27 O12         0.0627   -0.9525   -5.0149 O.3       1 <0>        -1.1809
     28 O13        -0.5971   -2.7287   -3.2958 O.3       1 <0>        -1.2053
     29 O14        -2.0933    1.0980   -1.2214 O.3       1 <0>        -0.5234
     30 O15        -0.6816    1.5467    1.1837 O.3       1 <0>        -0.5412
     31 H7          2.6125   -0.6982   -0.5109 H         1 <0>         0.3383
     32 H8         -2.6079    1.3722   -0.4499 H         1 <0>         0.3303
     33 H9         -1.5985    1.2485    1.2570 H         1 <0>         0.3346
@<TRIPOS>BOND
     1    1    2 1
     2    1   11 1
     3    1    3 1
     4    1   30 1
     5    3    4 1
     6    3    5 1
     7    3   29 1
     8    5    6 1
     9    5    7 1
    10    5   24 1
    11    7    8 1
    12    7    9 1
    13    7   19 1
    14    9   10 1
    15    9   11 1
    16    9   18 1
    17   11   12 1
    18   11   13 1
    19   13   14 1
    20   14   15 2
    21   14   16 1
    22   14   17 1
    23   18   31 1
    24   19   20 1
    25   20   21 2
    26   20   22 1
    27   20   23 1
    28   24   25 1
    29   25   26 2
    30   25   27 1
    31   25   28 1
    32   29   32 1
    33   30   33 1
@<TRIPOS>MOLECULE
ZINC26819872
   34    34     0     0     0
SMALL
USER_CHARGES

@<TRIPOS>ATOM
      1 C1         -0.0127    1.0858    0.0080 C.3       1 <0>         0.0771
      2 H1          0.0021   -0.0041    0.0020 H         1 <0>         0.0786
      3 C2         -0.7288    1.5792    1.2668 C.3       1 <0>         0.1511
      4 H2         -0.7436    2.6691    1.2728 H         1 <0>         0.0487
      5 C3          0.0111    1.0724    2.5063 C.3       1 <0>         0.0967
      6 H3         -0.4990    1.4239    3.4031 H         1 <0>         0.0643
      7 C4          1.4465    1.6020    2.4955 C.3       1 <0>         0.1671
      8 H4          1.4318    2.6919    2.5015 H         1 <0>         0.0549
      9 C5          2.1627    1.1086    1.2367 C.3       1 <0>         0.1858
     10 H5          3.1853    1.4858    1.2289 H         1 <0>         0.0621
     11 C6          1.4227    1.6154   -0.0028 C.3       1 <0>         0.0588
     12 H6          1.4079    2.7053    0.0031 H         1 <0>         0.0632
     13 O1          2.0915    1.1545   -1.1786 O.3       1 <0>        -0.5351
     14 O2          2.1820   -0.3203    1.2288 O.3       1 <0>        -0.7073
     15 P1          3.5440   -1.1787    1.2112 P.3       1 <0>         2.1995
     16 O3          4.4365   -0.7529    2.3983 O.2       1 <0>        -1.0915
     17 O4          3.1930   -2.7448    1.3384 O.3       1 <0>        -0.8951
     18 O5          4.2953   -0.9254   -0.1148 O.3       1 <0>        -1.1225
     19 O6          2.1377    1.1286    3.6532 O.3       1 <0>        -0.7159
     20 P2          2.7732    2.1120    4.7582 P.3       1 <0>         2.1508
     21 O7          3.7499    3.1192    4.0610 O.2       1 <0>        -1.2018
     22 O8          1.6267    2.9058    5.4722 O.3       1 <0>        -1.2010
     23 O9          3.5616    1.2680    5.8168 O.3       1 <0>        -1.1801
     24 O10         0.0305   -0.3564    2.4985 O.3       1 <0>        -0.5199
     25 O11        -2.0695    1.0846    1.2770 O.3       1 <0>        -0.7485
     26 P3         -3.3594    2.0479    1.2944 P.3       1 <0>         2.1455
     27 O12        -3.2594    3.0326    2.5088 O.2       1 <0>        -1.1945
     28 O13        -3.4171    2.8677   -0.0393 O.3       1 <0>        -1.1897
     29 O14        -4.6570    1.1806    1.4309 O.3       1 <0>        -1.1888
     30 O15        -0.7038    1.5592   -1.1497 O.3       1 <0>        -0.5336
     31 H7          1.6763    1.4388   -2.0043 H         1 <0>         0.3452
     32 H8         -0.8474   -0.7617    2.5047 H         1 <0>         0.3481
     33 H9         -0.3044    1.2838   -1.9862 H         1 <0>         0.3371
     34 H10         3.9680   -3.3231    1.3346 H         1 <0>         0.3907
@<TRIPOS>BOND
     1    1    2 1
     2    1   11 1
     3    1    3 1
     4    1   30 1
     5    3    4 1
     6    3    5 1
     7    3   25 1
     8    5    6 1
     9    5    7 1
    10    5   24 1
    11    7    8 1
    12    7    9 1
    13    7   19 1
    14    9   10 1
    15    9   11 1
    16    9   14 1
    17   11   12 1
    18   11   13 1
    19   13   31 1
    20   14   15 1
    21   15   16 2
    22   15   17 1
    23   15   18 1
    24   17   34 1
    25   19   20 1
    26   20   21 2
    27   20   22 1
    28   20   23 1
    29   24   32 1
    30   25   26 1
    31   26   27 2
    32   26   28 1
    33   26   29 1
    34   30   33 1
@<TRIPOS>MOLECULE
ZINC26819877
   34    34     0     0     0
SMALL
USER_CHARGES

@<TRIPOS>ATOM
      1 C1         -0.0127    1.0858    0.0080 C.3       1 <0>         0.0934
      2 H1          0.0021   -0.0041    0.0020 H         1 <0>         0.0286
      3 C2         -0.7527    1.5927   -1.2315 C.3       1 <0>         0.1521
      4 H2         -0.2425    1.2411   -2.1283 H         1 <0>         0.0611
      5 C3         -0.7734    3.1225   -1.2231 C.3       1 <0>         0.0997
      6 H3         -1.3006    3.4836   -2.1062 H         1 <0>         0.0456
      7 C4          0.6619    3.6521   -1.2340 C.3       1 <0>         0.1708
      8 H4          1.1721    3.3005   -2.1308 H         1 <0>         0.0339
      9 C5          1.4019    3.1452    0.0056 C.3       1 <0>         0.1757
     10 H5          2.4245    3.5225   -0.0022 H         1 <0>         0.0443
     11 C6          1.4227    1.6154   -0.0028 C.3       1 <0>         0.0517
     12 H6          1.9329    1.2639   -0.8996 H         1 <0>         0.0457
     13 O1          2.1138    1.1420    1.1549 O.3       1 <0>        -0.5172
     14 O2          0.7331    3.6061    1.1813 O.3       1 <0>        -0.6868
     15 P1          1.4428    4.5385    2.2853 P.3       1 <0>         2.1527
     16 O3          2.7568    3.8476    2.7858 O.2       1 <0>        -1.2149
     17 O4          1.7925    5.9270    1.6494 O.3       1 <0>        -1.1819
     18 O5          0.4697    4.7485    3.4951 O.3       1 <0>        -1.2025
     19 O6          0.6426    5.0809   -1.2261 O.3       1 <0>        -0.7034
     20 P2          1.2945    5.9732   -2.3970 P.3       1 <0>         2.1587
     21 O7          2.7960    5.5684   -2.5874 O.2       1 <0>        -1.2063
     22 O8          0.5147    5.7308   -3.7340 O.3       1 <0>        -1.2108
     23 O9          1.2073    7.4885   -2.0089 O.3       1 <0>        -1.1801
     24 O10        -1.4423    3.5833   -0.0474 O.3       1 <0>        -0.4713
     25 O11        -2.0933    1.0980   -1.2214 O.3       1 <0>        -0.7450
     26 P3         -2.6935    0.1674   -2.3901 P.3       1 <0>         2.2041
     27 O12        -2.5164    0.8736   -3.7528 O.2       1 <0>        -1.1081
     28 O13        -1.9439   -1.1834   -2.4088 O.3       1 <0>        -1.1188
     29 O14        -4.2593   -0.0914   -2.1192 O.3       1 <0>        -0.8934
     30 O15        -0.6816    1.5467    1.1837 O.3       1 <0>        -0.4929
     31 H7          2.1657    0.1783    1.2153 H         1 <0>         0.3330
     32 H8         -2.3593    3.2851    0.0259 H         1 <0>         0.3292
     33 H9         -4.6873   -0.6461   -2.7857 H         1 <0>         0.3993
     34 H10        -0.2663    1.2624    2.0094 H         1 <0>         0.3540
@<TRIPOS>BOND
     1    1    2 1
     2    1   11 1
     3    1    3 1
     4    1   30 1
     5    3    4 1
     6    3    5 1
     7    3   25 1
     8    5    6 1
     9    5    7 1
    10    5   24 1
    11    7    8 1
    12    7    9 1
    13    7   19 1
    14    9   10 1
    15    9   11 1
    16    9   14 1
    17   11   12 1
    18   11   13 1
    19   13   31 1
    20   14   15 1
    21   15   16 2
    22   15   17 1
    23   15   18 1
    24   19   20 1
    25   20   21 2
    26   20   22 1
    27   20   23 1
    28   24   32 1
    29   25   26 1
    30   26   27 2
    31   26   28 1
    32   26   29 1
    33   29   33 1
    34   30   34 1
@<TRIPOS>MOLECULE
ZINC26819877
   34    34     0     0     0
SMALL
USER_CHARGES

@<TRIPOS>ATOM
      1 C1         -0.0127    1.0858    0.0080 C.3       1 <0>         0.0938
      2 H1          0.0021   -0.0041    0.0020 H         1 <0>         0.0274
      3 C2         -0.7288    1.5792    1.2668 C.3       1 <0>         0.0517
      4 H2         -0.2017    1.2182    2.1499 H         1 <0>         0.0460
      5 C3         -0.7496    3.1091    1.2752 C.3       1 <0>         0.1757
      6 H3         -1.2598    3.4606    2.1720 H         1 <0>         0.0443
      7 C4          0.6858    3.6387    1.2644 C.3       1 <0>         0.1706
      8 H4          1.2130    3.2776    2.1474 H         1 <0>         0.0336
      9 C5          1.4019    3.1452    0.0056 C.3       1 <0>         0.0993
     10 H5          2.4245    3.5225   -0.0022 H         1 <0>         0.0466
     11 C6          1.4227    1.6154   -0.0028 C.3       1 <0>         0.1521
     12 H6          1.9499    1.2543    0.8802 H         1 <0>         0.0611
     13 O1          2.0915    1.1546   -1.1786 O.3       1 <0>        -0.7448
     14 P1          3.4181    0.2434   -1.1325 P.3       1 <0>         2.2033
     15 O2          3.1476   -1.0174   -0.2815 O.2       1 <0>        -1.1196
     16 O3          3.8202   -0.1951   -2.6285 O.3       1 <0>        -0.8937
     17 O4          4.5757    1.0506   -0.5037 O.3       1 <0>        -1.1064
     18 O5          0.7108    3.6186   -1.1521 O.3       1 <0>        -0.4713
     19 O6          0.6664    5.0675    1.2722 O.3       1 <0>        -0.7032
     20 P2          1.3407    5.9472    2.4399 P.3       1 <0>         2.1585
     21 O7          0.7617    5.5055    3.8271 O.2       1 <0>        -1.2063
     22 O8          2.8921    5.7292    2.4283 O.3       1 <0>        -1.2107
     23 O9          1.0246    7.4629    2.2007 O.3       1 <0>        -1.1800
     24 O10        -1.4407    3.5824    0.1175 O.3       1 <0>        -0.6868
     25 P3         -2.7661    4.4929    0.1987 P.3       1 <0>         2.1527
     26 O11        -3.8454    3.7675    1.0723 O.2       1 <0>        -1.2150
     27 O12        -2.4117    5.8744    0.8471 O.3       1 <0>        -1.1818
     28 O13        -3.3308    4.7229   -1.2444 O.3       1 <0>        -1.2025
     29 O14        -2.0695    1.0846    1.2770 O.3       1 <0>        -0.5172
     30 O15        -0.7038    1.5592   -1.1497 O.3       1 <0>        -0.4930
     31 H7          1.1102    3.3433   -1.9887 H         1 <0>         0.3294
     32 H8         -2.1327    0.1197    1.2724 H         1 <0>         0.3328
     33 H9         -1.6221    1.2617   -1.2086 H         1 <0>         0.3540
     34 H10         4.6125   -0.7474   -2.6770 H         1 <0>         0.3992
@<TRIPOS>BOND
     1    1    2 1
     2    1   11 1
     3    1    3 1
     4    1   30 1
     5    3    4 1
     6    3    5 1
     7    3   29 1
     8    5    6 1
     9    5    7 1
    10    5   24 1
    11    7    8 1
    12    7    9 1
    13    7   19 1
    14    9   10 1
    15    9   11 1
    16    9   18 1
    17   11   12 1
    18   11   13 1
    19   13   14 1
    20   14   15 2
    21   14   16 1
    22   14   17 1
    23   16   34 1
    24   18   31 1
    25   19   20 1
    26   20   21 2
    27   20   22 1
    28   20   23 1
    29   24   25 1
    30   25   26 2
    31   25   27 1
    32   25   28 1
    33   29   32 1
    34   30   33 1
@<TRIPOS>MOLECULE
ZINC26819877
   34    34     0     0     0
SMALL
USER_CHARGES

@<TRIPOS>ATOM
      1 C1         -0.0127    1.0858    0.0080 C.3       1 <0>         0.0893
      2 H1          0.0021   -0.0041    0.0020 H         1 <0>         0.0330
      3 C2         -0.7288    1.5792    1.2668 C.3       1 <0>         0.0520
      4 H2         -0.2017    1.2182    2.1499 H         1 <0>         0.0452
      5 C3         -0.7496    3.1091    1.2752 C.3       1 <0>         0.1796
      6 H3         -1.2598    3.4606    2.1720 H         1 <0>         0.0412
      7 C4          0.6858    3.6387    1.2644 C.3       1 <0>         0.1769
      8 H4          1.2130    3.2776    2.1474 H         1 <0>         0.0482
      9 C5          1.4019    3.1452    0.0056 C.3       1 <0>         0.1012
     10 H5          2.4245    3.5225   -0.0022 H         1 <0>         0.0438
     11 C6          1.4227    1.6154   -0.0028 C.3       1 <0>         0.1492
     12 H6          1.9499    1.2543    0.8802 H         1 <0>         0.0471
     13 O1          2.0915    1.1546   -1.1786 O.3       1 <0>        -0.7428
     14 P1          3.4181    0.2434   -1.1325 P.3       1 <0>         2.1443
     15 O2          4.5139    0.9596   -0.2719 O.2       1 <0>        -1.1940
     16 O3          3.0760   -1.1450   -0.4923 O.3       1 <0>        -1.2011
     17 O4          3.9551    0.0289   -2.5885 O.3       1 <0>        -1.1842
     18 O5          0.7108    3.6186   -1.1521 O.3       1 <0>        -0.4867
     19 O6          0.6664    5.0675    1.2722 O.3       1 <0>        -0.7106
     20 P2          1.3407    5.9472    2.4399 P.3       1 <0>         2.2223
     21 O7          2.8247    5.5462    2.5951 O.2       1 <0>        -1.1262
     22 O8          1.2437    7.5086    2.0596 O.3       1 <0>        -0.8832
     23 O9          0.5970    5.6939    3.7703 O.3       1 <0>        -1.1225
     24 O10        -1.4407    3.5824    0.1175 O.3       1 <0>        -0.6838
     25 P3         -2.7661    4.4929    0.1987 P.3       1 <0>         2.1603
     26 O11        -3.8454    3.7674    1.0723 O.2       1 <0>        -1.2116
     27 O12        -2.4117    5.8744    0.8471 O.3       1 <0>        -1.1975
     28 O13        -3.3308    4.7230   -1.2444 O.3       1 <0>        -1.1984
     29 O14        -2.0695    1.0846    1.2770 O.3       1 <0>        -0.5231
     30 O15        -0.7038    1.5592   -1.1497 O.3       1 <0>        -0.4905
     31 H7          1.1102    3.3433   -1.9887 H         1 <0>         0.3457
     32 H8         -2.1327    0.1197    1.2724 H         1 <0>         0.3399
     33 H9         -1.6221    1.2617   -1.2086 H         1 <0>         0.3473
     34 H10         1.6312    8.0991    2.7201 H         1 <0>         0.3895
@<TRIPOS>BOND
     1    1    2 1
     2    1   11 1
     3    1    3 1
     4    1   30 1
     5    3    4 1
     6    3    5 1
     7    3   29 1
     8    5    6 1
     9    5    7 1
    10    5   24 1
    11    7    8 1
    12    7    9 1
    13    7   19 1
    14    9   10 1
    15    9   11 1
    16    9   18 1
    17   11   12 1
    18   11   13 1
    19   13   14 1
    20   14   15 2
    21   14   16 1
    22   14   17 1
    23   18   31 1
    24   19   20 1
    25   20   21 2
    26   20   22 1
    27   20   23 1
    28   22   34 1
    29   24   25 1
    30   25   26 2
    31   25   27 1
    32   25   28 1
    33   29   32 1
    34   30   33 1
@<TRIPOS>MOLECULE
ZINC26819877
   33    33     0     0     0
SMALL
USER_CHARGES

@<TRIPOS>ATOM
      1 C1         -0.0127    1.0858    0.0080 C.3       1 <0>         0.0949
      2 H1          0.0021   -0.0041    0.0020 H         1 <0>         0.0247
      3 C2         -0.7288    1.5792    1.2668 C.3       1 <0>         0.0504
      4 H2         -0.2017    1.2182    2.1499 H         1 <0>         0.0421
      5 C3         -0.7496    3.1091    1.2752 C.3       1 <0>         0.1830
      6 H3         -1.2598    3.4606    2.1720 H         1 <0>         0.0365
      7 C4          0.6858    3.6387    1.2644 C.3       1 <0>         0.1718
      8 H4          1.2130    3.2776    2.1474 H         1 <0>         0.0298
      9 C5          1.4019    3.1452    0.0056 C.3       1 <0>         0.1021
     10 H5          2.4245    3.5225   -0.0022 H         1 <0>         0.0407
     11 C6          1.4227    1.6154   -0.0028 C.3       1 <0>         0.1487
     12 H6          1.9499    1.2543    0.8802 H         1 <0>         0.0437
     13 O1          2.0915    1.1546   -1.1786 O.3       1 <0>        -0.7470
     14 P1          3.4181    0.2434   -1.1325 P.3       1 <0>         2.1504
     15 O2          4.5139    0.9596   -0.2719 O.2       1 <0>        -1.1955
     16 O3          3.0760   -1.1450   -0.4923 O.3       1 <0>        -1.2065
     17 O4          3.9551    0.0289   -2.5885 O.3       1 <0>        -1.1899
     18 O5          0.7108    3.6186   -1.1521 O.3       1 <0>        -0.4821
     19 O6          0.6664    5.0675    1.2722 O.3       1 <0>        -0.7081
     20 P2          1.3407    5.9472    2.4399 P.3       1 <0>         2.1649
     21 O7          0.7616    5.5056    3.8271 O.2       1 <0>        -1.2116
     22 O8          2.8921    5.7291    2.4284 O.3       1 <0>        -1.2122
     23 O9          1.0246    7.4629    2.2007 O.3       1 <0>        -1.1863
     24 O10        -1.4407    3.5824    0.1175 O.3       1 <0>        -0.6857
     25 P3         -2.7661    4.4929    0.1987 P.3       1 <0>         2.1595
     26 O11        -3.8454    3.7674    1.0723 O.2       1 <0>        -1.2195
     27 O12        -2.4117    5.8744    0.8471 O.3       1 <0>        -1.1864
     28 O13        -3.3308    4.7230   -1.2444 O.3       1 <0>        -1.2062
     29 O14        -2.0695    1.0846    1.2770 O.3       1 <0>        -0.5235
     30 O15        -0.7038    1.5592   -1.1497 O.3       1 <0>        -0.4883
     31 H7          1.1102    3.3433   -1.9887 H         1 <0>         0.3334
     32 H8         -2.1327    0.1197    1.2724 H         1 <0>         0.3303
     33 H9         -1.6221    1.2617   -1.2086 H         1 <0>         0.3420
@<TRIPOS>BOND
     1    1    2 1
     2    1   11 1
     3    1    3 1
     4    1   30 1
     5    3    4 1
     6    3    5 1
     7    3   29 1
     8    5    6 1
     9    5    7 1
    10    5   24 1
    11    7    8 1
    12    7    9 1
    13    7   19 1
    14    9   10 1
    15    9   11 1
    16    9   18 1
    17   11   12 1
    18   11   13 1
    19   13   14 1
    20   14   15 2
    21   14   16 1
    22   14   17 1
    23   18   31 1
    24   19   20 1
    25   20   21 2
    26   20   22 1
    27   20   23 1
    28   24   25 1
    29   25   26 2
    30   25   27 1
    31   25   28 1
    32   29   32 1
    33   30   33 1
@<TRIPOS>MOLECULE
ZINC26819877
   34    34     0     0     0
SMALL
USER_CHARGES

@<TRIPOS>ATOM
      1 C1         -0.0127    1.0858    0.0080 C.3       1 <0>         0.0918
      2 H1          0.0021   -0.0041    0.0020 H         1 <0>         0.0373
      3 C2         -0.7527    1.5927   -1.2315 C.3       1 <0>         0.1452
      4 H2         -0.2425    1.2411   -2.1283 H         1 <0>         0.0504
      5 C3         -0.7734    3.1225   -1.2231 C.3       1 <0>         0.1009
      6 H3         -1.3006    3.4836   -2.1062 H         1 <0>         0.0515
      7 C4          0.6619    3.6521   -1.2340 C.3       1 <0>         0.1682
      8 H4          1.1721    3.3005   -2.1308 H         1 <0>         0.0476
      9 C5          1.4019    3.1452    0.0056 C.3       1 <0>         0.1930
     10 H5          2.4245    3.5225   -0.0022 H         1 <0>         0.0536
     11 C6          1.4227    1.6154   -0.0028 C.3       1 <0>         0.0498
     12 H6          1.9329    1.2639   -0.8996 H         1 <0>         0.0596
     13 O1          2.1138    1.1420    1.1549 O.3       1 <0>        -0.5351
     14 O2          0.7331    3.6061    1.1813 O.3       1 <0>        -0.6861
     15 P1          1.4428    4.5385    2.2853 P.3       1 <0>         2.1984
     16 O3          2.0120    5.8025    1.6030 O.2       1 <0>        -1.0970
     17 O4          0.3623    4.9699    3.3982 O.3       1 <0>        -0.8931
     18 O5          2.5916    3.7555    2.9592 O.3       1 <0>        -1.1268
     19 O6          0.6426    5.0809   -1.2261 O.3       1 <0>        -0.7160
     20 P2          1.2945    5.9732   -2.3970 P.3       1 <0>         2.1532
     21 O7          2.7960    5.5684   -2.5874 O.2       1 <0>        -1.2036
     22 O8          0.5147    5.7308   -3.7340 O.3       1 <0>        -1.2027
     23 O9          1.2074    7.4885   -2.0089 O.3       1 <0>        -1.1817
     24 O10        -1.4423    3.5833   -0.0474 O.3       1 <0>        -0.5010
     25 O11        -2.0933    1.0980   -1.2214 O.3       1 <0>        -0.7443
     26 P3         -2.6935    0.1674   -2.3901 P.3       1 <0>         2.1420
     27 O12        -2.5140    0.8835   -3.7719 O.2       1 <0>        -1.1905
     28 O13        -1.9334   -1.2024   -2.4091 O.3       1 <0>        -1.2014
     29 O14        -4.2171   -0.0845   -2.1265 O.3       1 <0>        -1.1843
     30 O15        -0.6816    1.5467    1.1837 O.3       1 <0>        -0.4950
     31 H7          2.1657    0.1783    1.2153 H         1 <0>         0.3457
     32 H8         -2.3593    3.2851    0.0259 H         1 <0>         0.3435
     33 H9         -0.2663    1.2624    2.0094 H         1 <0>         0.3385
     34 H10         0.7210    5.5343    4.0967 H         1 <0>         0.3882
@<TRIPOS>BOND
     1    1    2 1
     2    1   11 1
     3    1    3 1
     4    1   30 1
     5    3    4 1
     6    3    5 1
     7    3   25 1
     8    5    6 1
     9    5    7 1
    10    5   24 1
    11    7    8 1
    12    7    9 1
    13    7   19 1
    14    9   10 1
    15    9   11 1
    16    9   14 1
    17   11   12 1
    18   11   13 1
    19   13   31 1
    20   14   15 1
    21   15   16 2
    22   15   17 1
    23   15   18 1
    24   17   34 1
    25   19   20 1
    26   20   21 2
    27   20   22 1
    28   20   23 1
    29   24   32 1
    30   25   26 1
    31   26   27 2
    32   26   28 1
    33   26   29 1
    34   30   33 1
@<TRIPOS>MOLECULE
ZINC26973597
   34    34     0     0     0
SMALL
USER_CHARGES

@<TRIPOS>ATOM
      1 C1         -0.0127    1.0858    0.0080 C.3       1 <0>         0.0868
      2 H1          0.0021   -0.0041    0.0020 H         1 <0>         0.0381
      3 C2         -0.7288    1.5792    1.2668 C.3       1 <0>         0.0588
      4 H2         -1.7514    1.2020    1.2746 H         1 <0>         0.0511
      5 C3         -0.7496    3.1091    1.2752 C.3       1 <0>         0.1886
      6 H3         -1.2598    3.4606    2.1720 H         1 <0>         0.0556
      7 C4          0.6858    3.6387    1.2644 C.3       1 <0>         0.1733
      8 H4          1.2130    3.2776    2.1474 H         1 <0>         0.0572
      9 C5          1.4019    3.1452    0.0056 C.3       1 <0>         0.1009
     10 H5          2.4245    3.5225   -0.0022 H         1 <0>         0.0488
     11 C6          1.4227    1.6154   -0.0028 C.3       1 <0>         0.1502
     12 H6          1.9499    1.2543    0.8802 H         1 <0>         0.0585
     13 O1          2.0915    1.1546   -1.1786 O.3       1 <0>        -0.7486
     14 P1          3.4181    0.2434   -1.1325 P.3       1 <0>         2.1437
     15 O2          4.5139    0.9595   -0.2719 O.2       1 <0>        -1.1909
     16 O3          3.0760   -1.1450   -0.4923 O.3       1 <0>        -1.2021
     17 O4          3.9552    0.0289   -2.5885 O.3       1 <0>        -1.1861
     18 O5          0.7108    3.6186   -1.1521 O.3       1 <0>        -0.5043
     19 O6          0.6664    5.0675    1.2722 O.3       1 <0>        -0.7204
     20 P2          1.3407    5.9472    2.4399 P.3       1 <0>         2.1544
     21 O7          0.7617    5.5055    3.8271 O.2       1 <0>        -1.2047
     22 O8          2.8921    5.7292    2.4283 O.3       1 <0>        -1.2044
     23 O9          1.0246    7.4629    2.2007 O.3       1 <0>        -1.1832
     24 O10        -1.4407    3.5824    0.1175 O.3       1 <0>        -0.6918
     25 P3         -2.7661    4.4929    0.1987 P.3       1 <0>         2.1945
     26 O11        -3.8304    3.7775    1.0602 O.2       1 <0>        -1.1361
     27 O12        -2.4166    5.8553    0.8382 O.3       1 <0>        -1.0847
     28 O13        -3.3464    4.7293   -1.2844 O.3       1 <0>        -0.8921
     29 O14        -0.0377    1.1059    2.4245 O.3       1 <0>        -0.5461
     30 O15        -0.7038    1.5592   -1.1497 O.3       1 <0>        -0.4941
     31 H7          1.1102    3.3433   -1.9887 H         1 <0>         0.3418
     32 H8         -4.1469    5.2711   -1.3117 H         1 <0>         0.3905
     33 H9          0.0142    0.1421    2.4850 H         1 <0>         0.3634
     34 H10        -1.6221    1.2617   -1.2086 H         1 <0>         0.3333
@<TRIPOS>BOND
     1    1    2 1
     2    1   11 1
     3    1    3 1
     4    1   30 1
     5    3    4 1
     6    3    5 1
     7    3   29 1
     8    5    6 1
     9    5    7 1
    10    5   24 1
    11    7    8 1
    12    7    9 1
    13    7   19 1
    14    9   10 1
    15    9   11 1
    16    9   18 1
    17   11   12 1
    18   11   13 1
    19   13   14 1
    20   14   15 2
    21   14   16 1
    22   14   17 1
    23   18   31 1
    24   19   20 1
    25   20   21 2
    26   20   22 1
    27   20   23 1
    28   24   25 1
    29   25   26 2
    30   25   27 1
    31   25   28 1
    32   28   32 1
    33   29   33 1
    34   30   34 1
@<TRIPOS>MOLECULE
ZINC26973597
   34    34     0     0     0
SMALL
USER_CHARGES

@<TRIPOS>ATOM
      1 C1         -0.0127    1.0858    0.0080 C.3       1 <0>         0.0871
      2 H1          0.0021   -0.0041    0.0020 H         1 <0>         0.0339
      3 C2         -0.7288    1.5792    1.2668 C.3       1 <0>         0.0550
      4 H2         -1.7514    1.2020    1.2746 H         1 <0>         0.0565
      5 C3         -0.7496    3.1091    1.2752 C.3       1 <0>         0.1809
      6 H3         -1.2598    3.4606    2.1720 H         1 <0>         0.0428
      7 C4          0.6858    3.6387    1.2644 C.3       1 <0>         0.1818
      8 H4          1.2130    3.2776    2.1474 H         1 <0>         0.0578
      9 C5          1.4019    3.1452    0.0056 C.3       1 <0>         0.1009
     10 H5          2.4245    3.5225   -0.0022 H         1 <0>         0.0411
     11 C6          1.4227    1.6154   -0.0028 C.3       1 <0>         0.1541
     12 H6          1.9499    1.2543    0.8802 H         1 <0>         0.0554
     13 O1          2.0915    1.1546   -1.1786 O.3       1 <0>        -0.7472
     14 P1          3.4181    0.2434   -1.1325 P.3       1 <0>         2.1461
     15 O2          4.5139    0.9596   -0.2719 O.2       1 <0>        -1.1945
     16 O3          3.0760   -1.1450   -0.4923 O.3       1 <0>        -1.2017
     17 O4          3.9551    0.0289   -2.5885 O.3       1 <0>        -1.1860
     18 O5          0.7108    3.6186   -1.1521 O.3       1 <0>        -0.4906
     19 O6          0.6664    5.0675    1.2722 O.3       1 <0>        -0.7160
     20 P2          1.3407    5.9472    2.4399 P.3       1 <0>         2.2215
     21 O7          2.8247    5.5462    2.5951 O.2       1 <0>        -1.1269
     22 O8          1.2437    7.5086    2.0596 O.3       1 <0>        -0.8841
     23 O9          0.5970    5.6939    3.7703 O.3       1 <0>        -1.1222
     24 O10        -1.4407    3.5824    0.1175 O.3       1 <0>        -0.6904
     25 P3         -2.7661    4.4929    0.1987 P.3       1 <0>         2.1547
     26 O11        -3.8454    3.7674    1.0723 O.2       1 <0>        -1.2188
     27 O12        -2.4117    5.8744    0.8471 O.3       1 <0>        -1.1890
     28 O13        -3.3308    4.7230   -1.2444 O.3       1 <0>        -1.1914
     29 O14        -0.0377    1.1059    2.4245 O.3       1 <0>        -0.5570
     30 O15        -0.7038    1.5592   -1.1497 O.3       1 <0>        -0.4905
     31 H7          1.1102    3.3433   -1.9887 H         1 <0>         0.3443
     32 H8          0.0142    0.1421    2.4850 H         1 <0>         0.3605
     33 H9         -1.6221    1.2617   -1.2086 H         1 <0>         0.3433
     34 H10         1.6312    8.0991    2.7201 H         1 <0>         0.3889
@<TRIPOS>BOND
     1    1    2 1
     2    1   11 1
     3    1    3 1
     4    1   30 1
     5    3    4 1
     6    3    5 1
     7    3   29 1
     8    5    6 1
     9    5    7 1
    10    5   24 1
    11    7    8 1
    12    7    9 1
    13    7   19 1
    14    9   10 1
    15    9   11 1
    16    9   18 1
    17   11   12 1
    18   11   13 1
    19   13   14 1
    20   14   15 2
    21   14   16 1
    22   14   17 1
    23   18   31 1
    24   19   20 1
    25   20   21 2
    26   20   22 1
    27   20   23 1
    28   22   34 1
    29   24   25 1
    30   25   26 2
    31   25   27 1
    32   25   28 1
    33   29   32 1
    34   30   33 1
@<TRIPOS>MOLECULE
ZINC26973597
   34    34     0     0     0
SMALL
USER_CHARGES

@<TRIPOS>ATOM
      1 C1         -0.0127    1.0858    0.0080 C.3       1 <0>         0.0926
      2 H1          0.0021   -0.0041    0.0020 H         1 <0>         0.0283
      3 C2         -0.7288    1.5792    1.2668 C.3       1 <0>         0.0545
      4 H2         -1.7514    1.2020    1.2746 H         1 <0>         0.0570
      5 C3         -0.7496    3.1091    1.2752 C.3       1 <0>         0.1760
      6 H3         -1.2598    3.4606    2.1720 H         1 <0>         0.0459
      7 C4          0.6858    3.6387    1.2644 C.3       1 <0>         0.1757
      8 H4          1.2130    3.2776    2.1474 H         1 <0>         0.0438
      9 C5          1.4019    3.1452    0.0056 C.3       1 <0>         0.0991
     10 H5          2.4245    3.5225   -0.0022 H         1 <0>         0.0438
     11 C6          1.4227    1.6154   -0.0028 C.3       1 <0>         0.1563
     12 H6          1.9499    1.2543    0.8802 H         1 <0>         0.0688
     13 O1          2.0915    1.1546   -1.1786 O.3       1 <0>        -0.7486
     14 P1          3.4181    0.2434   -1.1325 P.3       1 <0>         2.2029
     15 O2          3.1476   -1.0174   -0.2815 O.2       1 <0>        -1.1193
     16 O3          3.8202   -0.1951   -2.6285 O.3       1 <0>        -0.8943
     17 O4          4.5757    1.0505   -0.5037 O.3       1 <0>        -1.1066
     18 O5          0.7108    3.6186   -1.1521 O.3       1 <0>        -0.4752
     19 O6          0.6664    5.0675    1.2722 O.3       1 <0>        -0.7097
     20 P2          1.3407    5.9472    2.4399 P.3       1 <0>         2.1608
     21 O7          0.7617    5.5055    3.8271 O.2       1 <0>        -1.2065
     22 O8          2.8921    5.7292    2.4283 O.3       1 <0>        -1.2125
     23 O9          1.0246    7.4629    2.2007 O.3       1 <0>        -1.1828
     24 O10        -1.4407    3.5824    0.1175 O.3       1 <0>        -0.6931
     25 P3         -2.7661    4.4929    0.1987 P.3       1 <0>         2.1465
     26 O11        -3.8454    3.7675    1.0723 O.2       1 <0>        -1.2221
     27 O12        -2.4117    5.8744    0.8471 O.3       1 <0>        -1.1730
     28 O13        -3.3308    4.7229   -1.2444 O.3       1 <0>        -1.1953
     29 O14        -0.0377    1.1059    2.4245 O.3       1 <0>        -0.5489
     30 O15        -0.7038    1.5592   -1.1497 O.3       1 <0>        -0.4929
     31 H7          1.1102    3.3433   -1.9887 H         1 <0>         0.3280
     32 H8          0.0142    0.1421    2.4850 H         1 <0>         0.3518
     33 H9         -1.6221    1.2617   -1.2086 H         1 <0>         0.3502
     34 H10         4.6125   -0.7474   -2.6770 H         1 <0>         0.3988
@<TRIPOS>BOND
     1    1    2 1
     2    1   11 1
     3    1    3 1
     4    1   30 1
     5    3    4 1
     6    3    5 1
     7    3   29 1
     8    5    6 1
     9    5    7 1
    10    5   24 1
    11    7    8 1
    12    7    9 1
    13    7   19 1
    14    9   10 1
    15    9   11 1
    16    9   18 1
    17   11   12 1
    18   11   13 1
    19   13   14 1
    20   14   15 2
    21   14   16 1
    22   14   17 1
    23   16   34 1
    24   18   31 1
    25   19   20 1
    26   20   21 2
    27   20   22 1
    28   20   23 1
    29   24   25 1
    30   25   26 2
    31   25   27 1
    32   25   28 1
    33   29   32 1
    34   30   33 1
@<TRIPOS>MOLECULE
ZINC26973597
   33    33     0     0     0
SMALL
USER_CHARGES

@<TRIPOS>ATOM
      1 C1         -0.0127    1.0858    0.0080 C.3       1 <0>         0.0918
      2 H1          0.0021   -0.0041    0.0020 H         1 <0>         0.0255
      3 C2         -0.7288    1.5792    1.2668 C.3       1 <0>         0.0553
      4 H2         -1.7514    1.2020    1.2746 H         1 <0>         0.0477
      5 C3         -0.7496    3.1091    1.2752 C.3       1 <0>         0.1822
      6 H3         -1.2598    3.4606    2.1720 H         1 <0>         0.0382
      7 C4          0.6858    3.6387    1.2644 C.3       1 <0>         0.1772
      8 H4          1.2130    3.2776    2.1474 H         1 <0>         0.0401
      9 C5          1.4019    3.1452    0.0056 C.3       1 <0>         0.1016
     10 H5          2.4245    3.5225   -0.0022 H         1 <0>         0.0379
     11 C6          1.4227    1.6154   -0.0028 C.3       1 <0>         0.1539
     12 H6          1.9499    1.2543    0.8802 H         1 <0>         0.0521
     13 O1          2.0915    1.1546   -1.1786 O.3       1 <0>        -0.7515
     14 P1          3.4181    0.2434   -1.1325 P.3       1 <0>         2.1521
     15 O2          4.5139    0.9596   -0.2719 O.2       1 <0>        -1.1960
     16 O3          3.0760   -1.1450   -0.4923 O.3       1 <0>        -1.2071
     17 O4          3.9551    0.0289   -2.5885 O.3       1 <0>        -1.1918
     18 O5          0.7108    3.6186   -1.1521 O.3       1 <0>        -0.4860
     19 O6          0.6664    5.0675    1.2722 O.3       1 <0>        -0.7147
     20 P2          1.3407    5.9472    2.4399 P.3       1 <0>         2.1672
     21 O7          0.7616    5.5056    3.8271 O.2       1 <0>        -1.2117
     22 O8          2.8921    5.7291    2.4284 O.3       1 <0>        -1.2141
     23 O9          1.0246    7.4629    2.2007 O.3       1 <0>        -1.1891
     24 O10        -1.4407    3.5824    0.1175 O.3       1 <0>        -0.6921
     25 P3         -2.7661    4.4929    0.1987 P.3       1 <0>         2.1535
     26 O11        -3.8454    3.7674    1.0723 O.2       1 <0>        -1.2267
     27 O12        -2.4117    5.8744    0.8471 O.3       1 <0>        -1.1777
     28 O13        -3.3308    4.7230   -1.2444 O.3       1 <0>        -1.1992
     29 O14        -0.0377    1.1059    2.4245 O.3       1 <0>        -0.5506
     30 O15        -0.7038    1.5592   -1.1497 O.3       1 <0>        -0.4882
     31 H7          1.1102    3.3433   -1.9887 H         1 <0>         0.3320
     32 H8          0.0142    0.1421    2.4850 H         1 <0>         0.3507
     33 H9         -1.6221    1.2617   -1.2086 H         1 <0>         0.3378
@<TRIPOS>BOND
     1    1    2 1
     2    1   11 1
     3    1    3 1
     4    1   30 1
     5    3    4 1
     6    3    5 1
     7    3   29 1
     8    5    6 1
     9    5    7 1
    10    5   24 1
    11    7    8 1
    12    7    9 1
    13    7   19 1
    14    9   10 1
    15    9   11 1
    16    9   18 1
    17   11   12 1
    18   11   13 1
    19   13   14 1
    20   14   15 2
    21   14   16 1
    22   14   17 1
    23   18   31 1
    24   19   20 1
    25   20   21 2
    26   20   22 1
    27   20   23 1
    28   24   25 1
    29   25   26 2
    30   25   27 1
    31   25   28 1
    32   29   32 1
    33   30   33 1
@<TRIPOS>MOLECULE
ZINC26973597
   34    34     0     0     0
SMALL
USER_CHARGES

@<TRIPOS>ATOM
      1 C1         -0.0127    1.0858    0.0080 C.3       1 <0>         0.0694
      2 H1          0.0021   -0.0041    0.0020 H         1 <0>         0.0398
      3 C2         -0.7527    1.5927   -1.2315 C.3       1 <0>         0.1574
      4 H2         -1.7753    1.2154   -1.2238 H         1 <0>         0.0289
      5 C3         -0.0366    1.0992   -2.4903 C.3       1 <0>         0.0764
      6 H3         -0.0218    0.0093   -2.4963 H         1 <0>         0.0274
      7 C4          1.3988    1.6288   -2.5012 C.3       1 <0>         0.1723
      8 H4          1.9090    1.2773   -3.3980 H         1 <0>         0.0447
      9 C5          2.1388    1.1220   -1.2617 C.3       1 <0>         0.1947
     10 H5          2.1536    0.0321   -1.2676 H         1 <0>         0.0374
     11 C6          1.4227    1.6154   -0.0028 C.3       1 <0>         0.0668
     12 H6          1.4079    2.7053    0.0031 H         1 <0>         0.1035
     13 O1          2.1138    1.1420    1.1549 O.3       1 <0>        -0.5531
     14 O2          3.4794    1.6166   -1.2718 O.3       1 <0>        -0.7173
     15 P1          4.7694    0.6533   -1.2893 P.3       1 <0>         2.2362
     16 O3          4.6707   -0.3178   -2.4869 O.2       1 <0>        -1.1307
     17 O4          6.1028    1.5446   -1.4295 O.3       1 <0>        -0.8831
     18 O5          4.8263   -0.1551    0.0261 O.3       1 <0>        -1.1253
     19 O6          1.3794    3.0577   -2.4933 O.3       1 <0>        -0.6858
     20 P2          2.0314    3.9499   -3.6642 P.3       1 <0>         2.1584
     21 O7          3.5329    3.5451   -3.8546 O.2       1 <0>        -1.2046
     22 O8          1.2516    3.7076   -5.0012 O.3       1 <0>        -1.2022
     23 O9          1.9443    5.4652   -3.2761 O.3       1 <0>        -1.1876
     24 O10        -0.7277    1.5726   -3.6480 O.3       1 <0>        -0.5011
     25 O11        -0.7721    3.0215   -1.2237 O.3       1 <0>        -0.6830
     26 P3         -2.1340    3.8799   -1.2060 P.3       1 <0>         2.1584
     27 O12        -3.0391    3.4481   -2.4097 O.2       1 <0>        -1.2068
     28 O13        -2.8959    3.6230    0.1386 O.3       1 <0>        -1.2100
     29 O14        -1.7925    5.4039   -1.3298 O.3       1 <0>        -1.1781
     30 O15        -0.6816    1.5467    1.1837 O.3       1 <0>        -0.5214
     31 H7          1.7144    1.4174    1.9914 H         1 <0>         0.3434
     32 H8         -1.6459    1.2751   -3.7070 H         1 <0>         0.3511
     33 H9         -0.2663    1.2624    2.0094 H         1 <0>         0.3362
     34 H10         6.9206    1.0288   -1.4467 H         1 <0>         0.3878
@<TRIPOS>BOND
     1    1    2 1
     2    1   11 1
     3    1    3 1
     4    1   30 1
     5    3    4 1
     6    3    5 1
     7    3   25 1
     8    5    6 1
     9    5    7 1
    10    5   24 1
    11    7    8 1
    12    7    9 1
    13    7   19 1
    14    9   10 1
    15    9   11 1
    16    9   14 1
    17   11   12 1
    18   11   13 1
    19   13   31 1
    20   14   15 1
    21   15   16 2
    22   15   17 1
    23   15   18 1
    24   17   34 1
    25   19   20 1
    26   20   21 2
    27   20   22 1
    28   20   23 1
    29   24   32 1
    30   25   26 1
    31   26   27 2
    32   26   28 1
    33   26   29 1
    34   30   33 1
@<TRIPOS>MOLECULE
ZINC26973607
   34    34     0     0     0
SMALL
USER_CHARGES

@<TRIPOS>ATOM
      1 C1         -0.0127    1.0858    0.0080 C.3       1 <0>         0.0726
      2 H1          0.0021   -0.0041    0.0020 H         1 <0>         0.0753
      3 C2         -0.7527    1.5927   -1.2315 C.3       1 <0>         0.0669
      4 H2         -1.7753    1.2154   -1.2238 H         1 <0>         0.0514
      5 C3         -0.0366    1.0992   -2.4903 C.3       1 <0>         0.1825
      6 H3         -0.5637    1.4603   -3.3734 H         1 <0>         0.0636
      7 C4          1.3988    1.6288   -2.5012 C.3       1 <0>         0.1720
      8 H4          1.3840    2.7187   -2.4952 H         1 <0>         0.0641
      9 C5          2.1388    1.1220   -1.2617 C.3       1 <0>         0.0967
     10 H5          3.1614    1.4993   -1.2694 H         1 <0>         0.0614
     11 C6          1.4227    1.6154   -0.0028 C.3       1 <0>         0.1564
     12 H6          1.4079    2.7053    0.0031 H         1 <0>         0.0565
     13 O1          2.1138    1.1420    1.1549 O.3       1 <0>        -0.7530
     14 P1          2.7494    2.1254    2.2599 P.3       1 <0>         2.1476
     15 O2          3.7261    3.1326    1.5627 O.2       1 <0>        -1.1952
     16 O3          1.6028    2.9192    2.9738 O.3       1 <0>        -1.1906
     17 O4          3.5378    1.2814    3.3184 O.3       1 <0>        -1.1909
     18 O5          2.1582   -0.3069   -1.2695 O.3       1 <0>        -0.5232
     19 O6          2.0677    1.1680   -3.6769 O.3       1 <0>        -0.7204
     20 P2          2.6821    2.1632   -4.7832 P.3       1 <0>         2.1523
     21 O7          1.5651    3.1409   -5.2840 O.2       1 <0>        -1.2030
     22 O8          3.8533    2.9889   -4.1499 O.3       1 <0>        -1.2029
     23 O9          3.2259    1.3284   -5.9923 O.3       1 <0>        -1.1818
     24 O10        -0.0172   -0.3296   -2.4982 O.3       1 <0>        -0.7125
     25 P3         -0.6915   -1.2093   -3.6659 P.3       1 <0>         2.1954
     26 O11        -2.1755   -0.8083   -3.8211 O.2       1 <0>        -1.1315
     27 O12         0.0522   -0.9561   -4.9962 O.3       1 <0>        -1.0796
     28 O13        -0.5944   -2.7707   -3.2856 O.3       1 <0>        -0.8943
     29 O14        -0.7721    3.0215   -1.2237 O.3       1 <0>        -0.5463
     30 O15        -0.6816    1.5467    1.1837 O.3       1 <0>        -0.5337
     31 H7          2.6125   -0.6982   -0.5109 H         1 <0>         0.3462
     32 H8         -0.9820   -3.3612   -3.9460 H         1 <0>         0.3929
     33 H9         -1.2117    3.4046   -0.4523 H         1 <0>         0.3674
     34 H10        -1.5985    1.2485    1.2570 H         1 <0>         0.3377
@<TRIPOS>BOND
     1    1    2 1
     2    1   11 1
     3    1    3 1
     4    1   30 1
     5    3    4 1
     6    3    5 1
     7    3   29 1
     8    5    6 1
     9    5    7 1
    10    5   24 1
    11    7    8 1
    12    7    9 1
    13    7   19 1
    14    9   10 1
    15    9   11 1
    16    9   18 1
    17   11   12 1
    18   11   13 1
    19   13   14 1
    20   14   15 2
    21   14   16 1
    22   14   17 1
    23   18   31 1
    24   19   20 1
    25   20   21 2
    26   20   22 1
    27   20   23 1
    28   24   25 1
    29   25   26 2
    30   25   27 1
    31   25   28 1
    32   28   32 1
    33   29   33 1
    34   30   34 1
@<TRIPOS>MOLECULE
ZINC26973607
   34    34     0     0     0
SMALL
USER_CHARGES

@<TRIPOS>ATOM
      1 C1         -0.0127    1.0858    0.0080 C.3       1 <0>         0.0710
      2 H1          0.0021   -0.0041    0.0020 H         1 <0>         0.0828
      3 C2         -0.7527    1.5927   -1.2315 C.3       1 <0>         0.0651
      4 H2         -1.7753    1.2154   -1.2238 H         1 <0>         0.0574
      5 C3         -0.0366    1.0992   -2.4903 C.3       1 <0>         0.1749
      6 H3         -0.5637    1.4603   -3.3734 H         1 <0>         0.0514
      7 C4          1.3988    1.6288   -2.5012 C.3       1 <0>         0.1807
      8 H4          1.3840    2.7187   -2.4952 H         1 <0>         0.0648
      9 C5          2.1388    1.1220   -1.2617 C.3       1 <0>         0.0963
     10 H5          3.1614    1.4993   -1.2694 H         1 <0>         0.0542
     11 C6          1.4227    1.6154   -0.0028 C.3       1 <0>         0.1608
     12 H6          1.4079    2.7053    0.0031 H         1 <0>         0.0542
     13 O1          2.1138    1.1420    1.1549 O.3       1 <0>        -0.7514
     14 P1          2.7494    2.1254    2.2599 P.3       1 <0>         2.1498
     15 O2          3.7261    3.1326    1.5627 O.2       1 <0>        -1.1987
     16 O3          1.6028    2.9192    2.9738 O.3       1 <0>        -1.1900
     17 O4          3.5378    1.2814    3.3184 O.3       1 <0>        -1.1906
     18 O5          2.1582   -0.3069   -1.2695 O.3       1 <0>        -0.5097
     19 O6          2.0677    1.1680   -3.6769 O.3       1 <0>        -0.7165
     20 P2          2.6821    2.1632   -4.7832 P.3       1 <0>         2.2208
     21 O7          3.6584    3.1491   -4.1035 O.2       1 <0>        -1.1254
     22 O8          3.4713    1.3077   -5.8956 O.3       1 <0>        -0.8842
     23 O9          1.5383    2.9534   -5.4571 O.3       1 <0>        -1.1206
     24 O10        -0.0172   -0.3296   -2.4982 O.3       1 <0>        -0.7111
     25 P3         -0.6915   -1.2093   -3.6659 P.3       1 <0>         2.1528
     26 O11        -2.1963   -0.8027   -3.8233 O.2       1 <0>        -1.2140
     27 O12         0.0627   -0.9525   -5.0149 O.3       1 <0>        -1.1837
     28 O13        -0.5971   -2.7287   -3.2958 O.3       1 <0>        -1.1907
     29 O14        -0.7721    3.0215   -1.2237 O.3       1 <0>        -0.5570
     30 O15        -0.6816    1.5467    1.1837 O.3       1 <0>        -0.5378
     31 H7          2.6125   -0.6982   -0.5109 H         1 <0>         0.3490
     32 H8         -1.2117    3.4046   -0.4523 H         1 <0>         0.3649
     33 H9         -1.5985    1.2485    1.2570 H         1 <0>         0.3411
     34 H10         3.8686    1.8439   -6.5954 H         1 <0>         0.3895
@<TRIPOS>BOND
     1    1    2 1
     2    1   11 1
     3    1    3 1
     4    1   30 1
     5    3    4 1
     6    3    5 1
     7    3   29 1
     8    5    6 1
     9    5    7 1
    10    5   24 1
    11    7    8 1
    12    7    9 1
    13    7   19 1
    14    9   10 1
    15    9   11 1
    16    9   18 1
    17   11   12 1
    18   11   13 1
    19   13   14 1
    20   14   15 2
    21   14   16 1
    22   14   17 1
    23   18   31 1
    24   19   20 1
    25   20   21 2
    26   20   22 1
    27   20   23 1
    28   22   34 1
    29   24   25 1
    30   25   26 2
    31   25   27 1
    32   25   28 1
    33   29   32 1
    34   30   33 1
@<TRIPOS>MOLECULE
ZINC26973607
   33    33     0     0     0
SMALL
USER_CHARGES

@<TRIPOS>ATOM
      1 C1         -0.0127    1.0858    0.0080 C.3       1 <0>         0.0735
      2 H1          0.0021   -0.0041    0.0020 H         1 <0>         0.0806
      3 C2         -0.7527    1.5927   -1.2315 C.3       1 <0>         0.0663
      4 H2         -1.7753    1.2154   -1.2238 H         1 <0>         0.0486
      5 C3         -0.0366    1.0992   -2.4903 C.3       1 <0>         0.1760
      6 H3         -0.5637    1.4603   -3.3734 H         1 <0>         0.0469
      7 C4          1.3988    1.6288   -2.5012 C.3       1 <0>         0.1759
      8 H4          1.3840    2.7187   -2.4952 H         1 <0>         0.0473
      9 C5          2.1388    1.1220   -1.2617 C.3       1 <0>         0.0966
     10 H5          3.1614    1.4993   -1.2694 H         1 <0>         0.0511
     11 C6          1.4227    1.6154   -0.0028 C.3       1 <0>         0.1622
     12 H6          1.4079    2.7053    0.0031 H         1 <0>         0.0507
     13 O1          2.1138    1.1420    1.1549 O.3       1 <0>        -0.7559
     14 P1          2.7494    2.1254    2.2599 P.3       1 <0>         2.1562
     15 O2          3.7261    3.1326    1.5627 O.2       1 <0>        -1.2002
     16 O3          1.6028    2.9192    2.9738 O.3       1 <0>        -1.1955
     17 O4          3.5378    1.2814    3.3184 O.3       1 <0>        -1.1965
     18 O5          2.1582   -0.3069   -1.2695 O.3       1 <0>        -0.5052
     19 O6          2.0677    1.1680   -3.6769 O.3       1 <0>        -0.7147
     20 P2          2.6821    2.1632   -4.7832 P.3       1 <0>         2.1653
     21 O7          1.5651    3.1409   -5.2840 O.2       1 <0>        -1.2101
     22 O8          3.8533    2.9889   -4.1499 O.3       1 <0>        -1.2126
     23 O9          3.2259    1.3284   -5.9922 O.3       1 <0>        -1.1877
     24 O10        -0.0172   -0.3296   -2.4982 O.3       1 <0>        -0.7132
     25 P3         -0.6915   -1.2093   -3.6659 P.3       1 <0>         2.1520
     26 O11        -2.1963   -0.8027   -3.8233 O.2       1 <0>        -1.2220
     27 O12         0.0627   -0.9525   -5.0149 O.3       1 <0>        -1.1724
     28 O13        -0.5971   -2.7287   -3.2958 O.3       1 <0>        -1.1986
     29 O14        -0.7721    3.0215   -1.2237 O.3       1 <0>        -0.5508
     30 O15        -0.6816    1.5467    1.1837 O.3       1 <0>        -0.5412
     31 H7          2.6125   -0.6982   -0.5109 H         1 <0>         0.3367
     32 H8         -1.2117    3.4046   -0.4523 H         1 <0>         0.3553
     33 H9         -1.5985    1.2485    1.2570 H         1 <0>         0.3352
@<TRIPOS>BOND
     1    1    2 1
     2    1   11 1
     3    1    3 1
     4    1   30 1
     5    3    4 1
     6    3    5 1
     7    3   29 1
     8    5    6 1
     9    5    7 1
    10    5   24 1
    11    7    8 1
    12    7    9 1
    13    7   19 1
    14    9   10 1
    15    9   11 1
    16    9   18 1
    17   11   12 1
    18   11   13 1
    19   13   14 1
    20   14   15 2
    21   14   16 1
    22   14   17 1
    23   18   31 1
    24   19   20 1
    25   20   21 2
    26   20   22 1
    27   20   23 1
    28   24   25 1
    29   25   26 2
    30   25   27 1
    31   25   28 1
    32   29   32 1
    33   30   33 1
@<TRIPOS>MOLECULE
ZINC26973607
   34    34     0     0     0
SMALL
USER_CHARGES

@<TRIPOS>ATOM
      1 C1         -0.0127    1.0858    0.0080 C.3       1 <0>         0.0735
      2 H1          0.0021   -0.0041    0.0020 H         1 <0>         0.0889
      3 C2         -0.7527    1.5927   -1.2315 C.3       1 <0>         0.0663
      4 H2         -1.7753    1.2154   -1.2238 H         1 <0>         0.0579
      5 C3         -0.0366    1.0992   -2.4903 C.3       1 <0>         0.1698
      6 H3         -0.5637    1.4603   -3.3734 H         1 <0>         0.0546
      7 C4          1.3988    1.6288   -2.5012 C.3       1 <0>         0.1743
      8 H4          1.3840    2.7187   -2.4952 H         1 <0>         0.0509
      9 C5          2.1388    1.1220   -1.2617 C.3       1 <0>         0.0937
     10 H5          3.1614    1.4993   -1.2694 H         1 <0>         0.0573
     11 C6          1.4227    1.6154   -0.0028 C.3       1 <0>         0.1660
     12 H6          1.4079    2.7053    0.0031 H         1 <0>         0.0673
     13 O1          2.1138    1.1420    1.1549 O.3       1 <0>        -0.7535
     14 P1          2.7494    2.1254    2.2599 P.3       1 <0>         2.2047
     15 O2          1.6575    3.0841    2.7850 O.2       1 <0>        -1.1067
     16 O3          3.3317    1.2542    3.4822 O.3       1 <0>        -0.8972
     17 O4          3.8923    2.9464    1.6222 O.3       1 <0>        -1.1098
     18 O5          2.1582   -0.3069   -1.2695 O.3       1 <0>        -0.4944
     19 O6          2.0677    1.1680   -3.6769 O.3       1 <0>        -0.7095
     20 P2          2.6821    2.1632   -4.7832 P.3       1 <0>         2.1586
     21 O7          1.5651    3.1410   -5.2840 O.2       1 <0>        -1.2048
     22 O8          3.8534    2.9889   -4.1499 O.3       1 <0>        -1.2110
     23 O9          3.2259    1.3284   -5.9923 O.3       1 <0>        -1.1813
     24 O10        -0.0172   -0.3296   -2.4982 O.3       1 <0>        -0.7138
     25 P3         -0.6915   -1.2093   -3.6659 P.3       1 <0>         2.1446
     26 O11        -2.1963   -0.8027   -3.8233 O.2       1 <0>        -1.2173
     27 O12         0.0627   -0.9525   -5.0149 O.3       1 <0>        -1.1676
     28 O13        -0.5971   -2.7287   -3.2958 O.3       1 <0>        -1.1946
     29 O14        -0.7721    3.0215   -1.2237 O.3       1 <0>        -0.5489
     30 O15        -0.6816    1.5467    1.1837 O.3       1 <0>        -0.5555
     31 H7          2.6125   -0.6982   -0.5109 H         1 <0>         0.3327
     32 H8         -1.2117    3.4046   -0.4523 H         1 <0>         0.3566
     33 H9         -1.5985    1.2485    1.2570 H         1 <0>         0.3499
     34 H10         3.7309    1.7827    4.1867 H         1 <0>         0.3983
@<TRIPOS>BOND
     1    1    2 1
     2    1   11 1
     3    1    3 1
     4    1   30 1
     5    3    4 1
     6    3    5 1
     7    3   29 1
     8    5    6 1
     9    5    7 1
    10    5   24 1
    11    7    8 1
    12    7    9 1
    13    7   19 1
    14    9   10 1
    15    9   11 1
    16    9   18 1
    17   11   12 1
    18   11   13 1
    19   13   14 1
    20   14   15 2
    21   14   16 1
    22   14   17 1
    23   16   34 1
    24   18   31 1
    25   19   20 1
    26   20   21 2
    27   20   22 1
    28   20   23 1
    29   24   25 1
    30   25   26 2
    31   25   27 1
    32   25   28 1
    33   29   32 1
    34   30   33 1
@<TRIPOS>MOLECULE
ZINC26973607
   34    34     0     0     0
SMALL
USER_CHARGES

@<TRIPOS>ATOM
      1 C1         -0.0127    1.0858    0.0080 C.3       1 <0>         0.0731
      2 H1          0.0021   -0.0041    0.0020 H         1 <0>         0.0754
      3 C2         -0.7288    1.5792    1.2668 C.3       1 <0>         0.1564
      4 H2         -0.7436    2.6691    1.2728 H         1 <0>         0.0565
      5 C3          0.0111    1.0724    2.5063 C.3       1 <0>         0.0964
      6 H3         -0.4990    1.4239    3.4031 H         1 <0>         0.0613
      7 C4          1.4465    1.6020    2.4955 C.3       1 <0>         0.1726
      8 H4          1.4318    2.6919    2.5015 H         1 <0>         0.0644
      9 C5          2.1627    1.1086    1.2367 C.3       1 <0>         0.1827
     10 H5          3.1853    1.4858    1.2289 H         1 <0>         0.0638
     11 C6          1.4227    1.6154   -0.0028 C.3       1 <0>         0.0662
     12 H6          1.9329    1.2639   -0.8996 H         1 <0>         0.0526
     13 O1          1.4033    3.0442    0.0050 O.3       1 <0>        -0.5468
     14 O2          2.1820   -0.3203    1.2288 O.3       1 <0>        -0.7133
     15 P1          3.5440   -1.1787    1.2112 P.3       1 <0>         2.1995
     16 O3          4.4365   -0.7529    2.3983 O.2       1 <0>        -1.0843
     17 O4          3.1930   -2.7448    1.3384 O.3       1 <0>        -0.8925
     18 O5          4.2953   -0.9254   -0.1148 O.3       1 <0>        -1.1321
     19 O6          2.1377    1.1286    3.6532 O.3       1 <0>        -0.7224
     20 P2          2.7732    2.1120    4.7582 P.3       1 <0>         2.1534
     21 O7          3.7499    3.1192    4.0610 O.2       1 <0>        -1.2021
     22 O8          1.6267    2.9058    5.4722 O.3       1 <0>        -1.2031
     23 O9          3.5616    1.2680    5.8168 O.3       1 <0>        -1.1831
     24 O10         0.0305   -0.3564    2.4985 O.3       1 <0>        -0.5237
     25 O11        -2.0695    1.0846    1.2770 O.3       1 <0>        -0.7530
     26 P3         -3.3594    2.0479    1.2944 P.3       1 <0>         2.1477
     27 O12        -3.2594    3.0326    2.5088 O.2       1 <0>        -1.1953
     28 O13        -3.4171    2.8677   -0.0393 O.3       1 <0>        -1.1905
     29 O14        -4.6570    1.1806    1.4309 O.3       1 <0>        -1.1909
     30 O15        -0.7038    1.5592   -1.1497 O.3       1 <0>        -0.5338
     31 H7          0.9490    3.4356   -0.7536 H         1 <0>         0.3676
     32 H8         -0.8474   -0.7617    2.5047 H         1 <0>         0.3466
     33 H9         -0.3044    1.2838   -1.9862 H         1 <0>         0.3381
     34 H10         3.9680   -3.3231    1.3346 H         1 <0>         0.3927
@<TRIPOS>BOND
     1    1    2 1
     2    1   11 1
     3    1    3 1
     4    1   30 1
     5    3    4 1
     6    3    5 1
     7    3   25 1
     8    5    6 1
     9    5    7 1
    10    5   24 1
    11    7    8 1
    12    7    9 1
    13    7   19 1
    14    9   10 1
    15    9   11 1
    16    9   14 1
    17   11   12 1
    18   11   13 1
    19   13   31 1
    20   14   15 1
    21   15   16 2
    22   15   17 1
    23   15   18 1
    24   17   34 1
    25   19   20 1
    26   20   21 2
    27   20   22 1
    28   20   23 1
    29   24   32 1
    30   25   26 1
    31   26   27 2
    32   26   28 1
    33   26   29 1
    34   30   33 1
