@<TRIPOS>MOLECULE
ZINC17654244
   61    60     0     0     0
SMALL
USER_CHARGES
(5Z,8Z,11Z,14Z)-1-(fluoro-methoxy-phosphoryl)icosa-5,8,11,14-tetraene
@<TRIPOS>ATOM
      1 C1        -11.8196   13.2176    9.8711 C.3       1 <0>        -0.1543
      2 C2        -10.9707   13.0657    8.6073 C.3       1 <0>        -0.1259
      3 C3        -11.6929   12.1528    7.6145 C.3       1 <0>        -0.1214
      4 C4        -10.8440   12.0009    6.3507 C.3       1 <0>        -0.1145
      5 C5        -11.5663   11.0879    5.3578 C.3       1 <0>        -0.1025
      6 C6        -10.7302   10.9383    4.1130 C.2       1 <0>        -0.1583
      7 C7        -10.4412    9.7445    3.6577 C.2       1 <0>        -0.1532
      8 C8        -11.0768    8.5271    4.2782 C.3       1 <0>        -0.0835
      9 C9        -11.7351    7.7011    3.2034 C.2       1 <0>        -0.1510
     10 C10       -11.4475    6.4284    3.0870 C.2       1 <0>        -0.1520
     11 C11       -10.5979    5.7494    4.1301 C.3       1 <0>        -0.0842
     12 C12       -11.3122    4.5243    4.6402 C.2       1 <0>        -0.1501
     13 C13       -10.7100    3.3610    4.6246 C.2       1 <0>        -0.1521
     14 C14        -9.2524    3.2720    4.2528 C.3       1 <0>        -0.0854
     15 C15        -8.5067    2.5148    5.3213 C.2       1 <0>        -0.1476
     16 C16        -7.7706    1.4804    4.9984 C.2       1 <0>        -0.1622
     17 C17        -7.5360    1.1459    3.5479 C.3       1 <0>        -0.1044
     18 C18        -6.0339    1.0055    3.2934 C.3       1 <0>        -0.1085
     19 C19        -5.7957    0.6658    1.8207 C.3       1 <0>        -0.1174
     20 C20        -4.2936    0.5254    1.5661 C.3       1 <0>        -0.7259
     21 P1         -4.0098    0.1207   -0.1886 P.3       1 <0>         2.2098
     22 O1         -4.5553    1.2024   -1.0388 O.2       1 <0>        -0.9851
     23 O2         -2.4291   -0.0270   -0.4564 O.3       1 <0>        -0.7306
     24 C21        -1.8831   -0.3417   -1.7390 C.3       1 <0>         0.0716
     25 F1         -4.7739   -1.3173   -0.5588 F         1 <0>        -0.3637
     26 H1        -11.9748   12.2386   10.3244 H         1 <0>         0.0533
     27 H2        -11.3050   13.8680   10.5784 H         1 <0>         0.0535
     28 H3        -12.7837   13.6545    9.6109 H         1 <0>         0.0535
     29 H4        -10.0066   12.6288    8.8676 H         1 <0>         0.0604
     30 H5        -10.8154   14.0448    8.1540 H         1 <0>         0.0607
     31 H6        -12.6570   12.5897    7.3542 H         1 <0>         0.0614
     32 H7        -11.8482   11.1737    8.0677 H         1 <0>         0.0609
     33 H8         -9.8799   11.5640    6.6109 H         1 <0>         0.0617
     34 H9        -10.6888   12.9799    5.8974 H         1 <0>         0.0618
     35 H10       -12.5304   11.5248    5.0976 H         1 <0>         0.0689
     36 H11       -11.7216   10.1089    5.8111 H         1 <0>         0.0754
     37 H12       -10.3692   11.8153    3.5963 H         1 <0>         0.1090
     38 H13        -9.7474    9.6327    2.8376 H         1 <0>         0.1088
     39 H14       -11.8255    8.8394    5.0063 H         1 <0>         0.0838
     40 H15       -10.3116    7.9318    4.7765 H         1 <0>         0.0822
     41 H16       -12.4441    8.1584    2.5291 H         1 <0>         0.1102
     42 H17       -11.8193    5.8657    2.2434 H         1 <0>         0.1106
     43 H18       -10.4195    6.4367    4.9571 H         1 <0>         0.0833
     44 H19        -9.6451    5.4570    3.6886 H         1 <0>         0.0832
     45 H20       -12.3204    4.6055    5.0186 H         1 <0>         0.1105
     46 H21       -11.2583    2.4658    4.8782 H         1 <0>         0.1102
     47 H22        -8.8383    4.2763    4.1630 H         1 <0>         0.0841
     48 H23        -9.1514    2.7509    3.3007 H         1 <0>         0.0847
     49 H24        -8.5793    2.8250    6.3533 H         1 <0>         0.1099
     50 H25        -7.3318    0.8674    5.7718 H         1 <0>         0.1089
     51 H26        -7.9377    1.9425    2.9217 H         1 <0>         0.0806
     52 H27        -8.0347    0.2073    3.3062 H         1 <0>         0.0728
     53 H28        -5.6321    0.2089    3.9195 H         1 <0>         0.0625
     54 H29        -5.5351    1.9441    3.5350 H         1 <0>         0.0648
     55 H30        -6.1974    1.4625    1.1945 H         1 <0>         0.0878
     56 H31        -6.2944   -0.2728    1.5790 H         1 <0>         0.0746
     57 H32        -3.8918   -0.2712    2.1923 H         1 <0>         0.1025
     58 H33        -3.7948    1.4640    1.8078 H         1 <0>         0.1213
     59 H34        -2.2668   -1.3066   -2.0704 H         1 <0>         0.0612
     60 H35        -0.7963   -0.3872   -1.6700 H         1 <0>         0.1019
     61 H36        -2.1698    0.4286   -2.4549 H         1 <0>         0.0714
@<TRIPOS>BOND
     1    1    2 1
     2    1   26 1
     3    1   27 1
     4    1   28 1
     5    2    3 1
     6    2   29 1
     7    2   30 1
     8    3    4 1
     9    3   31 1
    10    3   32 1
    11    4    5 1
    12    4   33 1
    13    4   34 1
    14    5    6 1
    15    5   35 1
    16    5   36 1
    17    6    7 2
    18    6   37 1
    19    7    8 1
    20    7   38 1
    21    8    9 1
    22    8   39 1
    23    8   40 1
    24    9   10 2
    25    9   41 1
    26   10   11 1
    27   10   42 1
    28   11   12 1
    29   11   43 1
    30   11   44 1
    31   12   13 2
    32   12   45 1
    33   13   14 1
    34   13   46 1
    35   14   15 1
    36   14   47 1
    37   14   48 1
    38   15   16 2
    39   15   49 1
    40   16   17 1
    41   16   50 1
    42   17   18 1
    43   17   51 1
    44   17   52 1
    45   18   19 1
    46   18   53 1
    47   18   54 1
    48   19   20 1
    49   19   55 1
    50   19   56 1
    51   20   21 1
    52   20   57 1
    53   20   58 1
    54   21   22 2
    55   21   23 1
    56   21   25 1
    57   23   24 1
    58   24   59 1
    59   24   60 1
    60   24   61 1
@<TRIPOS>MOLECULE
ZINC17654246
   61    60     0     0     0
SMALL
USER_CHARGES
(5Z,8Z,11Z,14Z)-1-(fluoro-methoxy-phosphoryl)icosa-5,8,11,14-tetraene
@<TRIPOS>ATOM
      1 C1        -11.8196   13.2177    9.8709 C.3       1 <0>        -0.1543
      2 C2        -10.9707   13.0658    8.6072 C.3       1 <0>        -0.1259
      3 C3        -11.6930   12.1528    7.6143 C.3       1 <0>        -0.1215
      4 C4        -10.8441   12.0009    6.3505 C.3       1 <0>        -0.1144
      5 C5        -11.5664   11.0880    5.3577 C.3       1 <0>        -0.1027
      6 C6        -10.7302   10.9383    4.1129 C.2       1 <0>        -0.1578
      7 C7        -10.4412    9.7445    3.6576 C.2       1 <0>        -0.1535
      8 C8        -11.0768    8.5271    4.2781 C.3       1 <0>        -0.0836
      9 C9        -11.7352    7.7011    3.2033 C.2       1 <0>        -0.1508
     10 C10       -11.4476    6.4284    3.0869 C.2       1 <0>        -0.1523
     11 C11       -10.5979    5.7494    4.1300 C.3       1 <0>        -0.0837
     12 C12       -11.3122    4.5244    4.6401 C.2       1 <0>        -0.1507
     13 C13       -10.7101    3.3610    4.6245 C.2       1 <0>        -0.1519
     14 C14        -9.2524    3.2720    4.2527 C.3       1 <0>        -0.0847
     15 C15        -8.5067    2.5148    5.3213 C.2       1 <0>        -0.1493
     16 C16        -7.7706    1.4805    4.9984 C.2       1 <0>        -0.1608
     17 C17        -7.5360    1.1459    3.5479 C.3       1 <0>        -0.1046
     18 C18        -6.0339    1.0055    3.2933 C.3       1 <0>        -0.1085
     19 C19        -5.7957    0.6658    1.8207 C.3       1 <0>        -0.1173
     20 C20        -4.2936    0.5254    1.5661 C.3       1 <0>        -0.7260
     21 P1         -4.0098    0.1207   -0.1886 P.3       1 <0>         2.2100
     22 O1         -4.6870   -1.1537   -0.5167 O.2       1 <0>        -0.9853
     23 O2         -2.4291   -0.0270   -0.4564 O.3       1 <0>        -0.7306
     24 C21        -1.8831   -0.3417   -1.7390 C.3       1 <0>         0.0715
     25 F1         -4.6253    1.3412   -1.1480 F         1 <0>        -0.3637
     26 H1        -12.7837   13.6546    9.6107 H         1 <0>         0.0535
     27 H2        -11.9749   12.2387   10.3242 H         1 <0>         0.0533
     28 H3        -11.3050   13.8681   10.5783 H         1 <0>         0.0536
     29 H4        -10.0066   12.6289    8.8674 H         1 <0>         0.0603
     30 H5        -10.8155   14.0448    8.1539 H         1 <0>         0.0606
     31 H6        -12.6571   12.5897    7.3540 H         1 <0>         0.0615
     32 H7        -11.8482   11.1738    8.0676 H         1 <0>         0.0609
     33 H8         -9.8800   11.5640    6.6108 H         1 <0>         0.0617
     34 H9        -10.6888   12.9799    5.8972 H         1 <0>         0.0618
     35 H10       -12.5305   11.5249    5.0974 H         1 <0>         0.0691
     36 H11       -11.7216   10.1089    5.8110 H         1 <0>         0.0755
     37 H12       -10.3693   11.8153    3.5961 H         1 <0>         0.1090
     38 H13        -9.7474    9.6327    2.8375 H         1 <0>         0.1085
     39 H14       -11.8255    8.8394    5.0062 H         1 <0>         0.0839
     40 H15       -10.3117    7.9318    4.7764 H         1 <0>         0.0822
     41 H16       -12.4441    8.1584    2.5290 H         1 <0>         0.1102
     42 H17       -11.8193    5.8657    2.2433 H         1 <0>         0.1105
     43 H18       -10.4195    6.4367    4.9570 H         1 <0>         0.0832
     44 H19        -9.6452    5.4570    3.6886 H         1 <0>         0.0827
     45 H20       -12.3205    4.6055    5.0185 H         1 <0>         0.1106
     46 H21       -11.2583    2.4658    4.8782 H         1 <0>         0.1104
     47 H22        -8.8383    4.2763    4.1630 H         1 <0>         0.0835
     48 H23        -9.1514    2.7509    3.3007 H         1 <0>         0.0843
     49 H24        -8.5793    2.8250    6.3532 H         1 <0>         0.1099
     50 H25        -7.3318    0.8675    5.7718 H         1 <0>         0.1093
     51 H26        -7.9377    1.9425    2.9217 H         1 <0>         0.0794
     52 H27        -8.0347    0.2073    3.3062 H         1 <0>         0.0744
     53 H28        -5.6321    0.2089    3.9195 H         1 <0>         0.0646
     54 H29        -5.5351    1.9441    3.5350 H         1 <0>         0.0628
     55 H30        -6.1974    1.4624    1.1945 H         1 <0>         0.0742
     56 H31        -6.2944   -0.2728    1.5790 H         1 <0>         0.0882
     57 H32        -3.8918   -0.2712    2.1923 H         1 <0>         0.1214
     58 H33        -3.7948    1.4640    1.8078 H         1 <0>         0.1025
     59 H34        -2.2668   -1.3067   -2.0703 H         1 <0>         0.0714
     60 H35        -0.7962   -0.3872   -1.6699 H         1 <0>         0.1019
     61 H36        -2.1698    0.4286   -2.4549 H         1 <0>         0.0612
@<TRIPOS>BOND
     1    1    2 1
     2    1   26 1
     3    1   27 1
     4    1   28 1
     5    2    3 1
     6    2   29 1
     7    2   30 1
     8    3    4 1
     9    3   31 1
    10    3   32 1
    11    4    5 1
    12    4   33 1
    13    4   34 1
    14    5    6 1
    15    5   35 1
    16    5   36 1
    17    6    7 2
    18    6   37 1
    19    7    8 1
    20    7   38 1
    21    8    9 1
    22    8   39 1
    23    8   40 1
    24    9   10 2
    25    9   41 1
    26   10   11 1
    27   10   42 1
    28   11   12 1
    29   11   43 1
    30   11   44 1
    31   12   13 2
    32   12   45 1
    33   13   14 1
    34   13   46 1
    35   14   15 1
    36   14   47 1
    37   14   48 1
    38   15   16 2
    39   15   49 1
    40   16   17 1
    41   16   50 1
    42   17   18 1
    43   17   51 1
    44   17   52 1
    45   18   19 1
    46   18   53 1
    47   18   54 1
    48   19   20 1
    49   19   55 1
    50   19   56 1
    51   20   21 1
    52   20   57 1
    53   20   58 1
    54   21   22 2
    55   21   23 1
    56   21   25 1
    57   23   24 1
    58   24   59 1
    59   24   60 1
    60   24   61 1
@<TRIPOS>MOLECULE
ZINC03813524
   56    55     0     0     0
SMALL
USER_CHARGES

@<TRIPOS>ATOM
      1 C1          1.4699    3.0103    1.6795 C.3       1 <0>        -0.1543
      2 C2          1.1470    1.5224    1.8304 C.3       1 <0>        -0.1260
      3 C3          2.2011    0.8593    2.7193 C.3       1 <0>        -0.1214
      4 C4          1.8782   -0.6286    2.8702 C.3       1 <0>        -0.1145
      5 C5          2.9323   -1.2916    3.7591 C.3       1 <0>        -0.1026
      6 C6          2.6142   -2.7572    3.9077 C.2       1 <0>        -0.1576
      7 C7          3.5316   -3.6560    3.6493 C.2       1 <0>        -0.1540
      8 C8          4.9477   -3.2268    3.3638 C.3       1 <0>        -0.0836
      9 C9          5.8898   -3.9597    4.2837 C.2       1 <0>        -0.1502
     10 C10         6.9144   -4.6095    3.7897 C.2       1 <0>        -0.1530
     11 C11         7.2468   -4.4906    2.3247 C.3       1 <0>        -0.0838
     12 C12         8.6877   -4.0777    2.1683 C.2       1 <0>        -0.1500
     13 C13         9.4920   -4.7809    1.4103 C.2       1 <0>        -0.1531
     14 C14         8.9417   -5.8950    0.5577 C.3       1 <0>        -0.0844
     15 C15         9.3779   -5.6965   -0.8711 C.2       1 <0>        -0.1473
     16 C16         9.9891   -6.6633   -1.5096 C.2       1 <0>        -0.1612
     17 C17        10.1105   -8.0256   -0.8767 C.3       1 <0>        -0.1010
     18 C18         9.5949   -9.0878   -1.8497 C.3       1 <0>        -0.1078
     19 C19         9.7182  -10.4708   -1.2070 C.3       1 <0>        -0.1636
     20 C20         9.2103  -11.5171   -2.1654 C.2       1 <0>         0.3287
     21 O1          8.7928  -11.1903   -3.2504 O.2       1 <0>        -0.3730
     22 C21         9.2234  -12.9712   -1.7697 C.3       1 <0>         0.4166
     23 F1          8.7076  -13.7438   -2.8157 F         1 <0>        -0.1646
     24 F2         10.5372  -13.3692   -1.4999 F         1 <0>        -0.1663
     25 F3          8.4377  -13.1504   -0.6262 F         1 <0>        -0.1663
     26 H1          2.4534    3.1242    1.2236 H         1 <0>         0.0534
     27 H2          0.7189    3.4826    1.0462 H         1 <0>         0.0536
     28 H3          1.4674    3.4840    2.6612 H         1 <0>         0.0534
     29 H4          0.1635    1.4084    2.2863 H         1 <0>         0.0606
     30 H5          1.1495    1.0487    0.8487 H         1 <0>         0.0605
     31 H6          3.1846    0.9733    2.2634 H         1 <0>         0.0610
     32 H7          2.1986    1.3330    3.7010 H         1 <0>         0.0613
     33 H8          0.8947   -0.7425    3.3261 H         1 <0>         0.0617
     34 H9          1.8807   -1.1023    1.8885 H         1 <0>         0.0620
     35 H10         3.9158   -1.1777    3.3032 H         1 <0>         0.0755
     36 H11         2.9298   -0.8179    4.7408 H         1 <0>         0.0689
     37 H12         1.6300   -3.0664    4.2272 H         1 <0>         0.1090
     38 H13         3.2730   -4.7045    3.6409 H         1 <0>         0.1086
     39 H14         5.1962   -3.4599    2.3284 H         1 <0>         0.0827
     40 H15         5.0419   -2.1533    3.5273 H         1 <0>         0.0842
     41 H16         5.7203   -3.9492    5.3503 H         1 <0>         0.1099
     42 H17         7.5209   -5.2304    4.4324 H         1 <0>         0.1100
     43 H18         7.0897   -5.4528    1.8372 H         1 <0>         0.0832
     44 H19         6.6022   -3.7411    1.8655 H         1 <0>         0.0836
     45 H20         9.0572   -3.2020    2.6812 H         1 <0>         0.1101
     46 H21        10.5496   -4.5623    1.3965 H         1 <0>         0.1102
     47 H22         9.3168   -6.8511    0.9226 H         1 <0>         0.0838
     48 H23         7.8529   -5.8882    0.6094 H         1 <0>         0.0839
     49 H24         9.1867   -4.7572   -1.3685 H         1 <0>         0.1103
     50 H25        10.4060   -6.4842   -2.4897 H         1 <0>         0.1113
     51 H26        11.1560   -8.2251   -0.6416 H         1 <0>         0.0745
     52 H27         9.5202   -8.0546    0.0392 H         1 <0>         0.0801
     53 H28         8.5494   -8.8883   -2.0848 H         1 <0>         0.0750
     54 H29        10.1852   -9.0588   -2.7655 H         1 <0>         0.0748
     55 H30        10.7637  -10.6704   -0.9719 H         1 <0>         0.1190
     56 H31         9.1279  -10.4999   -0.2912 H         1 <0>         0.1184
@<TRIPOS>BOND
     1    1    2 1
     2    1   26 1
     3    1   27 1
     4    1   28 1
     5    2    3 1
     6    2   29 1
     7    2   30 1
     8    3    4 1
     9    3   31 1
    10    3   32 1
    11    4    5 1
    12    4   33 1
    13    4   34 1
    14    5    6 1
    15    5   35 1
    16    5   36 1
    17    6    7 2
    18    6   37 1
    19    7    8 1
    20    7   38 1
    21    8    9 1
    22    8   39 1
    23    8   40 1
    24    9   10 2
    25    9   41 1
    26   10   11 1
    27   10   42 1
    28   11   12 1
    29   11   43 1
    30   11   44 1
    31   12   13 2
    32   12   45 1
    33   13   14 1
    34   13   46 1
    35   14   15 1
    36   14   47 1
    37   14   48 1
    38   15   16 2
    39   15   49 1
    40   16   17 1
    41   16   50 1
    42   17   18 1
    43   17   51 1
    44   17   52 1
    45   18   19 1
    46   18   53 1
    47   18   54 1
    48   19   20 1
    49   19   55 1
    50   19   56 1
    51   20   21 2
    52   20   22 1
    53   22   23 1
    54   22   24 1
    55   22   25 1
@<TRIPOS>MOLECULE
ZINC36310635
   74    76     0     0     0
SMALL
USER_CHARGES

@<TRIPOS>ATOM
      1 C1         -0.0187    1.5258    0.0104 C.3       1 <0>        -0.1541
      2 C2          0.0021   -0.0041    0.0020 C.3       1 <0>        -0.1263
      3 C3          0.7182   -0.4975   -1.2568 C.3       1 <0>        -0.1212
      4 C4          0.7390   -2.0273   -1.2652 C.3       1 <0>        -0.1214
      5 C5          1.4551   -2.5207   -2.5240 C.3       1 <0>        -0.1206
      6 C6          1.4758   -4.0506   -2.5324 C.3       1 <0>        -0.1209
      7 C7          2.1920   -4.5440   -3.7912 C.3       1 <0>        -0.1188
      8 C8          2.2127   -6.0738   -3.7996 C.3       1 <0>        -0.1176
      9 C9          2.9289   -6.5673   -5.0584 C.3       1 <0>        -0.1186
     10 C10         2.9496   -8.0971   -5.0668 C.3       1 <0>         0.0583
     11 O1          3.6185   -8.5579   -6.2426 O.3       1 <0>        -0.3164
     12 C11         3.7244   -9.9039   -6.4051 C.ar      1 <0>         0.0945
     13 C12         3.1900  -10.7613   -5.4548 C.ar      1 <0>        -0.1671
     14 C13         3.2976  -12.1285   -5.6200 C.ar      1 <0>        -0.1062
     15 C14         3.9395  -12.6438   -6.7362 C.ar      1 <0>         0.0928
     16 C15         4.4730  -11.7864   -7.6869 C.ar      1 <0>        -0.1693
     17 C16         4.3617  -10.4192   -7.5240 C.ar      1 <0>        -0.1116
     18 O2          4.0462  -13.9897   -6.8983 O.3       1 <0>        -0.2946
     19 C17         4.7198  -14.4506   -8.0713 C.3       1 <0>         0.0134
     20 C18         4.7404  -15.9574   -8.0795 C.2       1 <0>         0.3255
     21 O3          4.2308  -16.5731   -7.1743 O.2       1 <0>        -0.3918
     22 C19         5.3970  -16.6958   -9.2173 C.3       1 <0>         0.0680
     23 N1          5.2841  -18.1391   -8.9926 N.pl3     1 <0>        -0.4609
     24 C20         6.2334  -18.9047   -8.4025 C.2       1 <0>         0.1261
     25 C21         5.8134  -20.2013   -8.3483 C.2       1 <0>        -0.2090
     26 C22         4.4741  -20.2307   -8.9670 C.ar      1 <0>        -0.0708
     27 C23         4.1967  -18.9047   -9.3461 C.ar      1 <0>         0.0875
     28 C24         2.9833  -18.6046   -9.9628 C.ar      1 <0>        -0.1462
     29 C25         2.0682  -19.5885  -10.1945 C.ar      1 <0>        -0.0533
     30 C26         2.3328  -20.9128   -9.8174 C.ar      1 <0>        -0.1459
     31 C27         3.5453  -21.2338   -9.2066 C.ar      1 <0>        -0.0351
     32 C28         1.3347  -21.9657  -10.0735 C.2       1 <0>         0.5225
     33 O4          0.2746  -21.6848  -10.6153 O.co2     1 <0>        -0.6904
     34 O5          1.5661  -23.1209   -9.7443 O.co2     1 <0>        -0.6836
     35 C29         6.5477  -21.3409   -7.7863 C.2       1 <0>         0.5329
     36 O6          6.0527  -22.4514   -7.8036 O.2       1 <0>        -0.4987
     37 O7          7.7714  -21.1566   -7.2509 O.3       1 <0>        -0.3614
     38 C30         8.4287  -22.3100   -6.7222 C.3       1 <0>         0.0373
     39 H1          1.0039    1.9031    0.0027 H         1 <0>         0.0531
     40 H2         -0.5459    1.8868   -0.8726 H         1 <0>         0.0533
     41 H3         -0.5289    1.8773    0.9072 H         1 <0>         0.0531
     42 H4          0.5293   -0.3651    0.8851 H         1 <0>         0.0602
     43 H5         -1.0205   -0.3814    0.0098 H         1 <0>         0.0604
     44 H6          0.1910   -0.1364   -2.1398 H         1 <0>         0.0606
     45 H7          1.7408   -0.1202   -1.2645 H         1 <0>         0.0604
     46 H8          1.2661   -2.3884   -0.3821 H         1 <0>         0.0606
     47 H9         -0.2836   -2.4046   -1.2575 H         1 <0>         0.0608
     48 H10         0.9279   -2.1597   -3.4071 H         1 <0>         0.0610
     49 H11         2.4777   -2.1435   -2.5317 H         1 <0>         0.0607
     50 H12         2.0030   -4.4117   -1.6494 H         1 <0>         0.0614
     51 H13         0.4533   -4.4279   -2.5247 H         1 <0>         0.0617
     52 H14         1.6648   -4.1829   -4.6743 H         1 <0>         0.0633
     53 H15         3.2146   -4.1667   -3.7990 H         1 <0>         0.0630
     54 H16         2.7399   -6.4349   -2.9166 H         1 <0>         0.0652
     55 H17         1.1901   -6.4511   -3.7919 H         1 <0>         0.0656
     56 H18         2.4017   -6.2062   -5.9415 H         1 <0>         0.0737
     57 H19         3.9515   -6.1900   -5.0662 H         1 <0>         0.0734
     58 H20         3.4768   -8.4582   -4.1838 H         1 <0>         0.0614
     59 H21         1.9270   -8.4744   -5.0591 H         1 <0>         0.0618
     60 H22         2.6902  -10.3600   -4.5856 H         1 <0>         0.1347
     61 H23         2.8822  -12.7961   -4.8797 H         1 <0>         0.1361
     62 H24         4.9732  -12.1877   -8.5560 H         1 <0>         0.1360
     63 H25         4.7739   -9.7516   -8.2661 H         1 <0>         0.1345
     64 H26         4.1962  -14.0895   -8.9565 H         1 <0>         0.1000
     65 H27         5.7424  -14.0732   -8.0749 H         1 <0>         0.0991
     66 H28         4.9033  -16.4341  -10.1532 H         1 <0>         0.1286
     67 H29         6.4496  -16.4178   -9.2716 H         1 <0>         0.1306
     68 H30         7.1806  -18.5428   -8.0307 H         1 <0>         0.1803
     69 H31         2.7668  -17.5885  -10.2579 H         1 <0>         0.1112
     70 H32         1.1308  -19.3454  -10.6726 H         1 <0>         0.1339
     71 H33         3.7548  -22.2518   -8.9131 H         1 <0>         0.1390
     72 H34         7.8222  -22.7405   -5.9254 H         1 <0>         0.0587
     73 H35         8.5636  -23.0464   -7.5144 H         1 <0>         0.0588
     74 H36         9.4017  -22.0230   -6.3235 H         1 <0>         0.0969
@<TRIPOS>BOND
     1    1    2 1
     2    1   39 1
     3    1   40 1
     4    1   41 1
     5    2    3 1
     6    2   42 1
     7    2   43 1
     8    3    4 1
     9    3   44 1
    10    3   45 1
    11    4    5 1
    12    4   46 1
    13    4   47 1
    14    5    6 1
    15    5   48 1
    16    5   49 1
    17    6    7 1
    18    6   50 1
    19    6   51 1
    20    7    8 1
    21    7   52 1
    22    7   53 1
    23    8    9 1
    24    8   54 1
    25    8   55 1
    26    9   10 1
    27    9   56 1
    28    9   57 1
    29   10   11 1
    30   10   58 1
    31   10   59 1
    32   11   12 1
    33   12   17 ar
    34   12   13 ar
    35   13   14 ar
    36   13   60 1
    37   14   15 ar
    38   14   61 1
    39   15   16 ar
    40   15   18 1
    41   16   17 ar
    42   16   62 1
    43   17   63 1
    44   18   19 1
    45   19   20 1
    46   19   64 1
    47   19   65 1
    48   20   21 2
    49   20   22 1
    50   22   23 1
    51   22   66 1
    52   22   67 1
    53   23   27 1
    54   23   24 1
    55   24   25 2
    56   24   68 1
    57   25   26 1
    58   25   35 1
    59   26   31 ar
    60   26   27 ar
    61   27   28 ar
    62   28   29 ar
    63   28   69 1
    64   29   30 ar
    65   29   70 1
    66   30   31 ar
    67   30   32 1
    68   31   71 1
    69   32   33 2
    70   32   34 1
    71   35   36 2
    72   35   37 1
    73   37   38 1
    74   38   72 1
    75   38   73 1
    76   38   74 1
