@<TRIPOS>MOLECULE
ZINC43206370
   45    48     0     0     0
SMALL
USER_CHARGES

@<TRIPOS>ATOM
      1 C1         -0.0168    1.3848    0.0097 C.ar      1 <0>        -0.1651
      2 C2          1.1177    2.1322    0.0028 C.ar      1 <0>        -0.0072
      3 C3          2.3826    1.5133   -0.0126 C.ar      1 <0>        -0.2024
      4 C4          3.6910    1.9652   -0.0227 C.2       1 <0>         0.0854
      5 N1          4.4959    0.8918   -0.0362 N.pl3     1 <0>        -0.2884
      6 N2          3.7292   -0.2794   -0.0351 N.2       1 <0>        -0.2654
      7 C5          2.4541    0.0429   -0.0212 C.ar      1 <0>         0.1465
      8 C6          1.1954   -0.7094   -0.0132 C.ar      1 <0>        -0.1276
      9 C7          0.0021   -0.0041    0.0020 C.ar      1 <0>        -0.0166
     10 C8          1.1989   -2.1810   -0.0217 C.2       1 <0>         0.5635
     11 O1          2.2538   -2.7866   -0.0355 O.2       1 <0>        -0.5282
     12 N3          0.0334   -2.8577   -0.0142 N.am      1 <0>        -0.8520
     13 C9          5.8958    0.9364   -0.0493 C.ar      1 <0>         0.1656
     14 C10         6.5530    2.1598   -0.0433 C.ar      1 <0>        -0.1303
     15 C11         7.9334    2.2005   -0.0563 C.ar      1 <0>        -0.0776
     16 C12         8.6611    1.0247   -0.0759 C.ar      1 <0>        -0.1078
     17 C13         8.0097   -0.1951   -0.0819 C.ar      1 <0>        -0.0887
     18 C14         6.6295   -0.2426   -0.0627 C.ar      1 <0>        -0.1020
     19 C15        10.1673    1.0728   -0.0911 C.3       1 <0>        -0.0584
     20 H1         10.4984    2.1113   -0.0840 H         1 <0>         0.1041
     21 C16        10.6884    0.3786   -1.3527 C.3       1 <0>        -0.1338
     22 C17        12.2194    0.3638   -1.3199 C.3       1 <0>        -0.1470
     23 C18        12.6900   -0.3300   -0.0398 C.3       1 <0>        -0.0095
     24 N4         12.1811    0.3960    1.1300 N.4       1 <0>        -0.5043
     25 C19        10.7140    0.3537    1.1441 C.3       1 <0>        -0.0066
     26 H2         -0.9709    1.8905    0.0261 H         1 <0>         0.1366
     27 H3          1.0489    3.2100    0.0089 H         1 <0>         0.1343
     28 H4          4.0075    2.9978   -0.0204 H         1 <0>         0.1929
     29 H5         -0.9323   -0.5457    0.0084 H         1 <0>         0.1380
     30 H6         -0.8078   -2.3748   -0.0032 H         1 <0>         0.4003
     31 H7          0.0357   -3.8277   -0.0198 H         1 <0>         0.4079
     32 H8          5.9852    3.0784   -0.0287 H         1 <0>         0.1397
     33 H9          8.4451    3.1515   -0.0516 H         1 <0>         0.1386
     34 H10         8.5808   -1.1116   -0.0975 H         1 <0>         0.1332
     35 H11         6.1213   -1.1955   -0.0629 H         1 <0>         0.1494
     36 H12        10.3146   -0.6448   -1.3863 H         1 <0>         0.0855
     37 H13        10.3479    0.9214   -2.2344 H         1 <0>         0.0972
     38 H14        12.5968   -0.1778   -2.1873 H         1 <0>         0.1147
     39 H15        12.5937    1.3873   -1.3379 H         1 <0>         0.0897
     40 H16        12.3154   -1.3534   -0.0230 H         1 <0>         0.1309
     41 H17        13.7796   -0.3424   -0.0134 H         1 <0>         0.1345
     42 H18        12.5370   -0.0323    1.9714 H         1 <0>         0.4334
     43 H19        10.3447    0.8461    2.0437 H         1 <0>         0.1364
     44 H20        10.3814   -0.6843    1.1365 H         1 <0>         0.1328
     45 H21        12.4879    1.3564    1.0882 H         1 <0>         0.4281
@<TRIPOS>BOND
     1    1    9 ar
     2    1    2 ar
     3    1   26 1
     4    2    3 ar
     5    2   27 1
     6    3    7 ar
     7    3    4 2
     8    4    5 1
     9    4   28 1
    10    5    6 1
    11    5   13 1
    12    6    7 2
    13    7    8 ar
    14    8    9 ar
    15    8   10 1
    16    9   29 1
    17   10   11 2
    18   10   12 am
    19   12   30 1
    20   12   31 1
    21   13   18 ar
    22   13   14 ar
    23   14   15 ar
    24   14   32 1
    25   15   16 ar
    26   15   33 1
    27   16   17 ar
    28   16   19 1
    29   17   18 ar
    30   17   34 1
    31   18   35 1
    32   19   20 1
    33   19   25 1
    34   19   21 1
    35   21   22 1
    36   21   36 1
    37   21   37 1
    38   22   23 1
    39   22   38 1
    40   22   39 1
    41   23   24 1
    42   23   40 1
    43   23   41 1
    44   24   25 1
    45   24   42 1
    46   24   45 1
    47   25   43 1
    48   25   44 1
@<TRIPOS>MOLECULE
ZINC00008960
   40    42     0     0     0
SMALL
USER_CHARGES
2-dimethylamino-N-(6-oxo-5H-phenanthridin-2-yl)-acetamide
@<TRIPOS>ATOM
      1 C1          1.1674    5.8942   -1.3942 C.3       1 <0>        -0.0425
      2 C2         -0.1491    4.6003   -2.9611 C.3       1 <0>        -0.0532
      3 C3          0.1854    3.7914   -0.7036 C.3       1 <0>        -0.0257
      4 C4         -1.0982    3.0019   -0.7027 C.2       1 <0>         0.4972
      5 O1         -2.0498    3.3907   -1.3464 O.2       1 <0>        -0.5127
      6 N1         -1.1906    1.8667    0.0178 N.am      1 <0>        -0.6403
      7 C5         -2.4162    1.1951    0.1127 C.ar      1 <0>         0.0895
      8 C6         -2.4429   -0.1936    0.2052 C.ar      1 <0>        -0.0833
      9 C7         -3.6420   -0.8650    0.2990 C.ar      1 <0>        -0.1372
     10 C8         -4.8417   -0.1590    0.3022 C.ar      1 <0>         0.1873
     11 C9         -4.8165    1.2405    0.2090 C.ar      1 <0>        -0.0793
     12 C10        -3.5994    1.9133    0.1201 C.ar      1 <0>        -0.0594
     13 C11        -6.0898    1.9855    0.2121 C.ar      1 <0>        -0.0055
     14 C12        -6.1250    3.3728    0.1213 C.ar      1 <0>        -0.1189
     15 C13        -7.3398    4.0264    0.1285 C.ar      1 <0>        -0.0807
     16 C14        -8.5249    3.3120    0.2245 C.ar      1 <0>        -0.1229
     17 C15        -8.5108    1.9366    0.3154 C.ar      1 <0>        -0.0452
     18 C16        -7.2932    1.2575    0.3102 C.ar      1 <0>        -0.1382
     19 C17        -7.2309   -0.2085    0.4047 C.2       1 <0>         0.5574
     20 O2         -8.2597   -0.8530    0.4897 O.2       1 <0>        -0.5078
     21 N2         -6.0446   -0.8418    0.3973 N.am      1 <0>        -0.6455
     22 H1         -6.0295   -1.8396    0.4626 H         1 <0>         0.4255
     23 H2          2.0872    5.3817   -1.6760 H         1 <0>         0.1262
     24 H3          1.0260    6.7651   -2.0341 H         1 <0>         0.1289
     25 H4          1.2339    6.2143   -0.3544 H         1 <0>         0.1239
     26 H5         -1.0398    3.9798   -3.0605 H         1 <0>         0.1356
     27 H6         -0.2626    5.4987   -3.5679 H         1 <0>         0.1262
     28 H7          0.7230    4.0410   -3.2998 H         1 <0>         0.1217
     29 H8          0.4221    4.1012    0.3143 H         1 <0>         0.1627
     30 H9          0.9932    3.1711   -1.0918 H         1 <0>         0.1635
     31 H10        -0.4084    1.5147    0.4707 H         1 <0>         0.4214
     32 H11        -1.5165   -0.7488    0.2031 H         1 <0>         0.1400
     33 H12        -3.6515   -1.9426    0.3700 H         1 <0>         0.1456
     34 H13        -3.5795    2.9911    0.0531 H         1 <0>         0.1441
     35 H14        -5.2062    3.9354    0.0456 H         1 <0>         0.1304
     36 H15        -7.3685    5.1038    0.0584 H         1 <0>         0.1344
     37 H16        -9.4679    3.8385    0.2285 H         1 <0>         0.1382
     38 H17        -9.4380    1.3879    0.3898 H         1 <0>         0.1444
     39 N3          0.0052    4.9934   -1.5447 N.4       1 <0>        -0.3843
     40 H18        -0.8418    5.4885   -1.2418 H         1 <0>         0.4386
@<TRIPOS>BOND
     1    1   23 1
     2    1   24 1
     3    1   25 1
     4    1   39 1
     5    2   26 1
     6    2   27 1
     7    2   28 1
     8    2   39 1
     9    3    4 1
    10    3   29 1
    11    3   30 1
    12    3   39 1
    13    4    5 2
    14    4    6 am
    15    6    7 1
    16    6   31 1
    17    7   12 ar
    18    7    8 ar
    19    8    9 ar
    20    8   32 1
    21    9   10 ar
    22    9   33 1
    23   10   21 1
    24   10   11 ar
    25   11   12 ar
    26   11   13 1
    27   12   34 1
    28   13   18 ar
    29   13   14 ar
    30   14   15 ar
    31   14   35 1
    32   15   16 ar
    33   15   36 1
    34   16   17 ar
    35   16   37 1
    36   17   18 ar
    37   17   38 1
    38   18   19 1
    39   19   20 2
    40   19   21 am
    41   21   22 1
    42   39   40 1
@<TRIPOS>MOLECULE
ZINC03821234
   50    53     0     0     0
SMALL
USER_CHARGES
4-[[3-(1,4-diazepan-1-ylcarbonyl)-4-fluoro-phenyl]methyl]-2H-phthalazin-1-one
@<TRIPOS>ATOM
      1 C1         -3.2637    5.3963   -4.4376 C.ar      1 <0>        -0.0860
      2 C2         -4.5753    4.9474   -4.3514 C.ar      1 <0>        -0.0927
      3 C3         -5.0732    4.4535   -3.1656 C.ar      1 <0>        -0.1004
      4 C4         -4.2501    4.4159   -2.0408 C.ar      1 <0>        -0.1649
      5 C5         -2.9175    4.8789   -2.1312 C.ar      1 <0>        -0.0455
      6 C6         -2.4428    5.3805   -3.3445 C.ar      1 <0>        -0.0927
      7 C7         -2.0730    4.8158   -0.9383 C.ar      1 <0>         0.0989
      8 N1         -2.5554    4.3522    0.1761 N.ar      1 <0>        -0.2444
      9 N2         -3.8694    3.8997    0.2980 N.ar      1 <0>        -0.3643
     10 H1         -6.3448    3.5779   -1.4931 H         1 <0>         0.4253
     11 C8         -4.7224    3.9063   -0.7476 C.ar      1 <0>         0.3661
     12 O1         -5.8626    3.4970   -0.6208 O.3       1 <0>        -0.3828
     13 C9         -0.6511    5.3121   -0.9948 C.3       1 <0>        -0.0282
     14 C10        -0.0060    5.1431    0.3566 C.ar      1 <0>        -0.0715
     15 C11        -0.0816    6.1631    1.2898 C.ar      1 <0>        -0.0442
     16 C12         0.5066    6.0179    2.5320 C.ar      1 <0>        -0.1451
     17 C13         1.1714    4.8481    2.8527 C.ar      1 <0>         0.1431
     18 C14         1.2549    3.8167    1.9123 C.ar      1 <0>        -0.1773
     19 C15         0.6571    3.9731    0.6598 C.ar      1 <0>        -0.0555
     20 C16         1.9665    2.5657    2.2440 C.2       1 <0>         0.5651
     21 O2          3.1232    2.6047    2.6159 O.2       1 <0>        -0.4931
     22 N3          1.3335    1.3809    2.1344 N.am      1 <0>        -0.6223
     23 C17         2.1051    0.1411    2.3498 C.3       1 <0>         0.0970
     24 C18         1.3031   -0.8800    3.1741 C.3       1 <0>        -0.1564
     25 C19         0.5519   -0.1659    4.2760 C.3       1 <0>         0.0009
     26 C20        -0.9136    1.4058    3.1117 C.3       1 <0>        -0.0389
     27 C21        -0.0784    1.3727    1.8092 C.3       1 <0>         0.0820
     28 F1          1.7416    4.7042    4.0689 F         1 <0>        -0.1265
     29 H2         -2.8916    5.7763   -5.3776 H         1 <0>         0.1406
     30 H3         -5.2104    4.9824   -5.2243 H         1 <0>         0.1411
     31 H4         -6.0927    4.1021   -3.1069 H         1 <0>         0.1376
     32 H5         -1.4292    5.7455   -3.4215 H         1 <0>         0.1434
     33 H6         -0.6450    6.3665   -1.2709 H         1 <0>         0.1076
     34 H7         -0.0955    4.7389   -1.7369 H         1 <0>         0.1041
     35 H8         -0.6026    7.0771    1.0456 H         1 <0>         0.1408
     36 H9          0.4438    6.8177    3.2549 H         1 <0>         0.1479
     37 H10         0.7146    3.1791   -0.0701 H         1 <0>         0.1368
     38 H11         3.0270    0.3819    2.8791 H         1 <0>         0.1104
     39 H12         2.3538   -0.2969    1.3833 H         1 <0>         0.0873
     40 H13         1.9854   -1.6081    3.6129 H         1 <0>         0.1261
     41 H14         0.5937   -1.3934    2.5250 H         1 <0>         0.0900
     42 H15         1.0847    0.7448    4.5494 H         1 <0>         0.1327
     43 H16         0.4732   -0.8173    5.1464 H         1 <0>         0.1349
     44 H17        -1.9617    1.5763    2.8653 H         1 <0>         0.1478
     45 H18        -0.5573    2.2146    3.7496 H         1 <0>         0.1310
     46 H19        -0.3162    0.4687    1.2487 H         1 <0>         0.1020
     47 H20        -0.3162    2.2473    1.2036 H         1 <0>         0.1354
     48 N4         -0.8249    0.1471    3.8055 N.4       1 <0>        -0.5088
     49 H21        -1.4494    0.1790    4.6199 H         1 <0>         0.4367
     50 H22        -1.1303   -0.5982    3.1690 H         1 <0>         0.4290
@<TRIPOS>BOND
     1    1    6 ar
     2    1    2 ar
     3    1   29 1
     4    2    3 ar
     5    2   30 1
     6    3    4 ar
     7    3   31 1
     8    4   11 ar
     9    4    5 ar
    10    5    6 ar
    11    5    7 ar
    12    6   32 1
    13    7   13 1
    14    7    8 ar
    15    8    9 ar
    16    9   11 ar
    17   10   12 1
    18   11   12 1
    19   13   14 1
    20   13   33 1
    21   13   34 1
    22   14   19 ar
    23   14   15 ar
    24   15   16 ar
    25   15   35 1
    26   16   17 ar
    27   16   36 1
    28   17   18 ar
    29   17   28 1
    30   18   19 ar
    31   18   20 1
    32   19   37 1
    33   20   21 2
    34   20   22 am
    35   22   27 1
    36   22   23 1
    37   23   24 1
    38   23   38 1
    39   23   39 1
    40   24   25 1
    41   24   40 1
    42   24   41 1
    43   25   42 1
    44   25   43 1
    45   25   48 1
    46   26   27 1
    47   26   44 1
    48   26   45 1
    49   26   48 1
    50   27   46 1
    51   27   47 1
    52   48   49 1
    53   48   50 1
@<TRIPOS>MOLECULE
ZINC13831221
   22    23     0     0     0
SMALL
USER_CHARGES

@<TRIPOS>ATOM
      1 C1         -0.0127    1.0858    0.0080 C.3       1 <0>        -0.1150
      2 C2         -0.7416    1.5850   -1.2129 C.2       1 <0>         0.4026
      3 N1         -1.2275    0.7304   -2.0607 N.2       1 <0>        -0.5454
      4 H1         -0.5077    3.5427   -0.7706 H         1 <0>         0.4216
      5 C3         -1.8927    1.0969   -3.1809 C.2       1 <0>         0.1928
      6 C4         -2.0927    2.4095   -3.4069 C.2       1 <0>        -0.2515
      7 C5         -1.5473    3.3487   -2.4889 C.2       1 <0>         0.5289
      8 O1         -1.6858    4.5452   -2.6816 O.2       1 <0>        -0.5282
      9 N2         -0.8833    2.9117   -1.4044 N.am      1 <0>        -0.6327
     10 C6         -2.8771    3.0053   -4.5478 C.3       1 <0>        -0.0158
     11 S1         -3.0347    1.8012   -5.8961 S.3       1 <0>        -0.2451
     12 C7         -3.4680    0.2839   -4.9862 C.3       1 <0>        -0.0834
     13 C8         -2.3051   -0.0471   -4.0615 C.3       1 <0>        -0.0747
     14 H2          0.0021   -0.0041    0.0020 H         1 <0>         0.1079
     15 H3          1.0099    1.4631    0.0003 H         1 <0>         0.0973
     16 H4         -0.5229    1.4373    0.9048 H         1 <0>         0.0968
     17 H5         -3.8700    3.2854   -4.1959 H         1 <0>         0.0983
     18 H6         -2.3627    3.8933   -4.9149 H         1 <0>         0.1225
     19 H7         -4.3713    0.4500   -4.3993 H         1 <0>         0.0908
     20 H8         -3.6273   -0.5350   -5.6877 H         1 <0>         0.1218
     21 H9         -1.4505   -0.3452   -4.6689 H         1 <0>         0.1056
     22 H10        -2.5905   -0.8882   -3.4297 H         1 <0>         0.1046
@<TRIPOS>BOND
     1    1   14 1
     2    1   15 1
     3    1   16 1
     4    1    2 1
     5    2    3 2
     6    2    9 1
     7    3    5 1
     8    4    9 1
     9    5    6 2
    10    5   13 1
    11    6    7 1
    12    6   10 1
    13    7    8 2
    14    7    9 am
    15   10   11 1
    16   10   17 1
    17   10   18 1
    18   11   12 1
    19   12   13 1
    20   12   19 1
    21   12   20 1
    22   13   21 1
    23   13   22 1
