@<TRIPOS>MOLECULE
ZINC43206370
   45    48     0     0     0
SMALL
USER_CHARGES

@<TRIPOS>ATOM
      1 C1         -0.0168    1.3848    0.0097 C.ar      1 <0>        -0.1651
      2 C2          1.1177    2.1322    0.0028 C.ar      1 <0>        -0.0072
      3 C3          2.3826    1.5133   -0.0126 C.ar      1 <0>        -0.2024
      4 C4          3.6910    1.9652   -0.0227 C.2       1 <0>         0.0854
      5 N1          4.4959    0.8918   -0.0362 N.pl3     1 <0>        -0.2884
      6 N2          3.7292   -0.2794   -0.0351 N.2       1 <0>        -0.2654
      7 C5          2.4541    0.0429   -0.0212 C.ar      1 <0>         0.1465
      8 C6          1.1954   -0.7094   -0.0132 C.ar      1 <0>        -0.1276
      9 C7          0.0021   -0.0041    0.0020 C.ar      1 <0>        -0.0166
     10 C8          1.1989   -2.1810   -0.0217 C.2       1 <0>         0.5635
     11 O1          2.2538   -2.7866   -0.0355 O.2       1 <0>        -0.5282
     12 N3          0.0334   -2.8577   -0.0142 N.am      1 <0>        -0.8520
     13 C9          5.8958    0.9364   -0.0493 C.ar      1 <0>         0.1656
     14 C10         6.5530    2.1598   -0.0433 C.ar      1 <0>        -0.1303
     15 C11         7.9334    2.2005   -0.0563 C.ar      1 <0>        -0.0776
     16 C12         8.6611    1.0247   -0.0759 C.ar      1 <0>        -0.1078
     17 C13         8.0097   -0.1951   -0.0819 C.ar      1 <0>        -0.0887
     18 C14         6.6295   -0.2426   -0.0627 C.ar      1 <0>        -0.1020
     19 C15        10.1673    1.0728   -0.0911 C.3       1 <0>        -0.0584
     20 H1         10.4984    2.1113   -0.0840 H         1 <0>         0.1041
     21 C16        10.6884    0.3786   -1.3527 C.3       1 <0>        -0.1338
     22 C17        12.2194    0.3638   -1.3199 C.3       1 <0>        -0.1470
     23 C18        12.6900   -0.3300   -0.0398 C.3       1 <0>        -0.0095
     24 N4         12.1811    0.3960    1.1300 N.4       1 <0>        -0.5043
     25 C19        10.7140    0.3537    1.1441 C.3       1 <0>        -0.0066
     26 H2         -0.9709    1.8905    0.0261 H         1 <0>         0.1366
     27 H3          1.0489    3.2100    0.0089 H         1 <0>         0.1343
     28 H4          4.0075    2.9978   -0.0204 H         1 <0>         0.1929
     29 H5         -0.9323   -0.5457    0.0084 H         1 <0>         0.1380
     30 H6         -0.8078   -2.3748   -0.0032 H         1 <0>         0.4003
     31 H7          0.0357   -3.8277   -0.0198 H         1 <0>         0.4079
     32 H8          5.9852    3.0784   -0.0287 H         1 <0>         0.1397
     33 H9          8.4451    3.1515   -0.0516 H         1 <0>         0.1386
     34 H10         8.5808   -1.1116   -0.0975 H         1 <0>         0.1332
     35 H11         6.1213   -1.1955   -0.0629 H         1 <0>         0.1494
     36 H12        10.3146   -0.6448   -1.3863 H         1 <0>         0.0855
     37 H13        10.3479    0.9214   -2.2344 H         1 <0>         0.0972
     38 H14        12.5968   -0.1778   -2.1873 H         1 <0>         0.1147
     39 H15        12.5937    1.3873   -1.3379 H         1 <0>         0.0897
     40 H16        12.3154   -1.3534   -0.0230 H         1 <0>         0.1309
     41 H17        13.7796   -0.3424   -0.0134 H         1 <0>         0.1345
     42 H18        12.5370   -0.0323    1.9714 H         1 <0>         0.4334
     43 H19        10.3447    0.8461    2.0437 H         1 <0>         0.1364
     44 H20        10.3814   -0.6843    1.1365 H         1 <0>         0.1328
     45 H21        12.4879    1.3564    1.0882 H         1 <0>         0.4281
@<TRIPOS>BOND
     1    1    9 ar
     2    1    2 ar
     3    1   26 1
     4    2    3 ar
     5    2   27 1
     6    3    7 ar
     7    3    4 2
     8    4    5 1
     9    4   28 1
    10    5    6 1
    11    5   13 1
    12    6    7 2
    13    7    8 ar
    14    8    9 ar
    15    8   10 1
    16    9   29 1
    17   10   11 2
    18   10   12 am
    19   12   30 1
    20   12   31 1
    21   13   18 ar
    22   13   14 ar
    23   14   15 ar
    24   14   32 1
    25   15   16 ar
    26   15   33 1
    27   16   17 ar
    28   16   19 1
    29   17   18 ar
    30   17   34 1
    31   18   35 1
    32   19   20 1
    33   19   25 1
    34   19   21 1
    35   21   22 1
    36   21   36 1
    37   21   37 1
    38   22   23 1
    39   22   38 1
    40   22   39 1
    41   23   24 1
    42   23   40 1
    43   23   41 1
    44   24   25 1
    45   24   42 1
    46   24   45 1
    47   25   43 1
    48   25   44 1
