@<TRIPOS>MOLECULE
ZINC03869855
   35    38     0     0     0
SMALL
USER_CHARGES

@<TRIPOS>ATOM
      1 C1         -0.0166    1.3729    0.0096 C.ar      1 <0>        -0.1778
      2 C2          1.1712    2.0895    0.0021 C.ar      1 <0>        -0.1003
      3 C3          2.3858    1.4368   -0.0134 C.ar      1 <0>        -0.1625
      4 C4          2.4270    0.0485   -0.0212 C.ar      1 <0>         0.1515
      5 C5          1.2254   -0.6776   -0.0132 C.ar      1 <0>        -0.1542
      6 C6          0.0021   -0.0041    0.0020 C.ar      1 <0>        -0.0487
      7 C7          1.2825   -2.1476   -0.0216 C.2       1 <0>         0.3118
      8 C8          2.5139   -2.7424   -0.0371 C.2       1 <0>        -0.4361
      9 C9          3.6703   -1.9476   -0.0443 C.2       1 <0>         0.4867
     10 O1          4.7616   -2.4898   -0.0581 O.2       1 <0>        -0.4932
     11 O2          3.6080   -0.6065   -0.0368 O.3       1 <0>        -0.3131
     12 C10         2.6284   -4.2450   -0.0458 C.3       1 <0>         0.1069
     13 C11         2.7757   -4.7293   -1.4653 C.2       1 <0>        -0.4360
     14 C12         4.0187   -4.9640   -1.9853 C.2       1 <0>         0.3118
     15 C13         4.1079   -5.4358   -3.3759 C.ar      1 <0>        -0.1543
     16 C14         5.3446   -5.6956   -3.9704 C.ar      1 <0>        -0.0487
     17 C15         5.3936   -6.1367   -5.2741 C.ar      1 <0>        -0.1779
     18 C16         4.2230   -6.3223   -5.9951 C.ar      1 <0>        -0.1003
     19 C17         2.9955   -6.0693   -5.4199 C.ar      1 <0>        -0.1626
     20 C18         2.9237   -5.6242   -4.1061 C.ar      1 <0>         0.1516
     21 O3          1.7298   -5.3726   -3.5272 O.3       1 <0>        -0.3131
     22 C19         1.6380   -4.9470   -2.2571 C.2       1 <0>         0.4866
     23 O4          0.5359   -4.7390   -1.7804 O.2       1 <0>        -0.4928
     24 O5          5.1325   -4.7677   -1.2435 O.3       1 <0>        -0.6378
     25 O6          0.1511   -2.8887   -0.0139 O.3       1 <0>        -0.6374
     26 H1         -0.9605    1.8975    0.0259 H         1 <0>         0.1129
     27 H2          1.1444    3.1692    0.0081 H         1 <0>         0.1161
     28 H3          3.3044    2.0047   -0.0198 H         1 <0>         0.1225
     29 H4         -0.9239   -0.5599    0.0075 H         1 <0>         0.1295
     30 H5          3.5013   -4.5462    0.5333 H         1 <0>         0.0390
     31 H6          1.7317   -4.6803    0.3954 H         1 <0>         0.0388
     32 H7          6.2572   -5.5512   -3.4112 H         1 <0>         0.1296
     33 H8          6.3479   -6.3389   -5.7375 H         1 <0>         0.1129
     34 H9          4.2736   -6.6679   -7.0171 H         1 <0>         0.1161
     35 H10         2.0906   -6.2169   -5.9907 H         1 <0>         0.1225
@<TRIPOS>BOND
     1    1    6 ar
     2    1    2 ar
     3    1   26 1
     4    2    3 ar
     5    2   27 1
     6    3    4 ar
     7    3   28 1
     8    4   11 1
     9    4    5 ar
    10    5    6 ar
    11    5    7 1
    12    6   29 1
    13    7    8 2
    14    7   25 1
    15    8    9 1
    16    8   12 1
    17    9   10 2
    18    9   11 1
    19   12   13 1
    20   12   30 1
    21   12   31 1
    22   13   22 1
    23   13   14 2
    24   14   15 1
    25   14   24 1
    26   15   20 ar
    27   15   16 ar
    28   16   17 ar
    29   16   32 1
    30   17   18 ar
    31   17   33 1
    32   18   19 ar
    33   18   34 1
    34   19   20 ar
    35   19   35 1
    36   20   21 1
    37   21   22 1
    38   22   23 2
@<TRIPOS>MOLECULE
ZINC03869855
   37    40     0     0     0
SMALL
USER_CHARGES

@<TRIPOS>ATOM
      1 C1         -0.0166    1.3738    0.0096 C.ar      1 <0>        -0.1459
      2 C2          1.1716    2.0894    0.0021 C.ar      1 <0>        -0.0609
      3 C3          2.3858    1.4365   -0.0134 C.ar      1 <0>        -0.1381
      4 C4          2.4258    0.0477   -0.0212 C.ar      1 <0>         0.1515
      5 C5          1.2233   -0.6749   -0.0132 C.ar      1 <0>        -0.2164
      6 C6          0.0021   -0.0041    0.0020 C.ar      1 <0>        -0.0323
      7 C7          1.2898   -2.1506   -0.0218 C.2       1 <0>         0.4339
      8 O1          0.2773   -2.8315   -0.0157 O.2       1 <0>        -0.4589
      9 C8          2.5710   -2.7411   -0.0377 C.2       1 <0>        -0.3281
     10 C9          3.6745   -1.9488   -0.0444 C.2       1 <0>         0.3639
     11 O2          3.6033   -0.6118   -0.0368 O.3       1 <0>        -0.2626
     12 O3          4.8914   -2.5327   -0.0597 O.3       1 <0>        -0.3881
     13 C10         2.7144   -4.2413   -0.0468 C.3       1 <0>         0.0441
     14 C11         2.6533   -4.7603    1.3666 C.2       1 <0>        -0.3278
     15 C12         3.8164   -4.7855    2.1646 C.2       1 <0>         0.4339
     16 O4          4.8888   -4.3919    1.7357 O.2       1 <0>        -0.4589
     17 C13         3.6840   -5.3070    3.5403 C.ar      1 <0>        -0.2164
     18 C14         4.7783   -5.3694    4.4007 C.ar      1 <0>        -0.0323
     19 C15         4.6125   -5.8623    5.6768 C.ar      1 <0>        -0.1459
     20 C16         3.3652   -6.2943    6.1031 C.ar      1 <0>        -0.0609
     21 C17         2.2753   -6.2373    5.2607 C.ar      1 <0>        -0.1381
     22 C18         2.4218   -5.7432    3.9704 C.ar      1 <0>         0.1515
     23 O5          1.3683   -5.6776    3.1294 O.3       1 <0>        -0.2626
     24 C19         1.4765   -5.2018    1.8825 C.2       1 <0>         0.3638
     25 O6          0.3736   -5.1641    1.1054 O.3       1 <0>        -0.3882
     26 H1         -0.9603    1.8987    0.0259 H         1 <0>         0.1371
     27 H2          1.1453    3.1691    0.0081 H         1 <0>         0.1419
     28 H3          3.3047    2.0039   -0.0198 H         1 <0>         0.1432
     29 H4         -0.9237   -0.5603    0.0078 H         1 <0>         0.1433
     30 H5          1.9051   -4.6801   -0.6304 H         1 <0>         0.0859
     31 H6          3.6717   -4.5120   -0.4922 H         1 <0>         0.0859
     32 H7          5.7500   -5.0340    4.0695 H         1 <0>         0.1433
     33 H8          5.4573   -5.9129    6.3478 H         1 <0>         0.1372
     34 H9          3.2467   -6.6795    7.1051 H         1 <0>         0.1419
     35 H10         1.3089   -6.5767    5.6031 H         1 <0>         0.1432
     36 H11        -0.4250   -5.4938    1.5396 H         1 <0>         0.4085
     37 H12         5.6282   -1.9064   -0.0636 H         1 <0>         0.4085
@<TRIPOS>BOND
     1    1    6 ar
     2    1    2 ar
     3    1   26 1
     4    2    3 ar
     5    2   27 1
     6    3    4 ar
     7    3   28 1
     8    4   11 1
     9    4    5 ar
    10    5    6 ar
    11    5    7 1
    12    6   29 1
    13    7    8 2
    14    7    9 1
    15    9   10 2
    16    9   13 1
    17   10   11 1
    18   10   12 1
    19   12   37 1
    20   13   14 1
    21   13   30 1
    22   13   31 1
    23   14   24 2
    24   14   15 1
    25   15   16 2
    26   15   17 1
    27   17   22 ar
    28   17   18 ar
    29   18   19 ar
    30   18   32 1
    31   19   20 ar
    32   19   33 1
    33   20   21 ar
    34   20   34 1
    35   21   22 ar
    36   21   35 1
    37   22   23 1
    38   23   24 1
    39   24   25 1
    40   25   36 1
@<TRIPOS>MOLECULE
ZINC03869855
   35    38     0     0     0
SMALL
USER_CHARGES

@<TRIPOS>ATOM
      1 C1         -0.0166    1.3738    0.0096 C.ar      1 <0>        -0.1823
      2 C2          1.1716    2.0894    0.0021 C.ar      1 <0>        -0.0923
      3 C3          2.3858    1.4365   -0.0134 C.ar      1 <0>        -0.1660
      4 C4          2.4258    0.0477   -0.0212 C.ar      1 <0>         0.1630
      5 C5          1.2233   -0.6749   -0.0132 C.ar      1 <0>        -0.2040
      6 C6          0.0021   -0.0041    0.0020 C.ar      1 <0>        -0.0461
      7 C7          1.2898   -2.1506   -0.0218 C.2       1 <0>         0.3943
      8 O1          0.2773   -2.8315   -0.0157 O.2       1 <0>        -0.5101
      9 C8          2.5710   -2.7411   -0.0377 C.2       1 <0>        -0.4518
     10 C9          3.6745   -1.9488   -0.0444 C.2       1 <0>         0.4200
     11 O2          3.6033   -0.6118   -0.0368 O.3       1 <0>        -0.2846
     12 O3          4.8914   -2.5327   -0.0597 O.3       1 <0>        -0.6146
     13 C10         2.7144   -4.2413   -0.0468 C.3       1 <0>         0.1118
     14 C11         2.6533   -4.7603    1.3666 C.2       1 <0>        -0.4517
     15 C12         3.8164   -4.7855    2.1646 C.2       1 <0>         0.3942
     16 O4          4.8888   -4.3919    1.7357 O.2       1 <0>        -0.5097
     17 C13         3.6840   -5.3070    3.5403 C.ar      1 <0>        -0.2040
     18 C14         4.7783   -5.3694    4.4007 C.ar      1 <0>        -0.0461
     19 C15         4.6125   -5.8623    5.6768 C.ar      1 <0>        -0.1823
     20 C16         3.3652   -6.2943    6.1031 C.ar      1 <0>        -0.0923
     21 C17         2.2753   -6.2373    5.2607 C.ar      1 <0>        -0.1660
     22 C18         2.4218   -5.7432    3.9704 C.ar      1 <0>         0.1630
     23 O5          1.3683   -5.6776    3.1294 O.3       1 <0>        -0.2846
     24 C19         1.4765   -5.2018    1.8825 C.2       1 <0>         0.4200
     25 O6          0.3736   -5.1641    1.1054 O.3       1 <0>        -0.6148
     26 H1         -0.9603    1.8987    0.0259 H         1 <0>         0.1135
     27 H2          1.1453    3.1691    0.0081 H         1 <0>         0.1171
     28 H3          3.3047    2.0039   -0.0198 H         1 <0>         0.1237
     29 H4         -0.9237   -0.5603    0.0078 H         1 <0>         0.1270
     30 H5          1.9051   -4.6801   -0.6304 H         1 <0>         0.0372
     31 H6          3.6717   -4.5120   -0.4922 H         1 <0>         0.0371
     32 H7          5.7500   -5.0340    4.0695 H         1 <0>         0.1270
     33 H8          5.4573   -5.9129    6.3478 H         1 <0>         0.1135
     34 H9          3.2467   -6.6795    7.1051 H         1 <0>         0.1171
     35 H10         1.3089   -6.5767    5.6031 H         1 <0>         0.1237
@<TRIPOS>BOND
     1    1    6 ar
     2    1    2 ar
     3    1   26 1
     4    2    3 ar
     5    2   27 1
     6    3    4 ar
     7    3   28 1
     8    4   11 1
     9    4    5 ar
    10    5    6 ar
    11    5    7 1
    12    6   29 1
    13    7    8 2
    14    7    9 1
    15    9   10 2
    16    9   13 1
    17   10   11 1
    18   10   12 1
    19   13   14 1
    20   13   30 1
    21   13   31 1
    22   14   24 2
    23   14   15 1
    24   15   16 2
    25   15   17 1
    26   17   22 ar
    27   17   18 ar
    28   18   19 ar
    29   18   32 1
    30   19   20 ar
    31   19   33 1
    32   20   21 ar
    33   20   34 1
    34   21   22 ar
    35   21   35 1
    36   22   23 1
    37   23   24 1
    38   24   25 1
@<TRIPOS>MOLECULE
ZINC03869855
   37    40     0     0     0
SMALL
USER_CHARGES

@<TRIPOS>ATOM
      1 C1         -0.0166    1.3729    0.0096 C.ar      1 <0>        -0.1362
      2 C2          1.1712    2.0895    0.0021 C.ar      1 <0>        -0.0598
      3 C3          2.3858    1.4368   -0.0130 C.ar      1 <0>        -0.1327
      4 C4          2.4270    0.0485   -0.0209 C.ar      1 <0>         0.1639
      5 C5          1.2254   -0.6776   -0.0133 C.ar      1 <0>        -0.1914
      6 C6          0.0021   -0.0041    0.0020 C.ar      1 <0>        -0.0662
      7 C7          1.2825   -2.1476   -0.0219 C.2       1 <0>         0.2424
      8 C8          2.5139   -2.7424   -0.0369 C.2       1 <0>        -0.2811
      9 C9          3.6703   -1.9476   -0.0437 C.2       1 <0>         0.5235
     10 O1          4.7616   -2.4899   -0.0571 O.2       1 <0>        -0.4497
     11 O2          3.6080   -0.6065   -0.0361 O.3       1 <0>        -0.2774
     12 C10         2.6284   -4.2450   -0.0457 C.3       1 <0>         0.0385
     13 C11         2.7762   -4.7292   -1.4651 C.2       1 <0>        -0.3309
     14 C12         1.6339   -4.9430   -2.2649 C.2       1 <0>         0.4334
     15 O3          0.5103   -4.7431   -1.8328 O.2       1 <0>        -0.4559
     16 C13         1.8524   -5.4179   -3.6464 C.ar      1 <0>        -0.2158
     17 C14         0.7842   -5.6558   -4.5090 C.ar      1 <0>        -0.0323
     18 C15         1.0308   -6.0981   -5.7907 C.ar      1 <0>        -0.1454
     19 C16         2.3332   -6.3059   -6.2203 C.ar      1 <0>        -0.0608
     20 C17         3.3980   -6.0739   -5.3757 C.ar      1 <0>        -0.1375
     21 C18         3.1702   -5.6273   -4.0800 C.ar      1 <0>         0.1509
     22 O4          4.1977   -5.3929   -3.2368 O.3       1 <0>        -0.2619
     23 C19         4.0107   -4.9575   -1.9845 C.2       1 <0>         0.3663
     24 O5          5.0916   -4.7413   -1.2055 O.3       1 <0>        -0.3886
     25 O6          0.1511   -2.8887   -0.0146 O.3       1 <0>        -0.4150
     26 H1         -0.9605    1.8975    0.0259 H         1 <0>         0.1393
     27 H2          1.1444    3.1692    0.0078 H         1 <0>         0.1435
     28 H3          3.3044    2.0047   -0.0191 H         1 <0>         0.1475
     29 H4         -0.9239   -0.5599    0.0083 H         1 <0>         0.1367
     30 H5          3.5011   -4.5463    0.5337 H         1 <0>         0.0881
     31 H6          1.7316   -4.6803    0.3952 H         1 <0>         0.0909
     32 H7         -0.2302   -5.4950   -4.1752 H         1 <0>         0.1433
     33 H8          0.2065   -6.2840   -6.4633 H         1 <0>         0.1373
     34 H9          2.5150   -6.6533   -7.2266 H         1 <0>         0.1421
     35 H10         4.4079   -6.2394   -5.7209 H         1 <0>         0.1435
     36 H11         5.9344   -4.9249   -1.6425 H         1 <0>         0.4099
     37 H12        -0.6619   -2.3652   -0.0036 H         1 <0>         0.3979
@<TRIPOS>BOND
     1    1    6 ar
     2    1    2 ar
     3    1   26 1
     4    2    3 ar
     5    2   27 1
     6    3    4 ar
     7    3   28 1
     8    4   11 1
     9    4    5 ar
    10    5    6 ar
    11    5    7 1
    12    6   29 1
    13    7    8 2
    14    7   25 1
    15    8    9 1
    16    8   12 1
    17    9   10 2
    18    9   11 1
    19   12   13 1
    20   12   30 1
    21   12   31 1
    22   13   23 2
    23   13   14 1
    24   14   15 2
    25   14   16 1
    26   16   21 ar
    27   16   17 ar
    28   17   18 ar
    29   17   32 1
    30   18   19 ar
    31   18   33 1
    32   19   20 ar
    33   19   34 1
    34   20   21 ar
    35   20   35 1
    36   21   22 1
    37   22   23 1
    38   23   24 1
    39   24   36 1
    40   25   37 1
@<TRIPOS>MOLECULE
ZINC03869855
   35    38     0     0     0
SMALL
USER_CHARGES

@<TRIPOS>ATOM
      1 C1         -0.0166    1.3734    0.0096 C.ar      1 <0>        -0.1802
      2 C2          1.1713    2.0895    0.0021 C.ar      1 <0>        -0.0964
      3 C3          2.3857    1.4367   -0.0134 C.ar      1 <0>        -0.1641
      4 C4          2.4263    0.0482   -0.0212 C.ar      1 <0>         0.1569
      5 C5          1.2243   -0.6763   -0.0132 C.ar      1 <0>        -0.1767
      6 C6          0.0021   -0.0041    0.0020 C.ar      1 <0>        -0.0473
      7 C7          1.2863   -2.1491   -0.0217 C.2       1 <0>         0.3574
      8 C8          2.5426   -2.7418   -0.0374 C.2       1 <0>        -0.4477
      9 C9          3.6725   -1.9480   -0.0443 C.2       1 <0>         0.4520
     10 O1          4.8264   -2.5114   -0.0589 O.2       1 <0>        -0.5552
     11 O2          3.6056   -0.6090   -0.0368 O.3       1 <0>        -0.2976
     12 C10         2.6717   -4.2432   -0.0462 C.3       1 <0>         0.1122
     13 C11         2.8238   -4.7259   -1.4657 C.2       1 <0>        -0.4481
     14 C12         1.7002   -4.9470   -2.2522 C.2       1 <0>         0.3527
     15 O3          0.5157   -4.7469   -1.7922 O.2       1 <0>        -0.5718
     16 C13         1.9130   -5.4184   -3.6327 C.ar      1 <0>        -0.1771
     17 C14         0.8376   -5.6634   -4.4867 C.ar      1 <0>        -0.0477
     18 C15         1.0749   -6.1028   -5.7706 C.ar      1 <0>        -0.1800
     19 C16         2.3744   -6.3015   -6.2133 C.ar      1 <0>        -0.0965
     20 C17         3.4458   -6.0629   -5.3787 C.ar      1 <0>        -0.1639
     21 C18         3.2279   -5.6189   -4.0806 C.ar      1 <0>         0.1571
     22 O4          4.2639   -5.3788   -3.2488 O.3       1 <0>        -0.2973
     23 C19         4.0810   -4.9454   -1.9932 C.2       1 <0>         0.4568
     24 O5          5.1096   -4.7317   -1.2547 O.3       1 <0>        -0.5576
     25 O6          0.2146   -2.8605   -0.0144 O.3       1 <0>        -0.5743
     26 H1         -0.9605    1.8981    0.0259 H         1 <0>         0.1131
     27 H2          1.1448    3.1692    0.0081 H         1 <0>         0.1166
     28 H3          3.3045    2.0044   -0.0198 H         1 <0>         0.1231
     29 H4         -0.9238   -0.5601    0.0078 H         1 <0>         0.1281
     30 H5          3.5475   -4.5360    0.5329 H         1 <0>         0.0342
     31 H6          1.7793   -4.6872    0.3949 H         1 <0>         0.0380
     32 H7         -0.1748   -5.5098   -4.1434 H         1 <0>         0.1281
     33 H8          0.2454   -6.2938   -6.4353 H         1 <0>         0.1131
     34 H9          2.5488   -6.6470   -7.2216 H         1 <0>         0.1167
     35 H10         4.4534   -6.2210   -5.7340 H         1 <0>         0.1232
@<TRIPOS>BOND
     1    1    6 ar
     2    1    2 ar
     3    1   26 1
     4    2    3 ar
     5    2   27 1
     6    3    4 ar
     7    3   28 1
     8    4   11 1
     9    4    5 ar
    10    5    6 ar
    11    5    7 1
    12    6   29 1
    13    7    8 2
    14    7   25 1
    15    8    9 1
    16    8   12 1
    17    9   10 2
    18    9   11 1
    19   12   13 1
    20   12   30 1
    21   12   31 1
    22   13   23 2
    23   13   14 1
    24   14   15 2
    25   14   16 1
    26   16   21 ar
    27   16   17 ar
    28   17   18 ar
    29   17   32 1
    30   18   19 ar
    31   18   33 1
    32   19   20 ar
    33   19   34 1
    34   20   21 ar
    35   20   35 1
    36   21   22 1
    37   22   23 1
    38   23   24 1
@<TRIPOS>MOLECULE
ZINC03869855
   36    39     0     0     0
SMALL
USER_CHARGES

@<TRIPOS>ATOM
      1 C1         -0.0166    1.3729    0.0096 C.ar      1 <0>        -0.1436
      2 C2          1.1712    2.0895    0.0021 C.ar      1 <0>        -0.0762
      3 C3          2.3858    1.4368   -0.0130 C.ar      1 <0>        -0.1355
      4 C4          2.4270    0.0485   -0.0209 C.ar      1 <0>         0.1591
      5 C5          1.2254   -0.6776   -0.0133 C.ar      1 <0>        -0.1717
      6 C6          0.0021   -0.0041    0.0020 C.ar      1 <0>        -0.0737
      7 C7          1.2825   -2.1476   -0.0219 C.2       1 <0>         0.1902
      8 C8          2.5139   -2.7424   -0.0369 C.2       1 <0>        -0.2266
      9 C9          3.6703   -1.9476   -0.0437 C.2       1 <0>         0.5043
     10 O1          4.7616   -2.4899   -0.0571 O.2       1 <0>        -0.4065
     11 O2          3.6080   -0.6065   -0.0361 O.3       1 <0>        -0.2878
     12 C10         2.6284   -4.2450   -0.0457 C.3       1 <0>         0.0689
     13 C11         2.7762   -4.7292   -1.4651 C.2       1 <0>        -0.4872
     14 C12         1.6339   -4.9430   -2.2649 C.2       1 <0>         0.4149
     15 O3          0.5103   -4.7431   -1.8328 O.2       1 <0>        -0.5376
     16 C13         1.8524   -5.4179   -3.6464 C.ar      1 <0>        -0.2120
     17 C14         0.7842   -5.6558   -4.5090 C.ar      1 <0>        -0.0431
     18 C15         1.0308   -6.0981   -5.7907 C.ar      1 <0>        -0.1734
     19 C16         2.3332   -6.3059   -6.2203 C.ar      1 <0>        -0.0803
     20 C17         3.3980   -6.0739   -5.3757 C.ar      1 <0>        -0.1587
     21 C18         3.1702   -5.6273   -4.0800 C.ar      1 <0>         0.1626
     22 O4          4.1977   -5.3929   -3.2368 O.3       1 <0>        -0.2771
     23 C19         4.0107   -4.9575   -1.9845 C.2       1 <0>         0.4451
     24 O5          5.0916   -4.7413   -1.2055 O.3       1 <0>        -0.6068
     25 O6          0.1511   -2.8887   -0.0146 O.3       1 <0>        -0.4110
     26 H1         -0.9605    1.8975    0.0259 H         1 <0>         0.1316
     27 H2          1.1444    3.1692    0.0078 H         1 <0>         0.1355
     28 H3          3.3044    2.0047   -0.0191 H         1 <0>         0.1414
     29 H4         -0.9239   -0.5599    0.0083 H         1 <0>         0.1324
     30 H5          3.5011   -4.5463    0.5337 H         1 <0>         0.0714
     31 H6          1.7316   -4.6803    0.3952 H         1 <0>         0.0628
     32 H7         -0.2302   -5.4950   -4.1752 H         1 <0>         0.1296
     33 H8          0.2065   -6.2840   -6.4633 H         1 <0>         0.1205
     34 H9          2.5150   -6.6533   -7.2266 H         1 <0>         0.1251
     35 H10         4.4079   -6.2394   -5.7209 H         1 <0>         0.1305
     36 H11        -0.6619   -2.3652   -0.0036 H         1 <0>         0.3826
@<TRIPOS>BOND
     1    1    6 ar
     2    1    2 ar
     3    1   26 1
     4    2    3 ar
     5    2   27 1
     6    3    4 ar
     7    3   28 1
     8    4   11 1
     9    4    5 ar
    10    5    6 ar
    11    5    7 1
    12    6   29 1
    13    7    8 2
    14    7   25 1
    15    8    9 1
    16    8   12 1
    17    9   10 2
    18    9   11 1
    19   12   13 1
    20   12   30 1
    21   12   31 1
    22   13   23 2
    23   13   14 1
    24   14   15 2
    25   14   16 1
    26   16   21 ar
    27   16   17 ar
    28   17   18 ar
    29   17   32 1
    30   18   19 ar
    31   18   33 1
    32   19   20 ar
    33   19   34 1
    34   20   21 ar
    35   20   35 1
    36   21   22 1
    37   22   23 1
    38   23   24 1
    39   25   36 1
@<TRIPOS>MOLECULE
ZINC03869855
   36    39     0     0     0
SMALL
USER_CHARGES

@<TRIPOS>ATOM
      1 C1         -0.0166    1.3729    0.0096 C.ar      1 <0>        -0.1692
      2 C2          1.1712    2.0895    0.0021 C.ar      1 <0>        -0.0863
      3 C3          2.3858    1.4368   -0.0130 C.ar      1 <0>        -0.1576
      4 C4          2.4270    0.0485   -0.0209 C.ar      1 <0>         0.1523
      5 C5          1.2254   -0.6776   -0.0133 C.ar      1 <0>        -0.1667
      6 C6          0.0021   -0.0041    0.0020 C.ar      1 <0>        -0.0424
      7 C7          1.2825   -2.1476   -0.0219 C.2       1 <0>         0.3378
      8 C8          2.5139   -2.7424   -0.0369 C.2       1 <0>        -0.4754
      9 C9          3.6703   -1.9476   -0.0437 C.2       1 <0>         0.5067
     10 O1          4.7616   -2.4899   -0.0571 O.2       1 <0>        -0.5276
     11 O2          3.6080   -0.6065   -0.0361 O.3       1 <0>        -0.3038
     12 C10         2.6284   -4.2450   -0.0457 C.3       1 <0>         0.0675
     13 C11         2.7762   -4.7292   -1.4651 C.2       1 <0>        -0.2272
     14 C12         4.0194   -4.9638   -1.9847 C.2       1 <0>         0.1898
     15 C13         4.1091   -5.4356   -3.3753 C.ar      1 <0>        -0.1719
     16 C14         5.3459   -5.6954   -3.9694 C.ar      1 <0>        -0.0736
     17 C15         5.3954   -6.1364   -5.2731 C.ar      1 <0>        -0.1435
     18 C16         4.2251   -6.3224   -5.9944 C.ar      1 <0>        -0.0760
     19 C17         2.9974   -6.0690   -5.4197 C.ar      1 <0>        -0.1355
     20 C18         2.9252   -5.6240   -4.1060 C.ar      1 <0>         0.1593
     21 O3          1.7310   -5.3725   -3.5274 O.3       1 <0>        -0.2878
     22 C19         1.6387   -4.9468   -2.2574 C.2       1 <0>         0.5049
     23 O4          0.5365   -4.7389   -1.7810 O.2       1 <0>        -0.4060
     24 O5          5.1329   -4.7676   -1.2425 O.3       1 <0>        -0.4118
     25 O6          0.1511   -2.8887   -0.0146 O.3       1 <0>        -0.6227
     26 H1         -0.9605    1.8975    0.0259 H         1 <0>         0.1207
     27 H2          1.1444    3.1692    0.0078 H         1 <0>         0.1243
     28 H3          3.3044    2.0047   -0.0191 H         1 <0>         0.1286
     29 H4         -0.9239   -0.5599    0.0083 H         1 <0>         0.1340
     30 H5          3.5011   -4.5463    0.5337 H         1 <0>         0.0619
     31 H6          1.7316   -4.6803    0.3952 H         1 <0>         0.0729
     32 H7          6.2583   -5.5510   -3.4099 H         1 <0>         0.1327
     33 H8          6.3499   -6.3382   -5.7363 H         1 <0>         0.1317
     34 H9          4.2760   -6.6686   -7.0161 H         1 <0>         0.1355
     35 H10         2.0927   -6.2166   -5.9908 H         1 <0>         0.1414
     36 H11         5.9565   -4.9644   -1.7094 H         1 <0>         0.3832
@<TRIPOS>BOND
     1    1    6 ar
     2    1    2 ar
     3    1   26 1
     4    2    3 ar
     5    2   27 1
     6    3    4 ar
     7    3   28 1
     8    4   11 1
     9    4    5 ar
    10    5    6 ar
    11    5    7 1
    12    6   29 1
    13    7    8 2
    14    7   25 1
    15    8    9 1
    16    8   12 1
    17    9   10 2
    18    9   11 1
    19   12   13 1
    20   12   30 1
    21   12   31 1
    22   13   22 1
    23   13   14 2
    24   14   15 1
    25   14   24 1
    26   15   20 ar
    27   15   16 ar
    28   16   17 ar
    29   16   32 1
    30   17   18 ar
    31   17   33 1
    32   18   19 ar
    33   18   34 1
    34   19   20 ar
    35   19   35 1
    36   20   21 1
    37   21   22 1
    38   22   23 2
    39   24   36 1
