@<TRIPOS>MOLECULE
ZINC24861235
   53    55     0     0     0
SMALL
USER_CHARGES

@<TRIPOS>ATOM
      1 C1         -0.0178    1.4608    0.0101 C.3       1 <0>         0.0725
      2 N1          0.0021   -0.0041    0.0020 N.am      1 <0>        -0.6141
      3 C2          0.0241   -0.7433    1.2666 C.3       1 <0>         0.1380
      4 C3          1.2758   -0.3610    2.0591 C.3       1 <0>        -0.1258
      5 C4          1.2989   -1.1331    3.3798 C.3       1 <0>        -0.1181
      6 C5          0.0524   -0.7848    4.1959 C.3       1 <0>        -0.1219
      7 C6         -1.1993   -1.1671    3.4035 C.3       1 <0>        -0.1178
      8 C7         -1.2223   -0.3950    2.0828 C.3       1 <0>        -0.1271
      9 C8          0.0001   -0.6716   -1.1688 C.2       1 <0>         0.5149
     10 O1          0.0165   -1.8843   -1.1755 O.2       1 <0>        -0.5352
     11 C9         -0.0226    0.0888   -2.4697 C.3       1 <0>        -0.1361
     12 C10        -0.0202   -0.8991   -3.6380 C.3       1 <0>        -0.1055
     13 C11        -0.0433   -0.1270   -4.9587 C.3       1 <0>         0.0602
     14 O2         -0.0410   -1.0497   -6.0499 O.3       1 <0>        -0.3107
     15 C12        -0.0601   -0.5233   -7.3035 C.ar      1 <0>         0.1153
     16 C13        -0.0747    0.8531   -7.4774 C.ar      1 <0>        -0.1795
     17 C14        -0.0943    1.3887   -8.7499 C.ar      1 <0>        -0.1083
     18 C15        -0.0991    0.5491   -9.8558 C.ar      1 <0>         0.1196
     19 C16        -0.0841   -0.8281   -9.6808 C.ar      1 <0>        -0.0813
     20 C17        -0.0591   -1.3626   -8.4079 C.ar      1 <0>        -0.1159
     21 C18        -0.0881   -1.7367  -10.8827 C.3       1 <0>        -0.0789
     22 C19        -0.9115   -1.0996  -12.0026 C.3       1 <0>        -0.1386
     23 C20        -0.4912    0.3324  -12.1967 C.2       1 <0>         0.5201
     24 O3         -0.4884    0.8105  -13.3114 O.2       1 <0>        -0.5284
     25 N2         -0.1186    1.0885  -11.1478 N.am      1 <0>        -0.6623
     26 H1          1.0048    1.8381    0.0023 H         1 <0>         0.0586
     27 H2         -0.5450    1.8219   -0.8730 H         1 <0>         0.0732
     28 H3         -0.5280    1.8123    0.9069 H         1 <0>         0.0752
     29 H4          0.0368   -1.8138    1.0616 H         1 <0>         0.1019
     30 H5          2.1638   -0.6091    1.4777 H         1 <0>         0.0647
     31 H6          1.2632    0.7094    2.2641 H         1 <0>         0.0650
     32 H7          1.3115   -2.2035    3.1748 H         1 <0>         0.0651
     33 H8          2.1906   -0.8607    3.9444 H         1 <0>         0.0665
     34 H9          0.0688   -1.3348    5.1369 H         1 <0>         0.0648
     35 H10         0.0398    0.2857    4.4010 H         1 <0>         0.0623
     36 H11        -1.1866   -2.2375    3.1984 H         1 <0>         0.0653
     37 H12        -2.0872   -0.9190    3.9849 H         1 <0>         0.0666
     38 H13        -1.2349    0.6754    2.2878 H         1 <0>         0.0656
     39 H14        -2.1140   -0.6674    1.5182 H         1 <0>         0.0652
     40 H15        -0.9215    0.7036   -2.5156 H         1 <0>         0.0974
     41 H16         0.8582    0.7278   -2.5324 H         1 <0>         0.0972
     42 H17         0.8787   -1.5139   -3.5922 H         1 <0>         0.0833
     43 H18        -0.9010   -1.5381   -3.5753 H         1 <0>         0.0832
     44 H19        -0.9422    0.4877   -5.0046 H         1 <0>         0.0637
     45 H20         0.8376    0.5120   -5.0215 H         1 <0>         0.0638
     46 H21        -0.0712    1.5059   -6.6170 H         1 <0>         0.1340
     47 H22        -0.1062    2.4601   -8.8849 H         1 <0>         0.1321
     48 H23        -0.0433   -2.4339   -8.2721 H         1 <0>         0.1397
     49 H24         0.9351   -1.8893  -11.2260 H         1 <0>         0.0876
     50 H25        -0.5267   -2.6968  -10.6107 H         1 <0>         0.0958
     51 H26        -0.7521   -1.6523  -12.9284 H         1 <0>         0.1114
     52 H27        -1.9686   -1.1341  -11.7392 H         1 <0>         0.1050
     53 H28         0.1380    2.0135  -11.2877 H         1 <0>         0.4106
@<TRIPOS>BOND
     1    1    2 1
     2    1   26 1
     3    1   27 1
     4    1   28 1
     5    2    3 1
     6    2    9 am
     7    3    8 1
     8    3    4 1
     9    3   29 1
    10    4    5 1
    11    4   30 1
    12    4   31 1
    13    5    6 1
    14    5   32 1
    15    5   33 1
    16    6    7 1
    17    6   34 1
    18    6   35 1
    19    7    8 1
    20    7   36 1
    21    7   37 1
    22    8   38 1
    23    8   39 1
    24    9   10 2
    25    9   11 1
    26   11   12 1
    27   11   40 1
    28   11   41 1
    29   12   13 1
    30   12   42 1
    31   12   43 1
    32   13   14 1
    33   13   44 1
    34   13   45 1
    35   14   15 1
    36   15   20 ar
    37   15   16 ar
    38   16   17 ar
    39   16   46 1
    40   17   18 ar
    41   17   47 1
    42   18   25 1
    43   18   19 ar
    44   19   20 ar
    45   19   21 1
    46   20   48 1
    47   21   22 1
    48   21   49 1
    49   21   50 1
    50   22   23 1
    51   22   51 1
    52   22   52 1
    53   23   24 2
    54   23   25 am
    55   25   53 1
@<TRIPOS>MOLECULE
ZINC43206679
   38    40     0     0     0
SMALL
USER_CHARGES

@<TRIPOS>ATOM
      1 C1          0.0575    1.6813    0.0331 C.3       1 <0>        -0.1497
      2 C2          0.1730    0.1560    0.0005 C.3       1 <0>        -0.1129
      3 C3         -1.2268   -0.4611   -0.0221 C.3       1 <0>        -0.0381
      4 C4         -1.1130   -1.9635   -0.0543 C.2       1 <0>         0.2508
      5 N1         -1.0431   -2.6950   -1.1385 N.2       1 <0>        -0.4634
      6 C5         -0.9494   -3.9849   -0.8101 C.2       1 <0>         0.0841
      7 C6         -0.9614   -4.0646    0.5648 C.2       1 <0>        -0.0770
      8 N2         -1.0613   -2.7631    1.0259 N.pl3     1 <0>        -0.3727
      9 C7         -1.0896   -2.5399    2.3928 C.ar      1 <0>         0.3305
     10 C8         -1.0129   -3.6413    3.2624 C.ar      1 <0>         0.0219
     11 C9         -1.0414   -3.4175    4.6464 C.ar      1 <0>         0.0059
     12 C10        -1.1441   -2.1174    5.0975 C.ar      1 <0>        -0.1761
     13 C11        -1.2157   -1.0766    4.1759 C.ar      1 <0>         0.3580
     14 N3         -1.1867   -1.3112    2.8754 N.ar      1 <0>        -0.5431
     15 O1         -1.3172    0.2010    4.6204 O.3       1 <0>        -0.2954
     16 C12        -1.3872    1.2288    3.6300 C.3       1 <0>         0.0339
     17 N4         -0.9123   -4.9030    2.7714 N.2       1 <0>        -0.4748
     18 C13        -0.8925   -5.1315    1.4848 C.2       1 <0>         0.2429
     19 C14        -0.7784   -6.5467    0.9797 C.3       1 <0>        -0.1058
     20 C15        -0.8495   -5.1433   -1.7688 C.3       1 <0>        -0.0782
     21 H1          1.0547    2.1210    0.0493 H         1 <0>         0.0586
     22 H2         -0.4765    2.0243   -0.8530 H         1 <0>         0.0595
     23 H3         -0.4881    1.9853    0.9265 H         1 <0>         0.0545
     24 H4          0.7186   -0.1480   -0.8928 H         1 <0>         0.0683
     25 H5          0.7071   -0.1869    0.8867 H         1 <0>         0.0578
     26 H6         -1.7724   -0.1571    0.8712 H         1 <0>         0.0936
     27 H7         -1.7608   -0.1181   -0.9083 H         1 <0>         0.0970
     28 H8         -0.9847   -4.2419    5.3418 H         1 <0>         0.1661
     29 H9         -1.1690   -1.9091    6.1570 H         1 <0>         0.1606
     30 H10        -1.4656    2.1998    4.1189 H         1 <0>         0.1034
     31 H11        -0.4874    1.2030    3.0154 H         1 <0>         0.0638
     32 H12        -2.2621    1.0674    3.0002 H         1 <0>         0.0614
     33 H13         0.0831   -6.6275    0.3168 H         1 <0>         0.0905
     34 H14        -0.6522   -7.2247    1.8237 H         1 <0>         0.0895
     35 H15        -1.6835   -6.8115    0.4331 H         1 <0>         0.0914
     36 H16         0.1982   -5.4088   -1.9099 H         1 <0>         0.0811
     37 H17        -1.3895   -5.9986   -1.3627 H         1 <0>         0.0808
     38 H18        -1.2849   -4.8604   -2.7271 H         1 <0>         0.0813
@<TRIPOS>BOND
     1    1    2 1
     2    1   21 1
     3    1   22 1
     4    1   23 1
     5    2    3 1
     6    2   24 1
     7    2   25 1
     8    3    4 1
     9    3   26 1
    10    3   27 1
    11    4    8 1
    12    4    5 2
    13    5    6 1
    14    6    7 2
    15    6   20 1
    16    7   18 1
    17    7    8 1
    18    8    9 1
    19    9   14 ar
    20    9   10 ar
    21   10   11 ar
    22   10   17 1
    23   11   12 ar
    24   11   28 1
    25   12   13 ar
    26   12   29 1
    27   13   14 ar
    28   13   15 1
    29   15   16 1
    30   16   30 1
    31   16   31 1
    32   16   32 1
    33   17   18 2
    34   18   19 1
    35   19   33 1
    36   19   34 1
    37   19   35 1
    38   20   36 1
    39   20   37 1
    40   20   38 1
@<TRIPOS>MOLECULE
ZINC00001553
   30    32     0     0     0
SMALL
USER_CHARGES

@<TRIPOS>ATOM
      1 C1         -0.0169    1.3933    0.0097 C.ar      1 <0>        -0.0474
      2 C2          1.1680    2.0964    0.0022 C.ar      1 <0>        -0.1378
      3 C3          2.3808    1.4179   -0.0135 C.ar      1 <0>         0.1550
      4 C4          2.4041    0.0283   -0.0212 C.ar      1 <0>        -0.1353
      5 C5          1.2238   -0.6824   -0.0138 C.ar      1 <0>        -0.0626
      6 C6          0.0021   -0.0041    0.0020 C.ar      1 <0>        -0.0581
      7 C7         -1.2632   -0.7605    0.0105 C.2       1 <0>         0.1537
      8 N1         -2.3857   -0.1200    0.0198 N.2       1 <0>        -0.2436
      9 N2         -3.6108   -0.7914    0.0545 N.am      1 <0>        -0.5600
     10 C8         -3.6669   -2.0960    0.3833 C.2       1 <0>         0.4943
     11 O1         -4.7226   -2.6919    0.3373 O.2       1 <0>        -0.5184
     12 C9         -2.4092   -2.8127    0.8085 C.3       1 <0>        -0.1438
     13 C10        -1.2252   -2.2657    0.0021 C.3       1 <0>        -0.1215
     14 N3          3.5832    2.1367   -0.0221 N.pl3     1 <0>        -0.4158
     15 C11         4.8484    1.6087   -0.0430 C.2       1 <0>        -0.0544
     16 C12         5.7047    2.6479   -0.0442 C.2       1 <0>        -0.0182
     17 N4          4.9879    3.7814   -0.0245 N.2       1 <0>        -0.4823
     18 C13         3.7160    3.4888   -0.0171 C.2       1 <0>         0.1917
     19 H1         -0.9589    1.9212    0.0260 H         1 <0>         0.1471
     20 H2          1.1542    3.1763    0.0081 H         1 <0>         0.1387
     21 H3          3.3487   -0.4951   -0.0334 H         1 <0>         0.1384
     22 H4          1.2428   -1.7622   -0.0205 H         1 <0>         0.1429
     23 H5         -4.4274   -0.3137   -0.1596 H         1 <0>         0.4334
     24 H6         -2.2376   -2.6473    1.8721 H         1 <0>         0.1090
     25 H7         -2.5160   -3.8805    0.6174 H         1 <0>         0.1179
     26 H8         -1.2851   -2.6243   -1.0255 H         1 <0>         0.1018
     27 H9         -0.2926   -2.6075    0.4510 H         1 <0>         0.1077
     28 H10         5.1083    0.5605   -0.0556 H         1 <0>         0.1802
     29 H11         6.7825    2.5803   -0.0585 H         1 <0>         0.1768
     30 H12         2.9050    4.2019   -0.0057 H         1 <0>         0.2107
@<TRIPOS>BOND
     1    1    6 ar
     2    1    2 ar
     3    1   19 1
     4    2    3 ar
     5    2   20 1
     6    3    4 ar
     7    3   14 1
     8    4    5 ar
     9    4   21 1
    10    5    6 ar
    11    5   22 1
    12    6    7 1
    13    7   13 1
    14    7    8 2
    15    8    9 1
    16    9   10 am
    17    9   23 1
    18   10   11 2
    19   10   12 1
    20   12   13 1
    21   12   24 1
    22   12   25 1
    23   13   26 1
    24   13   27 1
    25   14   18 1
    26   14   15 1
    27   15   16 2
    28   15   28 1
    29   16   17 1
    30   16   29 1
    31   17   18 2
    32   18   30 1
@<TRIPOS>MOLECULE
ZINC00001553
   31    33     0     0     0
SMALL
USER_CHARGES

@<TRIPOS>ATOM
      1 C1         -0.0169    1.3933    0.0097 C.ar      1 <0>        -0.0564
      2 C2          1.1680    2.0964    0.0022 C.ar      1 <0>        -0.0994
      3 C3          2.3808    1.4179   -0.0135 C.ar      1 <0>         0.0862
      4 C4          2.4041    0.0283   -0.0212 C.ar      1 <0>        -0.1073
      5 C5          1.2238   -0.6824   -0.0138 C.ar      1 <0>        -0.0696
      6 C6          0.0021   -0.0041    0.0020 C.ar      1 <0>        -0.0043
      7 C7         -1.2632   -0.7605    0.0105 C.2       1 <0>         0.1265
      8 N1         -2.3857   -0.1200    0.0198 N.2       1 <0>        -0.2211
      9 N2         -3.6108   -0.7914    0.0545 N.am      1 <0>        -0.5570
     10 C8         -3.6669   -2.0960    0.3833 C.2       1 <0>         0.4939
     11 O1         -4.7226   -2.6919    0.3373 O.2       1 <0>        -0.5030
     12 C9         -2.4092   -2.8127    0.8085 C.3       1 <0>        -0.1449
     13 C10        -1.2252   -2.2657    0.0021 C.3       1 <0>        -0.1195
     14 N3          3.5832    2.1367   -0.0221 N.pl3     1 <0>        -0.3495
     15 C11         3.7173    3.5013   -0.0106 C.2       1 <0>         0.0226
     16 C12         5.0379    3.7635   -0.0251 C.2       1 <0>         0.0125
     17 N4          5.6968    2.5953   -0.0449 N.pl3     1 <0>        -0.4704
     18 C13         4.8369    1.6135   -0.0374 C.cat     1 <0>         0.2851
     19 H1         -0.9589    1.9212    0.0260 H         1 <0>         0.1590
     20 H2          1.1542    3.1763    0.0081 H         1 <0>         0.1468
     21 H3          3.3487   -0.4951   -0.0334 H         1 <0>         0.1453
     22 H4          1.2428   -1.7622   -0.0205 H         1 <0>         0.1564
     23 H5         -4.4274   -0.3137   -0.1596 H         1 <0>         0.4373
     24 H6         -2.2376   -2.6473    1.8721 H         1 <0>         0.1112
     25 H7         -2.5160   -3.8805    0.6174 H         1 <0>         0.1223
     26 H8         -1.2851   -2.6243   -1.0255 H         1 <0>         0.1047
     27 H9         -0.2926   -2.6075    0.4510 H         1 <0>         0.1075
     28 H10         2.9172    4.2265    0.0062 H         1 <0>         0.2254
     29 H11         5.4888    4.7449   -0.0214 H         1 <0>         0.2288
     30 H12         5.0809    0.5615   -0.0452 H         1 <0>         0.2625
     31 H13         6.6616    2.4957   -0.0583 H         1 <0>         0.4683
@<TRIPOS>BOND
     1    1    6 ar
     2    1    2 ar
     3    1   19 1
     4    2    3 ar
     5    2   20 1
     6    3    4 ar
     7    3   14 1
     8    4    5 ar
     9    4   21 1
    10    5    6 ar
    11    5   22 1
    12    6    7 1
    13    7   13 1
    14    7    8 2
    15    8    9 1
    16    9   10 am
    17    9   23 1
    18   10   11 2
    19   10   12 1
    20   12   13 1
    21   12   24 1
    22   12   25 1
    23   13   26 1
    24   13   27 1
    25   14   18 1
    26   14   15 1
    27   15   16 2
    28   15   28 1
    29   16   17 1
    30   16   29 1
    31   17   18 2
    32   17   31 1
    33   18   30 1
@<TRIPOS>MOLECULE
ZINC08673078
   23    24     0     0     0
SMALL
USER_CHARGES

@<TRIPOS>ATOM
      1 C1         -0.0169    1.3939    0.0097 C.ar      1 <0>        -0.1624
      2 C2          1.1800    2.0794    0.0020 C.ar      1 <0>         0.1016
      3 N1          2.3305    1.4332   -0.0129 N.ar      1 <0>        -0.4869
      4 C3          2.3924    0.1152   -0.0206 C.ar      1 <0>         0.1015
      5 C4          1.2432   -0.6476   -0.0138 C.ar      1 <0>        -0.1588
      6 C5          0.0021   -0.0041    0.0020 C.ar      1 <0>         0.0158
      7 C6         -1.2599   -0.7831    0.0099 C.2       1 <0>        -0.1056
      8 C7         -1.5839   -1.5963    1.1189 C.2       1 <0>        -0.1372
      9 C8         -2.7511   -2.3045    1.1050 C.2       1 <0>         0.1121
     10 C9         -3.6060   -2.2075   -0.0162 C.2       1 <0>         0.5103
     11 N2         -3.2701   -1.4242   -1.0580 N.am      1 <0>        -0.5917
     12 C10        -2.1143   -0.7124   -1.0511 C.2       1 <0>         0.0847
     13 O1         -4.6517   -2.8362   -0.0400 O.2       1 <0>        -0.5475
     14 N3         -3.0974   -3.1189    2.1905 N.pl3     1 <0>        -0.8547
     15 H1         -0.9548    1.9292    0.0260 H         1 <0>         0.1370
     16 H2          1.1756    3.1593    0.0078 H         1 <0>         0.1576
     17 H3          3.3557   -0.3729   -0.0328 H         1 <0>         0.1576
     18 H4          1.3013   -1.7260   -0.0208 H         1 <0>         0.1369
     19 H5         -0.9170   -1.6572    1.9662 H         1 <0>         0.1324
     20 H6         -1.8667   -0.0870   -1.8961 H         1 <0>         0.1636
     21 H7         -2.5068   -3.1820    2.9574 H         1 <0>         0.4048
     22 H8         -3.9279   -3.6199    2.1754 H         1 <0>         0.4072
     23 H9         -3.8639   -1.3647   -1.8227 H         1 <0>         0.4217
@<TRIPOS>BOND
     1    1    6 ar
     2    1    2 ar
     3    1   15 1
     4    2    3 ar
     5    2   16 1
     6    3    4 ar
     7    4    5 ar
     8    4   17 1
     9    5    6 ar
    10    5   18 1
    11    6    7 1
    12    7   12 2
    13    7    8 1
    14    8    9 2
    15    8   19 1
    16    9   10 1
    17    9   14 1
    18   10   11 am
    19   10   13 2
    20   11   12 1
    21   11   23 1
    22   12   20 1
    23   14   21 1
    24   14   22 1
@<TRIPOS>MOLECULE
ZINC13731308
   17    18     0     0     0
SMALL
USER_CHARGES
5-bromo-1H-1,6-naphthyridin-2-one
@<TRIPOS>ATOM
      1 C1          1.2151    3.5353    0.0094 C.2       1 <0>        -0.0171
      2 C2          0.0207    4.1791    0.0243 C.2       1 <0>        -0.1987
      3 C3         -1.1843    3.4446    0.0314 C.2       1 <0>         0.5361
      4 O1         -2.2451    4.0444    0.0444 O.2       1 <0>        -0.5217
      5 N1         -1.1922    2.0990    0.0304 N.am      1 <0>        -0.6255
      6 H1         -2.0384    1.6248    0.0397 H         1 <0>         0.4220
      7 C4         -0.0168    1.3888    0.0097 C.ar      1 <0>         0.2290
      8 C5          1.2163    2.0731    0.0016 C.ar      1 <0>        -0.1589
      9 C6          2.4032    1.3353   -0.0132 C.ar      1 <0>         0.1881
     10 N2          2.3593    0.0181   -0.0199 N.ar      1 <0>        -0.4783
     11 C7          1.2188   -0.6514   -0.0131 C.ar      1 <0>         0.1517
     12 C8          0.0021   -0.0041    0.0020 C.ar      1 <0>        -0.2009
     13 Br1         4.0710    2.2264   -0.0243 Br        1 <0>         0.0196
     14 H2          2.1421    4.0894    0.0032 H         1 <0>         0.1572
     15 H3         -0.0079    5.2587    0.0304 H         1 <0>         0.1647
     16 H4          1.2413   -1.7311   -0.0191 H         1 <0>         0.1767
     17 H5         -0.9199   -0.5665    0.0074 H         1 <0>         0.1559
@<TRIPOS>BOND
     1    1    8 1
     2    1    2 2
     3    1   14 1
     4    2    3 1
     5    2   15 1
     6    3    4 2
     7    3    5 am
     8    5    6 1
     9    5    7 1
    10    7   12 ar
    11    7    8 ar
    12    8    9 ar
    13    9   10 ar
    14    9   13 1
    15   10   11 ar
    16   11   12 ar
    17   11   16 1
    18   12   17 1
@<TRIPOS>MOLECULE
ZINC05765028
   20    21     0     0     0
SMALL
USER_CHARGES
5-methyl-1H-1,6-naphthyridin-2-one
@<TRIPOS>ATOM
      1 C1         -2.5123   -0.0669    0.0253 C.3       1 <0>        -0.1165
      2 C2         -1.1734   -0.7583    0.0087 C.ar      1 <0>         0.2039
      3 C3          0.0021   -0.0041    0.0020 C.ar      1 <0>        -0.1953
      4 C4         -0.0178    1.4585    0.0101 C.2       1 <0>        -0.0096
      5 C5          1.1670    2.1194    0.0023 C.2       1 <0>        -0.2170
      6 C6          2.3827    1.4021   -0.0145 C.2       1 <0>         0.5379
      7 O1          3.4347    2.0171   -0.0220 O.2       1 <0>        -0.5333
      8 N1          2.4098    0.0568   -0.0211 N.am      1 <0>        -0.6406
      9 H1          3.3733   -0.4739   -0.0328 H         1 <0>         0.4452
     10 C7          1.2448   -0.6703   -0.0134 C.ar      1 <0>         0.2301
     11 C8          1.2456   -2.0636   -0.0209 C.ar      1 <0>        -0.2268
     12 C9          0.0382   -2.7276   -0.0130 C.ar      1 <0>         0.1503
     13 N2         -1.1115   -2.0735    0.0011 N.ar      1 <0>        -0.5105
     14 H2         -2.3622    1.0228    0.0297 H         1 <0>         0.0800
     15 H3         -3.0673   -0.3642    0.9273 H         1 <0>         0.0898
     16 H4         -3.0846   -0.3546   -0.8689 H         1 <0>         0.0898
     17 H5         -0.9527    1.9991    0.0175 H         1 <0>         0.1527
     18 H6          1.1802    3.1993    0.0080 H         1 <0>         0.1580
     19 H7          2.1754   -2.6130   -0.0324 H         1 <0>         0.1465
     20 H8          0.0304   -3.8075   -0.0187 H         1 <0>         0.1654
@<TRIPOS>BOND
     1    1    2 1
     2    1   14 1
     3    1   15 1
     4    1   16 1
     5    2   13 ar
     6    2    3 ar
     7    3   10 ar
     8    3    4 1
     9    4    5 2
    10    4   17 1
    11    5    6 1
    12    5   18 1
    13    6    7 2
    14    6    8 am
    15    8    9 1
    16    8   10 1
    17   10   11 ar
    18   11   12 ar
    19   11   19 1
    20   12   13 ar
    21   12   20 1
@<TRIPOS>MOLECULE
ZINC18324776
   66    69     0     0     0
SMALL
USER_CHARGES

@<TRIPOS>ATOM
      1 C1         -0.0187    1.5258    0.0104 C.3       1 <0>        -0.1515
      2 C2          0.0021   -0.0041    0.0020 C.3       1 <0>        -0.1161
      3 C3          0.7182   -0.4975   -1.2568 C.3       1 <0>        -0.0382
      4 C4          0.7386   -2.0043   -1.2651 C.2       1 <0>         0.2940
      5 N1          1.6787   -2.7529   -0.7375 N.2       1 <0>        -0.4766
      6 C5          1.3866   -4.0413   -0.9211 C.2       1 <0>         0.1350
      7 C6          0.1960   -4.0985   -1.6021 C.2       1 <0>        -0.1676
      8 N2         -0.2036   -2.7889   -1.8075 N.pl3     1 <0>        -0.2813
      9 N3         -1.4027   -2.5429   -2.4823 N.2       1 <0>        -0.2666
     10 C7         -2.1451   -3.5211   -2.9147 C.2       1 <0>         0.4182
     11 N4         -1.8014   -4.8460   -2.7370 N.am      1 <0>        -0.6707
     12 H1         -2.3837   -5.5441   -3.0753 H         1 <0>         0.4225
     13 C8         -0.6544   -5.1776   -2.1025 C.2       1 <0>         0.6004
     14 O1         -0.3442   -6.3438   -1.9407 O.2       1 <0>        -0.4846
     15 C9         -3.4025   -3.2011   -3.6216 C.ar      1 <0>        -0.1222
     16 C10        -4.2233   -4.2270   -4.0923 C.ar      1 <0>         0.0523
     17 C11        -5.3956   -3.9221   -4.7514 C.ar      1 <0>        -0.7181
     18 C12        -5.7625   -2.6016   -4.9484 C.ar      1 <0>         0.0502
     19 C13        -4.9584   -1.5773   -4.4871 C.ar      1 <0>        -0.2291
     20 C14        -3.7798   -1.8669   -3.8177 C.ar      1 <0>         0.2417
     21 O2         -2.9915   -0.8612   -3.3589 O.3       1 <0>        -0.2691
     22 C15        -3.4407    0.4746   -3.5956 C.3       1 <0>         0.0430
     23 C16        -2.4300    1.4636   -3.0113 C.3       1 <0>        -0.1534
     24 S1         -6.4307   -5.2183   -5.3457 S.o2      1 <0>         2.6925
     25 O3         -7.1994   -4.6697   -6.4075 O.2       1 <0>        -0.9459
     26 O4         -5.5978   -6.3568   -5.5173 O.2       1 <0>        -0.9478
     27 N5         -7.4957   -5.5895   -4.1331 N.pl3     1 <0>        -0.9969
     28 C17        -7.1670   -6.6094   -3.1256 C.3       1 <0>         0.1241
     29 C18        -7.3951   -6.0101   -1.7339 C.3       1 <0>         0.0390
     30 N6         -8.7605   -5.4743   -1.6528 N.3       1 <0>        -0.5346
     31 C19        -8.9594   -4.3757   -2.6075 C.3       1 <0>         0.0359
     32 C20        -8.7928   -4.9036   -4.0315 C.3       1 <0>         0.1244
     33 C21        -9.0775   -5.0460   -0.2838 C.3       1 <0>         0.0507
     34 C22       -10.5711   -4.7305   -0.1811 C.3       1 <0>        -0.1507
     35 C23         2.2115   -5.2172   -0.4653 C.3       1 <0>        -0.0791
     36 H2          1.0039    1.9031    0.0027 H         1 <0>         0.0592
     37 H3         -0.5459    1.8868   -0.8726 H         1 <0>         0.0568
     38 H4         -0.5289    1.8773    0.9072 H         1 <0>         0.0582
     39 H5          0.5293   -0.3651    0.8851 H         1 <0>         0.0698
     40 H6         -1.0205   -0.3814    0.0098 H         1 <0>         0.0616
     41 H7          0.1910   -0.1364   -2.1398 H         1 <0>         0.0903
     42 H8          1.7408   -0.1202   -1.2645 H         1 <0>         0.1010
     43 H9         -3.9405   -5.2583   -3.9410 H         1 <0>         0.1476
     44 H10        -6.6820   -2.3711   -5.4658 H         1 <0>         0.1528
     45 H11        -5.2508   -0.5496   -4.6443 H         1 <0>         0.1519
     46 H12        -3.5339    0.6418   -4.6687 H         1 <0>         0.0707
     47 H13        -4.4100    0.6217   -3.1194 H         1 <0>         0.0698
     48 H14        -2.3368    1.2964   -1.9383 H         1 <0>         0.0715
     49 H15        -1.4607    1.3165   -3.4876 H         1 <0>         0.0696
     50 H16        -2.7726    2.4825   -3.1919 H         1 <0>         0.0831
     51 H17        -7.8113   -7.4781   -3.2603 H         1 <0>         0.0891
     52 H18        -6.1229   -6.9045   -3.2305 H         1 <0>         0.0932
     53 H19        -7.2628   -6.7844   -0.9782 H         1 <0>         0.0906
     54 H20        -6.6785   -5.2070   -1.5617 H         1 <0>         0.0379
     55 H21        -9.9616   -3.9647   -2.4854 H         1 <0>         0.0938
     56 H22        -8.2210   -3.5954   -2.4231 H         1 <0>         0.0379
     57 H23        -8.8232   -4.0716   -4.7350 H         1 <0>         0.0943
     58 H24        -9.5965   -5.6053   -4.2549 H         1 <0>         0.0876
     59 H25        -8.8260   -5.8445    0.4142 H         1 <0>         0.0769
     60 H26        -8.5002   -4.1544   -0.0392 H         1 <0>         0.0325
     61 H27       -10.8226   -3.9319   -0.8791 H         1 <0>         0.0550
     62 H28       -11.1485   -5.6221   -0.4257 H         1 <0>         0.0654
     63 H29       -10.8063   -4.4127    0.8346 H         1 <0>         0.0603
     64 H30         1.9006   -5.5126    0.5368 H         1 <0>         0.0820
     65 H31         2.0655   -6.0513   -1.1517 H         1 <0>         0.0840
     66 H32         3.2651   -4.9383   -0.4514 H         1 <0>         0.0816
@<TRIPOS>BOND
     1    1    2 1
     2    1   36 1
     3    1   37 1
     4    1   38 1
     5    2    3 1
     6    2   39 1
     7    2   40 1
     8    3    4 1
     9    3   41 1
    10    3   42 1
    11    4    8 1
    12    4    5 2
    13    5    6 1
    14    6    7 2
    15    6   35 1
    16    7   13 1
    17    7    8 1
    18    8    9 1
    19    9   10 2
    20   10   11 1
    21   10   15 1
    22   11   12 1
    23   11   13 am
    24   13   14 2
    25   15   20 ar
    26   15   16 ar
    27   16   17 ar
    28   16   43 1
    29   17   18 ar
    30   17   24 1
    31   18   19 ar
    32   18   44 1
    33   19   20 ar
    34   19   45 1
    35   20   21 1
    36   21   22 1
    37   22   23 1
    38   22   46 1
    39   22   47 1
    40   23   48 1
    41   23   49 1
    42   23   50 1
    43   24   25 2
    44   24   26 2
    45   24   27 1
    46   27   32 1
    47   27   28 1
    48   28   29 1
    49   28   51 1
    50   28   52 1
    51   29   30 1
    52   29   53 1
    53   29   54 1
    54   30   31 1
    55   30   33 1
    56   31   32 1
    57   31   55 1
    58   31   56 1
    59   32   57 1
    60   32   58 1
    61   33   34 1
    62   33   59 1
    63   33   60 1
    64   34   61 1
    65   34   62 1
    66   34   63 1
    67   35   64 1
    68   35   65 1
    69   35   66 1
@<TRIPOS>MOLECULE
ZINC18324776
   65    68     0     0     0
SMALL
USER_CHARGES

@<TRIPOS>ATOM
      1 C1         -0.0187    1.5258    0.0104 C.3       1 <0>        -0.1472
      2 C2          0.0021   -0.0041    0.0020 C.3       1 <0>        -0.1154
      3 C3         -1.4333   -0.5336    0.0129 C.3       1 <0>        -0.0179
      4 C4         -1.4129   -2.0405    0.0046 C.2       1 <0>         0.2125
      5 N1         -1.4071   -2.7931   -1.0712 N.2       1 <0>        -0.4896
      6 C5         -1.3882   -4.0792   -0.7236 C.2       1 <0>         0.0659
      7 C6         -1.3817   -4.1334    0.6527 C.2       1 <0>        -0.1332
      8 N2         -1.3919   -2.8203    1.0938 N.pl3     1 <0>        -0.2435
      9 N3         -1.3825   -2.5794    2.4721 N.2       1 <0>        -0.3804
     10 C7         -1.3611   -3.5896    3.3115 C.2       1 <0>         0.3856
     11 N4         -1.3477   -4.8635    2.8932 N.2       1 <0>        -0.6634
     12 C8         -1.3637   -5.1706    1.6102 C.2       1 <0>         0.5160
     13 O1         -1.3482   -6.4650    1.2164 O.3       1 <0>        -0.6444
     14 C9         -1.3510   -3.3124    4.7674 C.ar      1 <0>        -0.0696
     15 C10        -1.3226   -4.3652    5.6804 C.ar      1 <0>         0.0723
     16 C11        -1.3133   -4.1018    7.0345 C.ar      1 <0>        -0.7301
     17 C12        -1.3321   -2.7951    7.4910 C.ar      1 <0>         0.0273
     18 C13        -1.3608   -1.7438    6.5951 C.ar      1 <0>        -0.2428
     19 C14        -1.3641   -1.9932    5.2316 C.ar      1 <0>         0.2183
     20 O2         -1.3862   -0.9606    4.3499 O.3       1 <0>        -0.2614
     21 C15        -1.3985    0.3595    4.8970 C.3       1 <0>         0.0448
     22 C16        -1.4229    1.3826    3.7597 C.3       1 <0>        -0.1490
     23 S1         -1.2780   -5.4337    8.1875 S.o2      1 <0>         2.6955
     24 O3         -1.8252   -4.9355    9.4005 O.2       1 <0>        -0.9613
     25 O4         -1.8158   -6.5654    7.5173 O.2       1 <0>        -0.9471
     26 N5          0.3135   -5.7760    8.4916 N.pl3     1 <0>        -0.9993
     27 C17         1.0454   -6.7536    7.6720 C.3       1 <0>         0.1257
     28 C18         2.3494   -6.1074    7.1922 C.3       1 <0>         0.0382
     29 N6          3.0902   -5.5890    8.3500 N.3       1 <0>        -0.5349
     30 C19         2.3371   -4.5289    9.0333 C.3       1 <0>         0.0355
     31 C20         1.0342   -5.1059    9.5847 C.3       1 <0>         0.1277
     32 C21         4.4231   -5.1157    7.9532 C.3       1 <0>         0.0491
     33 C22         5.2521   -4.8186    9.2044 C.3       1 <0>        -0.1481
     34 C23        -1.3761   -5.2575   -1.6630 C.3       1 <0>        -0.0570
     35 H1          1.0039    1.9031    0.0027 H         1 <0>         0.0513
     36 H2         -0.5459    1.8868   -0.8726 H         1 <0>         0.0538
     37 H3         -0.5289    1.8773    0.9072 H         1 <0>         0.0536
     38 H4          0.5123   -0.3556   -0.8948 H         1 <0>         0.0637
     39 H5          0.5293   -0.3651    0.8851 H         1 <0>         0.0604
     40 H6         -1.9435   -0.1821    0.9097 H         1 <0>         0.0786
     41 H7         -1.9605   -0.1726   -0.8702 H         1 <0>         0.0832
     42 H8         -1.3082   -5.3860    5.3281 H         1 <0>         0.1637
     43 H9         -1.3247   -2.5965    8.5525 H         1 <0>         0.1396
     44 H10        -1.3757   -0.7265    6.9575 H         1 <0>         0.1384
     45 H11        -2.2844    0.4866    5.5191 H         1 <0>         0.0614
     46 H12        -0.5047    0.5103    5.5023 H         1 <0>         0.0605
     47 H13        -1.4323    2.3896    4.1770 H         1 <0>         0.0741
     48 H14        -0.5370    1.2555    3.1375 H         1 <0>         0.0691
     49 H15        -2.3167    1.2318    3.1543 H         1 <0>         0.0679
     50 H16         1.2725   -7.6360    8.2702 H         1 <0>         0.0831
     51 H17         0.4391   -7.0371    6.8117 H         1 <0>         0.0995
     52 H18         2.9558   -6.8517    6.6760 H         1 <0>         0.0892
     53 H19         2.1202   -5.2882    6.5106 H         1 <0>         0.0436
     54 H20         2.9344   -4.1285    9.8524 H         1 <0>         0.0887
     55 H21         2.1080   -3.7317    8.3261 H         1 <0>         0.0397
     56 H22         0.4205   -4.3006    9.9884 H         1 <0>         0.0914
     57 H23         1.2602   -5.8269   10.3703 H         1 <0>         0.0814
     58 H24         4.9205   -5.8846    7.3620 H         1 <0>         0.0757
     59 H25         4.3241   -4.2075    7.3587 H         1 <0>         0.0329
     60 H26         6.2411   -4.4674    8.9100 H         1 <0>         0.0572
     61 H27         4.7547   -4.0497    9.7956 H         1 <0>         0.0540
     62 H28         5.3511   -5.7268    9.7988 H         1 <0>         0.0632
     63 H29        -0.3456   -5.5279   -1.8935 H         1 <0>         0.0620
     64 H30        -1.8769   -6.1032   -1.1917 H         1 <0>         0.0807
     65 H31        -1.8970   -4.9937   -2.5834 H         1 <0>         0.0597
@<TRIPOS>BOND
     1    1    2 1
     2    1   35 1
     3    1   36 1
     4    1   37 1
     5    2    3 1
     6    2   38 1
     7    2   39 1
     8    3    4 1
     9    3   40 1
    10    3   41 1
    11    4    8 1
    12    4    5 2
    13    5    6 1
    14    6    7 2
    15    6   34 1
    16    7   12 1
    17    7    8 1
    18    8    9 1
    19    9   10 2
    20   10   11 1
    21   10   14 1
    22   11   12 2
    23   12   13 1
    24   14   19 ar
    25   14   15 ar
    26   15   16 ar
    27   15   42 1
    28   16   17 ar
    29   16   23 1
    30   17   18 ar
    31   17   43 1
    32   18   19 ar
    33   18   44 1
    34   19   20 1
    35   20   21 1
    36   21   22 1
    37   21   45 1
    38   21   46 1
    39   22   47 1
    40   22   48 1
    41   22   49 1
    42   23   24 2
    43   23   25 2
    44   23   26 1
    45   26   31 1
    46   26   27 1
    47   27   28 1
    48   27   50 1
    49   27   51 1
    50   28   29 1
    51   28   52 1
    52   28   53 1
    53   29   30 1
    54   29   32 1
    55   30   31 1
    56   30   54 1
    57   30   55 1
    58   31   56 1
    59   31   57 1
    60   32   33 1
    61   32   58 1
    62   32   59 1
    63   33   60 1
    64   33   61 1
    65   33   62 1
    66   34   63 1
    67   34   64 1
    68   34   65 1
@<TRIPOS>MOLECULE
ZINC18324776
   67    70     0     0     0
SMALL
USER_CHARGES

@<TRIPOS>ATOM
      1 C1         -0.0187    1.5258    0.0104 C.3       1 <0>        -0.1527
      2 C2          0.0021   -0.0041    0.0020 C.3       1 <0>        -0.1146
      3 C3         -1.4333   -0.5336    0.0129 C.3       1 <0>        -0.0409
      4 C4         -1.4129   -2.0405    0.0046 C.2       1 <0>         0.3010
      5 N1         -1.4071   -2.7929   -1.0707 N.2       1 <0>        -0.4733
      6 C5         -1.3877   -4.0800   -0.7214 C.2       1 <0>         0.1428
      7 C6         -1.3810   -4.1322    0.6504 C.2       1 <0>        -0.1723
      8 N2         -1.3919   -2.8210    1.0945 N.pl3     1 <0>        -0.2854
      9 N3         -1.3832   -2.5699    2.4695 N.2       1 <0>        -0.2583
     10 C7         -1.3620   -3.5449    3.3321 C.2       1 <0>         0.4061
     11 N4         -1.3466   -4.8711    2.9502 N.am      1 <0>        -0.6726
     12 H1         -1.3310   -5.5667    3.6261 H         1 <0>         0.4190
     13 C8         -1.3621   -5.2077    1.6407 C.2       1 <0>         0.6010
     14 O1         -1.3478   -6.3752    1.2954 O.2       1 <0>        -0.4816
     15 C9         -1.3537   -3.2195    4.7733 C.ar      1 <0>        -0.1139
     16 C10        -1.3254   -4.2417    5.7231 C.ar      1 <0>         0.0469
     17 C11        -1.3178   -3.9318    7.0668 C.ar      1 <0>        -0.7277
     18 C12        -1.3382   -2.6100    7.4784 C.ar      1 <0>         0.0445
     19 C13        -1.3663   -1.5892    6.5478 C.ar      1 <0>        -0.2261
     20 C14        -1.3684   -1.8838    5.1935 C.ar      1 <0>         0.2477
     21 O2         -1.3904   -0.8814    4.2779 O.3       1 <0>        -0.2651
     22 C15        -1.4044    0.4562    4.7806 C.3       1 <0>         0.0428
     23 C16        -1.4284    1.4408    3.6097 C.3       1 <0>        -0.1560
     24 S1         -1.2826   -5.2233    8.2649 S.o2      1 <0>         2.6921
     25 O3         -1.8316   -4.6842    9.4596 O.2       1 <0>        -0.9290
     26 O4         -1.8188   -6.3779    7.6334 O.2       1 <0>        -0.9309
     27 N5          0.3088   -5.5535    8.5823 N.pl3     1 <0>        -1.0122
     28 C17         1.0439   -6.5580    7.7981 C.3       1 <0>         0.0949
     29 C18         2.3562   -5.9317    7.3149 C.3       1 <0>        -0.0239
     30 N6          3.0970   -5.4006    8.4661 N.4       1 <0>        -0.3828
     31 C19         2.3407   -4.3048    9.0851 C.3       1 <0>        -0.0284
     32 C20         1.0293   -4.8464    9.6524 C.3       1 <0>         0.0958
     33 C21         4.4028   -4.8994    8.0169 C.3       1 <0>        -0.0114
     34 C22         5.2254   -4.4605    9.2299 C.3       1 <0>        -0.1896
     35 C23        -1.3758   -5.2593   -1.6596 C.3       1 <0>        -0.0821
     36 H2          1.0039    1.9031    0.0027 H         1 <0>         0.0592
     37 H3         -0.5459    1.8868   -0.8726 H         1 <0>         0.0614
     38 H4         -0.5289    1.8773    0.9072 H         1 <0>         0.0565
     39 H5          0.5123   -0.3556   -0.8948 H         1 <0>         0.0710
     40 H6          0.5293   -0.3651    0.8851 H         1 <0>         0.0594
     41 H7         -1.9435   -0.1821    0.9097 H         1 <0>         0.0906
     42 H8         -1.9605   -0.1726   -0.8702 H         1 <0>         0.1040
     43 H9         -1.3098   -5.2740    5.4062 H         1 <0>         0.1484
     44 H10        -1.3324   -2.3756    8.5327 H         1 <0>         0.1534
     45 H11        -1.3821   -0.5605    6.8761 H         1 <0>         0.1551
     46 H12        -2.2911    0.6033    5.3972 H         1 <0>         0.0735
     47 H13        -0.5114    0.6279    5.3815 H         1 <0>         0.0708
     48 H14        -0.5417    1.2936    2.9931 H         1 <0>         0.0726
     49 H15        -2.3214    1.2691    3.0088 H         1 <0>         0.0719
     50 H16        -1.4391    2.4610    3.9931 H         1 <0>         0.0865
     51 H17         1.2599   -7.4244    8.4233 H         1 <0>         0.1083
     52 H18         0.4453   -6.8622    6.9395 H         1 <0>         0.1351
     53 H19         2.9579   -6.6900    6.8139 H         1 <0>         0.1474
     54 H20         2.1378   -5.1222    6.6184 H         1 <0>         0.1335
     55 H21         2.9311   -3.8642    9.8885 H         1 <0>         0.1485
     56 H22         2.1228   -3.5445    8.3351 H         1 <0>         0.1342
     57 H23         0.4209   -4.0196   10.0191 H         1 <0>         0.1362
     58 H24         1.2438   -5.5370   10.4679 H         1 <0>         0.1066
     59 H25         4.9323   -5.6903    7.4857 H         1 <0>         0.1333
     60 H26         4.2560   -4.0494    7.3505 H         1 <0>         0.1286
     61 H27         4.6958   -3.6696    9.7611 H         1 <0>         0.0809
     62 H28         5.3721   -5.3105    9.8963 H         1 <0>         0.0825
     63 H29         6.1943   -4.0886    8.8966 H         1 <0>         0.1077
     64 H30        -0.3454   -5.5297   -1.8903 H         1 <0>         0.0839
     65 H31        -1.8762   -6.1045   -1.1871 H         1 <0>         0.0849
     66 H32        -1.8973   -4.9966   -2.5800 H         1 <0>         0.0846
     67 H33         3.2364   -6.1358    9.1430 H         1 <0>         0.4258
@<TRIPOS>BOND
     1    1    2 1
     2    1   36 1
     3    1   37 1
     4    1   38 1
     5    2    3 1
     6    2   39 1
     7    2   40 1
     8    3    4 1
     9    3   41 1
    10    3   42 1
    11    4    8 1
    12    4    5 2
    13    5    6 1
    14    6    7 2
    15    6   35 1
    16    7   13 1
    17    7    8 1
    18    8    9 1
    19    9   10 2
    20   10   11 1
    21   10   15 1
    22   11   12 1
    23   11   13 am
    24   13   14 2
    25   15   20 ar
    26   15   16 ar
    27   16   17 ar
    28   16   43 1
    29   17   18 ar
    30   17   24 1
    31   18   19 ar
    32   18   44 1
    33   19   20 ar
    34   19   45 1
    35   20   21 1
    36   21   22 1
    37   22   23 1
    38   22   46 1
    39   22   47 1
    40   23   48 1
    41   23   49 1
    42   23   50 1
    43   24   25 2
    44   24   26 2
    45   24   27 1
    46   27   32 1
    47   27   28 1
    48   28   29 1
    49   28   51 1
    50   28   52 1
    51   29   30 1
    52   29   53 1
    53   29   54 1
    54   30   31 1
    55   30   33 1
    56   30   67 1
    57   31   32 1
    58   31   55 1
    59   31   56 1
    60   32   57 1
    61   32   58 1
    62   33   34 1
    63   33   59 1
    64   33   60 1
    65   34   61 1
    66   34   62 1
    67   34   63 1
    68   35   64 1
    69   35   65 1
    70   35   66 1
@<TRIPOS>MOLECULE
ZINC08144603
   29    30     0     0     0
SMALL
USER_CHARGES

@<TRIPOS>ATOM
      1 C1         -0.0184    1.5028    0.0103 C.3       1 <0>        -0.1200
      2 C2          0.0021   -0.0041    0.0020 C.2       1 <0>         0.4632
      3 N1          0.0050   -0.6288   -1.1442 N.2       1 <0>        -0.5686
      4 C3          0.0229   -1.9660   -1.2126 C.2       1 <0>         0.5136
      5 C4          0.0388   -2.7147   -0.0241 C.2       1 <0>        -0.3197
      6 C5          0.0351   -2.0107    1.2074 C.2       1 <0>         0.5645
      7 N2          0.0222   -0.6615    1.1776 N.am      1 <0>        -0.6360
      8 O1          0.0480   -2.6107    2.2684 O.2       1 <0>        -0.5245
      9 C6          0.0576   -4.1462   -0.0549 C.1       1 <0>         0.2847
     10 N3          0.0726   -5.2819   -0.0793 N.1       1 <0>        -0.4331
     11 N4          0.0252   -2.5987   -2.4315 N.pl3     1 <0>        -0.6828
     12 C7          0.0080   -1.8102   -3.6661 C.3       1 <0>         0.1686
     13 C8          0.0145   -2.7371   -4.8543 C.ar      1 <0>        -0.1755
     14 C9          1.2133   -3.1572   -5.4105 C.ar      1 <0>        -0.0525
     15 C10         1.1709   -4.0098   -6.5028 C.ar      1 <0>        -0.1737
     16 C11        -0.0562   -4.4100   -6.9976 C.ar      1 <0>         0.1120
     17 N5         -1.1764   -3.9900   -6.4433 N.ar      1 <0>        -0.4843
     18 C12        -1.1740   -3.1837   -5.3997 C.ar      1 <0>         0.1227
     19 H1          1.0042    1.8801    0.0026 H         1 <0>         0.1102
     20 H2         -0.5455    1.8639   -0.8728 H         1 <0>         0.1120
     21 H3         -0.5286    1.8543    0.9071 H         1 <0>         0.0965
     22 H4          0.0381   -3.5676   -2.4750 H         1 <0>         0.4183
     23 H5         -0.8906   -1.1937   -3.6910 H         1 <0>         0.0920
     24 H6          0.8892   -1.1695   -3.7003 H         1 <0>         0.0903
     25 H7          2.1575   -2.8277   -5.0027 H         1 <0>         0.1381
     26 H8          2.0850   -4.3567   -6.9615 H         1 <0>         0.1403
     27 H9         -0.0978   -5.0741   -7.8483 H         1 <0>         0.1602
     28 H10        -2.1119   -2.8649   -4.9693 H         1 <0>         0.1581
     29 H11         0.0236   -0.1615    2.0089 H         1 <0>         0.4253
@<TRIPOS>BOND
     1    1    2 1
     2    1   19 1
     3    1   20 1
     4    1   21 1
     5    2    7 1
     6    2    3 2
     7    3    4 1
     8    4    5 2
     9    4   11 1
    10    5    6 1
    11    5    9 1
    12    6    7 am
    13    6    8 2
    14    7   29 1
    15    9   10 3
    16   11   12 1
    17   11   22 1
    18   12   13 1
    19   12   23 1
    20   12   24 1
    21   13   18 ar
    22   13   14 ar
    23   14   15 ar
    24   14   25 1
    25   15   16 ar
    26   15   26 1
    27   16   17 ar
    28   16   27 1
    29   17   18 ar
    30   18   28 1
@<TRIPOS>MOLECULE
ZINC03781942
   54    57     0     0     0
SMALL
USER_CHARGES
6-[4-(3,4-dimethoxybenzoyl)piperazin-1-yl]-3,4-dihydro-1H-quinolin-2-one
@<TRIPOS>ATOM
      1 C1          7.5297   12.9357   -1.7233 C.3       1 <0>         0.0229
      2 O1          6.4168   13.5383   -2.3868 O.3       1 <0>        -0.3009
      3 C2          5.2032   12.9555   -2.2083 C.ar      1 <0>         0.1281
      4 C3          5.0882   11.8255   -1.4099 C.ar      1 <0>        -0.1820
      5 C4          3.8583   11.2334   -1.2218 C.ar      1 <0>        -0.0887
      6 C5          2.7252   11.7637   -1.8435 C.ar      1 <0>        -0.1345
      7 C6          2.8407   12.9011   -2.6471 C.ar      1 <0>        -0.1169
      8 C7          4.0758   13.4930   -2.8274 C.ar      1 <0>         0.0949
      9 O2          4.1918   14.5998   -3.6092 O.3       1 <0>        -0.3032
     10 C8          2.9954   15.0960   -4.2128 C.3       1 <0>         0.0231
     11 C9          1.4078   11.1276   -1.6471 C.2       1 <0>         0.5675
     12 O3          0.4005   11.8084   -1.6296 O.2       1 <0>        -0.5325
     13 N1          1.3214    9.7922   -1.4872 N.am      1 <0>        -0.6108
     14 C10         2.5111    8.9375   -1.6196 C.3       1 <0>         0.0949
     15 C11         2.1875    7.8004   -2.5945 C.3       1 <0>         0.0336
     16 N2          0.9717    7.1076   -2.1476 N.pl3     1 <0>        -0.4850
     17 C12        -0.1910    8.0053   -2.1677 C.3       1 <0>         0.0437
     18 C13         0.0351    9.1508   -1.1753 C.3       1 <0>         0.1150
     19 C14         0.7351    5.9635   -2.9170 C.ar      1 <0>         0.0926
     20 C15         1.6057    5.6256   -3.9453 C.ar      1 <0>        -0.1397
     21 C16         1.3721    4.4968   -4.7049 C.ar      1 <0>        -0.1214
     22 C17         0.2666    3.6991   -4.4409 C.ar      1 <0>         0.1343
     23 C18        -0.6036    4.0368   -3.4130 C.ar      1 <0>        -0.0955
     24 C19        -0.3706    5.1655   -2.6531 C.ar      1 <0>        -0.1021
     25 C20        -1.8016    3.1682   -3.1292 C.3       1 <0>        -0.0783
     26 C21        -2.3300    2.5832   -4.4427 C.3       1 <0>        -0.1387
     27 C22        -1.1929    1.9861   -5.2272 C.2       1 <0>         0.5199
     28 O4         -1.3798    0.9853   -5.8865 O.2       1 <0>        -0.5277
     29 N3          0.0274    2.5529   -5.2100 N.am      1 <0>        -0.6637
     30 H1          8.4356   13.4982   -1.9493 H         1 <0>         0.1043
     31 H2          7.3576   12.9413   -0.6469 H         1 <0>         0.0585
     32 H3          7.6449   11.9079   -2.0674 H         1 <0>         0.0584
     33 H4          5.9639   11.4121   -0.9320 H         1 <0>         0.1444
     34 H5          3.7709   10.3569   -0.5969 H         1 <0>         0.1417
     35 H6          1.9663   13.3166   -3.1258 H         1 <0>         0.1459
     36 H7          3.2280   15.9790   -4.8081 H         1 <0>         0.1046
     37 H8          2.5668   14.3271   -4.8555 H         1 <0>         0.0562
     38 H9          2.2788   15.3605   -3.4352 H         1 <0>         0.0586
     39 H10         2.7736    8.5221   -0.6466 H         1 <0>         0.0839
     40 H11         3.3433    9.5257   -2.0063 H         1 <0>         0.1092
     41 H12         3.0189    7.0959   -2.6203 H         1 <0>         0.0986
     42 H13         2.0268    8.2106   -3.5914 H         1 <0>         0.0534
     43 H14        -0.3186    8.4127   -3.1706 H         1 <0>         0.0509
     44 H15        -1.0846    7.4494   -1.8841 H         1 <0>         0.0968
     45 H16         0.0596    8.7559   -0.1597 H         1 <0>         0.0807
     46 H17        -0.7693    9.8809   -1.2650 H         1 <0>         0.1028
     47 H18         2.4655    6.2460   -4.1505 H         1 <0>         0.1330
     48 H19         2.0489    4.2344   -5.5046 H         1 <0>         0.1300
     49 H20        -1.0476    5.4278   -1.8536 H         1 <0>         0.1337
     50 H21        -1.5129    2.3593   -2.4581 H         1 <0>         0.0864
     51 H22        -2.5820    3.7678   -2.6606 H         1 <0>         0.0932
     52 H23        -2.8009    3.3711   -5.0305 H         1 <0>         0.1044
     53 H24        -3.0648    1.8084   -4.2237 H         1 <0>         0.1106
     54 H25         0.7462    2.1651   -5.7332 H         1 <0>         0.4108
@<TRIPOS>BOND
     1    1    2 1
     2    1   30 1
     3    1   31 1
     4    1   32 1
     5    2    3 1
     6    3    8 ar
     7    3    4 ar
     8    4    5 ar
     9    4   33 1
    10    5    6 ar
    11    5   34 1
    12    6    7 ar
    13    6   11 1
    14    7    8 ar
    15    7   35 1
    16    8    9 1
    17    9   10 1
    18   10   36 1
    19   10   37 1
    20   10   38 1
    21   11   12 2
    22   11   13 am
    23   13   18 1
    24   13   14 1
    25   14   15 1
    26   14   39 1
    27   14   40 1
    28   15   16 1
    29   15   41 1
    30   15   42 1
    31   16   17 1
    32   16   19 1
    33   17   18 1
    34   17   43 1
    35   17   44 1
    36   18   45 1
    37   18   46 1
    38   19   24 ar
    39   19   20 ar
    40   20   21 ar
    41   20   47 1
    42   21   22 ar
    43   21   48 1
    44   22   29 1
    45   22   23 ar
    46   23   24 ar
    47   23   25 1
    48   24   49 1
    49   25   26 1
    50   25   50 1
    51   25   51 1
    52   26   27 1
    53   26   52 1
    54   26   53 1
    55   27   28 2
    56   27   29 am
    57   29   54 1
@<TRIPOS>MOLECULE
ZINC02011307
   42    43     0     0     0
SMALL
USER_CHARGES

@<TRIPOS>ATOM
      1 C1         -0.0187    1.5258    0.0104 C.3       1 <0>        -0.1523
      2 C2          0.0021   -0.0041    0.0020 C.3       1 <0>        -0.1222
      3 C3          0.7421   -0.5109    1.2415 C.3       1 <0>        -0.1187
      4 C4          0.7628   -2.0407    1.2331 C.3       1 <0>         0.0576
      5 O1          1.4540   -2.5141    2.3908 O.3       1 <0>        -0.3034
      6 C5          1.5628   -3.8618    2.5369 C.ar      1 <0>         0.1077
      7 C6          1.0214   -4.7095    1.5838 C.ar      1 <0>        -0.1714
      8 C7          1.1333   -6.0792    1.7336 C.ar      1 <0>        -0.0845
      9 C8          1.7844   -6.6065    2.8332 C.ar      1 <0>        -0.1117
     10 C9          2.3264   -5.7664    3.7880 C.ar      1 <0>        -0.1694
     11 C10         2.2232   -4.3925    3.6408 C.ar      1 <0>         0.0981
     12 O2          2.7611   -3.5646    4.5760 O.3       1 <0>        -0.3062
     13 C11         3.4243   -4.1796    5.6824 C.3       1 <0>         0.0259
     14 C12         0.5438   -6.9996    0.6960 C.3       1 <0>        -0.0867
     15 C13         1.5898   -7.2888   -0.3825 C.3       1 <0>         0.1255
     16 H1          2.5060   -7.6712    0.0674 H         1 <0>         0.0953
     17 C14         1.0375   -8.2880   -1.4175 C.3       1 <0>         0.0940
     18 N1          1.0600   -7.5354   -2.6807 N.am      1 <0>        -0.7411
     19 C15         1.5385   -6.3054   -2.4516 C.2       1 <0>         0.6991
     20 O3          1.6654   -5.4699   -3.3258 O.2       1 <0>        -0.5877
     21 N2          1.8676   -6.0783   -1.1699 N.am      1 <0>        -0.7347
     22 H2          1.0039    1.9031    0.0027 H         1 <0>         0.0563
     23 H3         -0.5459    1.8868   -0.8726 H         1 <0>         0.0577
     24 H4         -0.5289    1.8773    0.9072 H         1 <0>         0.0558
     25 H5         -1.0205   -0.3814    0.0098 H         1 <0>         0.0644
     26 H6          0.5123   -0.3556   -0.8948 H         1 <0>         0.0658
     27 H7          1.7647   -0.1336    1.2338 H         1 <0>         0.0747
     28 H8          0.2319   -0.1594    2.1383 H         1 <0>         0.0741
     29 H9         -0.2598   -2.4180    1.2409 H         1 <0>         0.0610
     30 H10         1.2730   -2.3923    0.3363 H         1 <0>         0.0617
     31 H11         0.5116   -4.3001    0.7242 H         1 <0>         0.1340
     32 H12         1.8695   -7.6772    2.9469 H         1 <0>         0.1288
     33 H13         2.8343   -6.1809    4.6463 H         1 <0>         0.1361
     34 H14         2.7199   -4.8126    6.2220 H         1 <0>         0.0552
     35 H15         4.2527   -4.7868    5.3175 H         1 <0>         0.0552
     36 H16         3.8061   -3.4084    6.3515 H         1 <0>         0.1013
     37 H17         0.2416   -7.9340    1.1689 H         1 <0>         0.0927
     38 H18        -0.3255   -6.5248    0.2410 H         1 <0>         0.0808
     39 H19         1.6809   -9.1654   -1.4834 H         1 <0>         0.0859
     40 H20         0.0181   -8.5781   -1.1631 H         1 <0>         0.0863
     41 H21         0.7738   -7.8755   -3.5428 H         1 <0>         0.4308
     42 H22         2.2294   -5.2499   -0.8183 H         1 <0>         0.4284
@<TRIPOS>BOND
     1    1    2 1
     2    1   22 1
     3    1   23 1
     4    1   24 1
     5    2    3 1
     6    2   25 1
     7    2   26 1
     8    3    4 1
     9    3   27 1
    10    3   28 1
    11    4    5 1
    12    4   29 1
    13    4   30 1
    14    5    6 1
    15    6   11 ar
    16    6    7 ar
    17    7    8 ar
    18    7   31 1
    19    8    9 ar
    20    8   14 1
    21    9   10 ar
    22    9   32 1
    23   10   11 ar
    24   10   33 1
    25   11   12 1
    26   12   13 1
    27   13   34 1
    28   13   35 1
    29   13   36 1
    30   14   15 1
    31   14   37 1
    32   14   38 1
    33   15   16 1
    34   15   21 1
    35   15   17 1
    36   17   18 1
    37   17   39 1
    38   17   40 1
    39   18   19 am
    40   18   41 1
    41   19   20 2
    42   19   21 am
    43   21   42 1
@<TRIPOS>MOLECULE
ZINC02011308
   42    43     0     0     0
SMALL
USER_CHARGES

@<TRIPOS>ATOM
      1 C1         -0.0187    1.5258    0.0104 C.3       1 <0>        -0.1533
      2 C2          0.0021   -0.0041    0.0020 C.3       1 <0>        -0.1209
      3 C3          0.7421   -0.5109    1.2415 C.3       1 <0>        -0.1201
      4 C4          0.7628   -2.0407    1.2331 C.3       1 <0>         0.0581
      5 O1          1.4540   -2.5141    2.3908 O.3       1 <0>        -0.3039
      6 C5          1.5628   -3.8618    2.5369 C.ar      1 <0>         0.1068
      7 C6          1.0214   -4.7095    1.5838 C.ar      1 <0>        -0.1689
      8 C7          1.1333   -6.0792    1.7336 C.ar      1 <0>        -0.0844
      9 C8          1.7844   -6.6065    2.8332 C.ar      1 <0>        -0.1134
     10 C9          2.3264   -5.7664    3.7880 C.ar      1 <0>        -0.1688
     11 C10         2.2232   -4.3925    3.6408 C.ar      1 <0>         0.0987
     12 O2          2.7611   -3.5646    4.5760 O.3       1 <0>        -0.3063
     13 C11         3.4243   -4.1796    5.6824 C.3       1 <0>         0.0255
     14 C12         0.5438   -6.9996    0.6960 C.3       1 <0>        -0.0867
     15 C13         1.5898   -7.2888   -0.3825 C.3       1 <0>         0.1257
     16 H1          1.9777   -6.3583   -0.7971 H         1 <0>         0.0938
     17 C14         0.9894   -8.1684   -1.4963 C.3       1 <0>         0.0940
     18 N1          1.8065   -9.3904   -1.4592 N.am      1 <0>        -0.7412
     19 C15         2.7323   -9.2718   -0.4984 C.2       1 <0>         0.6992
     20 O3          3.5452  -10.1412   -0.2500 O.2       1 <0>        -0.5877
     21 N2          2.6834   -8.1055    0.1649 N.am      1 <0>        -0.7339
     22 H2          1.0039    1.9031    0.0027 H         1 <0>         0.0562
     23 H3         -0.5459    1.8868   -0.8726 H         1 <0>         0.0576
     24 H4         -0.5289    1.8773    0.9072 H         1 <0>         0.0562
     25 H5         -1.0205   -0.3814    0.0098 H         1 <0>         0.0647
     26 H6          0.5123   -0.3556   -0.8948 H         1 <0>         0.0646
     27 H7          1.7647   -0.1336    1.2338 H         1 <0>         0.0744
     28 H8          0.2319   -0.1594    2.1383 H         1 <0>         0.0744
     29 H9         -0.2598   -2.4180    1.2409 H         1 <0>         0.0615
     30 H10         1.2730   -2.3923    0.3363 H         1 <0>         0.0612
     31 H11         0.5116   -4.3001    0.7242 H         1 <0>         0.1356
     32 H12         1.8695   -7.6772    2.9469 H         1 <0>         0.1270
     33 H13         2.8343   -6.1809    4.6463 H         1 <0>         0.1363
     34 H14         2.7199   -4.8126    6.2220 H         1 <0>         0.0553
     35 H15         4.2527   -4.7868    5.3175 H         1 <0>         0.0556
     36 H16         3.8061   -3.4084    6.3515 H         1 <0>         0.1016
     37 H17         0.2416   -7.9340    1.1689 H         1 <0>         0.0833
     38 H18        -0.3255   -6.5248    0.2410 H         1 <0>         0.0902
     39 H19        -0.0539   -8.3992   -1.2810 H         1 <0>         0.0862
     40 H20         1.0814   -7.6759   -2.4643 H         1 <0>         0.0854
     41 H21         1.6932  -10.1602   -2.0384 H         1 <0>         0.4308
     42 H22         3.2729   -7.8428    0.8890 H         1 <0>         0.4296
@<TRIPOS>BOND
     1    1    2 1
     2    1   22 1
     3    1   23 1
     4    1   24 1
     5    2    3 1
     6    2   25 1
     7    2   26 1
     8    3    4 1
     9    3   27 1
    10    3   28 1
    11    4    5 1
    12    4   29 1
    13    4   30 1
    14    5    6 1
    15    6   11 ar
    16    6    7 ar
    17    7    8 ar
    18    7   31 1
    19    8    9 ar
    20    8   14 1
    21    9   10 ar
    22    9   32 1
    23   10   11 ar
    24   10   33 1
    25   11   12 1
    26   12   13 1
    27   13   34 1
    28   13   35 1
    29   13   36 1
    30   14   15 1
    31   14   37 1
    32   14   38 1
    33   15   16 1
    34   15   21 1
    35   15   17 1
    36   17   18 1
    37   17   39 1
    38   17   40 1
    39   18   19 am
    40   18   41 1
    41   19   20 2
    42   19   21 am
    43   21   42 1
@<TRIPOS>MOLECULE
ZINC09224016
   25    26     0     0     0
SMALL
USER_CHARGES

@<TRIPOS>ATOM
      1 C1         -0.0184    1.5028    0.0103 C.3       1 <0>        -0.1391
      2 C2          0.0021   -0.0041    0.0020 C.2       1 <0>         0.2276
      3 C3         -1.1906   -0.6918    0.0041 C.2       1 <0>        -0.1838
      4 C4         -1.1990   -2.0975   -0.0031 C.2       1 <0>         0.0727
      5 C5          0.0161   -2.7742   -0.0126 C.2       1 <0>        -0.1606
      6 C6          1.2525   -1.9900   -0.0149 C.2       1 <0>         0.5412
      7 N1          1.1865   -0.6449   -0.0127 N.am      1 <0>        -0.5906
      8 O1          2.3345   -2.5509   -0.0232 O.2       1 <0>        -0.5158
      9 C7          0.0570   -4.2056   -0.0197 C.1       1 <0>         0.2716
     10 N2          0.0895   -5.3411   -0.0253 N.1       1 <0>        -0.4064
     11 C8         -2.4728    0.0540    0.0144 C.ar      1 <0>         0.0158
     12 C9         -2.8306    0.8519    1.1050 C.ar      1 <0>        -0.1625
     13 C10        -4.0319    1.5289    1.0733 C.ar      1 <0>         0.1042
     14 N3         -4.8375    1.4306    0.0329 N.ar      1 <0>        -0.4835
     15 C11        -4.5375    0.6886   -1.0161 C.ar      1 <0>         0.1054
     16 C12        -3.3536   -0.0172   -1.0689 C.ar      1 <0>        -0.1591
     17 H1          1.0042    1.8801    0.0026 H         1 <0>         0.0841
     18 H2         -0.5455    1.8639   -0.8728 H         1 <0>         0.1024
     19 H3         -0.5286    1.8543    0.9071 H         1 <0>         0.1042
     20 H4         -2.1318   -2.6419   -0.0008 H         1 <0>         0.1516
     21 H5         -2.1762    0.9367    1.9600 H         1 <0>         0.1377
     22 H6         -4.3172    2.1475    1.9114 H         1 <0>         0.1588
     23 H7         -5.2263    0.6366   -1.8464 H         1 <0>         0.1591
     24 H8         -3.1125   -0.6192   -1.9325 H         1 <0>         0.1389
     25 H9          2.0073   -0.1280   -0.0178 H         1 <0>         0.4261
@<TRIPOS>BOND
     1    1    2 1
     2    1   17 1
     3    1   18 1
     4    1   19 1
     5    2    7 1
     6    2    3 2
     7    3    4 1
     8    3   11 1
     9    4    5 2
    10    4   20 1
    11    5    6 1
    12    5    9 1
    13    6    7 am
    14    6    8 2
    15    7   25 1
    16    9   10 3
    17   11   16 ar
    18   11   12 ar
    19   12   13 ar
    20   12   21 1
    21   13   14 ar
    22   13   22 1
    23   14   15 ar
    24   15   16 ar
    25   15   23 1
    26   16   24 1
@<TRIPOS>MOLECULE
ZINC19796168
   63    66     0     0     0
SMALL
USER_CHARGES

@<TRIPOS>ATOM
      1 C1         -0.0187    1.5258    0.0104 C.3       1 <0>        -0.1516
      2 C2          0.0021   -0.0041    0.0020 C.3       1 <0>        -0.1160
      3 C3          0.7182   -0.4975   -1.2568 C.3       1 <0>        -0.0368
      4 C4          0.7386   -2.0043   -1.2651 C.2       1 <0>         0.1083
      5 C5          1.7436   -2.8145   -0.7017 C.2       1 <0>         0.0436
      6 C6          1.3716   -4.1454   -0.9309 C.2       1 <0>        -0.0357
      7 C7          2.2155   -5.1793   -0.4631 C.2       1 <0>         0.5719
      8 O1          1.9272   -6.3498   -0.6430 O.2       1 <0>        -0.5217
      9 N1          3.3497   -4.8379    0.1877 N.am      1 <0>        -0.6330
     10 H1          3.9439   -5.5300    0.5176 H         1 <0>         0.4219
     11 C8          3.6639   -3.5203    0.3833 C.2       1 <0>         0.3994
     12 N2          2.8908   -2.5515   -0.0437 N.2       1 <0>        -0.4298
     13 C9          4.9101   -3.1798    1.0980 C.ar      1 <0>        -0.1126
     14 C10         5.7536   -4.1922    1.5597 C.ar      1 <0>         0.0399
     15 C11         6.9158   -3.8678    2.2265 C.ar      1 <0>        -0.7185
     16 C12         7.2508   -2.5412    2.4411 C.ar      1 <0>         0.0430
     17 C13         6.4250   -1.5305    1.9894 C.ar      1 <0>        -0.2315
     18 C14         5.2556   -1.8391    1.3116 C.ar      1 <0>         0.2415
     19 O2          4.4461   -0.8467    0.8623 O.3       1 <0>        -0.2578
     20 C15         4.8632    0.4961    1.1168 C.3       1 <0>         0.0414
     21 C16         3.8319    1.4685    0.5407 C.3       1 <0>        -0.1519
     22 S1          7.9793   -5.1464    2.8085 S.o2      1 <0>         2.6926
     23 O3          8.7312   -4.5930    3.8798 O.2       1 <0>        -0.9482
     24 O4          7.1730   -6.3063    2.9631 O.2       1 <0>        -0.9501
     25 N3          9.0568   -5.4772    1.5953 N.pl3     1 <0>        -0.9979
     26 C17         8.7556   -6.4921    0.5742 C.3       1 <0>         0.1239
     27 C18         8.9742   -5.8704   -0.8093 C.3       1 <0>         0.0382
     28 N4         10.3268   -5.3015   -0.8788 N.3       1 <0>        -0.5395
     29 C19        10.4964   -4.2104    0.0900 C.3       1 <0>         0.0386
     30 C20        10.3376   -4.7598    1.5068 C.3       1 <0>         0.1243
     31 C21        10.6381   -4.8489   -2.2412 C.3       1 <0>         0.0245
     32 N5          0.1842   -4.1164   -1.6082 N.pl3     1 <0>        -0.3299
     33 N6         -0.1751   -2.7746   -1.7907 N.2       1 <0>        -0.2328
     34 C22        -0.5794   -5.2824   -2.0596 C.3       1 <0>         0.0994
     35 H2          1.0039    1.9031    0.0027 H         1 <0>         0.0577
     36 H3         -0.5459    1.8868   -0.8726 H         1 <0>         0.0559
     37 H4         -0.5289    1.8773    0.9072 H         1 <0>         0.0565
     38 H5          0.5293   -0.3651    0.8851 H         1 <0>         0.0665
     39 H6         -1.0205   -0.3814    0.0098 H         1 <0>         0.0628
     40 H7          0.1910   -0.1364   -2.1398 H         1 <0>         0.0831
     41 H8          1.7408   -0.1202   -1.2645 H         1 <0>         0.0935
     42 H9          5.4957   -5.2279    1.3950 H         1 <0>         0.1438
     43 H10         8.1628   -2.2958    2.9650 H         1 <0>         0.1492
     44 H11         6.6926   -0.4983    2.1608 H         1 <0>         0.1488
     45 H12         4.9489    0.6524    2.1922 H         1 <0>         0.0678
     46 H13         5.8306    0.6715    0.6460 H         1 <0>         0.0666
     47 H14         3.7463    1.3123   -0.5346 H         1 <0>         0.0692
     48 H15         2.8646    1.2931    1.0115 H         1 <0>         0.0720
     49 H16         4.1502    2.4927    0.7349 H         1 <0>         0.0796
     50 H17         9.4199   -7.3470    0.7005 H         1 <0>         0.0879
     51 H18         7.7185   -6.8131    0.6717 H         1 <0>         0.0935
     52 H19         8.8627   -6.6382   -1.5748 H         1 <0>         0.0901
     53 H20         8.2393   -5.0824   -0.9741 H         1 <0>         0.0394
     54 H21        11.4890   -3.7744   -0.0233 H         1 <0>         0.0905
     55 H22         9.7403   -3.4456   -0.0874 H         1 <0>         0.0393
     56 H23        10.3460   -3.9360    2.2206 H         1 <0>         0.0948
     57 H24        11.1569   -5.4449    1.7245 H         1 <0>         0.0867
     58 H25         9.9216   -4.0848   -2.5429 H         1 <0>         0.0257
     59 H26        11.6450   -4.4322   -2.2645 H         1 <0>         0.0713
     60 H27        10.5786   -5.6939   -2.9273 H         1 <0>         0.0713
     61 H28        -1.2781   -5.5834   -1.2791 H         1 <0>         0.0824
     62 H29        -1.1323   -5.0268   -2.9634 H         1 <0>         0.0965
     63 H30         0.1042   -6.1043   -2.2721 H         1 <0>         0.1003
@<TRIPOS>BOND
     1    1    2 1
     2    1   35 1
     3    1   36 1
     4    1   37 1
     5    2    3 1
     6    2   38 1
     7    2   39 1
     8    3    4 1
     9    3   40 1
    10    3   41 1
    11    4   33 2
    12    4    5 1
    13    5   12 1
    14    5    6 2
    15    6    7 1
    16    6   32 1
    17    7    8 2
    18    7    9 am
    19    9   10 1
    20    9   11 1
    21   11   12 2
    22   11   13 1
    23   13   18 ar
    24   13   14 ar
    25   14   15 ar
    26   14   42 1
    27   15   16 ar
    28   15   22 1
    29   16   17 ar
    30   16   43 1
    31   17   18 ar
    32   17   44 1
    33   18   19 1
    34   19   20 1
    35   20   21 1
    36   20   45 1
    37   20   46 1
    38   21   47 1
    39   21   48 1
    40   21   49 1
    41   22   23 2
    42   22   24 2
    43   22   25 1
    44   25   30 1
    45   25   26 1
    46   26   27 1
    47   26   50 1
    48   26   51 1
    49   27   28 1
    50   27   52 1
    51   27   53 1
    52   28   29 1
    53   28   31 1
    54   29   30 1
    55   29   54 1
    56   29   55 1
    57   30   56 1
    58   30   57 1
    59   31   58 1
    60   31   59 1
    61   31   60 1
    62   32   33 1
    63   32   34 1
    64   34   61 1
    65   34   62 1
    66   34   63 1
@<TRIPOS>MOLECULE
ZINC19796168
   63    66     0     0     0
SMALL
USER_CHARGES

@<TRIPOS>ATOM
      1 C1         -0.0187    1.5258    0.0104 C.3       1 <0>        -0.1539
      2 C2          0.0021   -0.0041    0.0020 C.3       1 <0>        -0.1188
      3 C3          0.7182   -0.4975   -1.2568 C.3       1 <0>        -0.0455
      4 C4          0.7386   -2.0043   -1.2651 C.2       1 <0>         0.0795
      5 C5          1.7371   -2.8090   -0.7054 C.2       1 <0>         0.0226
      6 C6          1.3740   -4.1350   -0.9304 C.2       1 <0>        -0.0270
      7 C7          2.2608   -5.1909   -0.4384 C.2       1 <0>         0.5560
      8 O1          1.9844   -6.3672   -0.6123 O.2       1 <0>        -0.4907
      9 N1          3.3842   -4.8398    0.2075 N.2       1 <0>        -0.5489
     10 C8          3.6977   -3.5767    0.4033 C.2       1 <0>         0.4949
     11 N2          2.9154   -2.5523   -0.0295 N.pl3     1 <0>        -0.5912
     12 C9          4.9471   -3.2598    1.1207 C.ar      1 <0>        -0.1387
     13 C10         5.3072   -1.9297    1.3507 C.ar      1 <0>         0.0502
     14 C11         6.4754   -1.6404    2.0219 C.ar      1 <0>        -0.7241
     15 C12         7.2958   -2.6630    2.4697 C.ar      1 <0>         0.0516
     16 C13         6.9520   -3.9820    2.2486 C.ar      1 <0>        -0.2347
     17 C14         5.7769   -4.2915    1.5805 C.ar      1 <0>         0.2542
     18 O2          5.4349   -5.5872    1.3679 O.3       1 <0>        -0.2513
     19 C15         6.3296   -6.5843    1.8652 C.3       1 <0>         0.0415
     20 C16         5.7806   -7.9733    1.5332 C.3       1 <0>        -0.1498
     21 S1          6.9282    0.0377    2.3112 S.o2      1 <0>         2.6935
     22 O3          8.3389    0.0542    2.4813 O.2       1 <0>        -0.9470
     23 O4          6.2716    0.8126    1.3174 O.2       1 <0>        -0.9501
     24 N3          6.2708    0.4783    3.7659 N.pl3     1 <0>        -0.9978
     25 C17         4.9211    1.0580    3.8397 C.3       1 <0>         0.1243
     26 C18         4.1139    0.2804    4.8848 C.3       1 <0>         0.0380
     27 N4          4.8523    0.2619    6.1546 N.3       1 <0>        -0.5392
     28 C19         6.1314   -0.4472    6.0169 C.3       1 <0>         0.0382
     29 C20         7.0189    0.2948    5.0189 C.3       1 <0>         0.1242
     30 C21         4.0386   -0.3238    7.2283 C.3       1 <0>         0.0243
     31 N5          0.1890   -4.1166   -1.6070 N.pl3     1 <0>        -0.3265
     32 N6         -0.1769   -2.7759   -1.7917 N.2       1 <0>        -0.2363
     33 C22        -0.5677   -5.2881   -2.0556 C.3       1 <0>         0.1018
     34 H1          1.0039    1.9031    0.0027 H         1 <0>         0.0587
     35 H2         -0.5459    1.8868   -0.8726 H         1 <0>         0.0584
     36 H3         -0.5289    1.8773    0.9072 H         1 <0>         0.0590
     37 H4          0.5293   -0.3651    0.8851 H         1 <0>         0.0617
     38 H5         -1.0205   -0.3814    0.0098 H         1 <0>         0.0685
     39 H6          0.1910   -0.1364   -2.1398 H         1 <0>         0.0924
     40 H7          1.7408   -0.1202   -1.2645 H         1 <0>         0.0851
     41 H8          4.6710   -1.1293    1.0027 H         1 <0>         0.1448
     42 H9          8.2097   -2.4272    2.9946 H         1 <0>         0.1511
     43 H10         7.5970   -4.7736    2.6002 H         1 <0>         0.1511
     44 H11         7.3075   -6.4595    1.4002 H         1 <0>         0.0690
     45 H12         6.4252   -6.4802    2.9460 H         1 <0>         0.0679
     46 H13         6.4630   -8.7339    1.9125 H         1 <0>         0.0796
     47 H14         4.8027   -8.0982    1.9981 H         1 <0>         0.0699
     48 H15         5.6850   -8.0774    0.4524 H         1 <0>         0.0705
     49 H16         4.9880    2.1054    4.1338 H         1 <0>         0.0882
     50 H17         4.4346    0.9780    2.8676 H         1 <0>         0.0929
     51 H18         3.1485    0.7644    5.0325 H         1 <0>         0.0901
     52 H19         3.9598   -0.7416    4.5387 H         1 <0>         0.0392
     53 H20         6.6291   -0.4910    6.9857 H         1 <0>         0.0908
     54 H21         5.9492   -1.4591    5.6551 H         1 <0>         0.0394
     55 H22         7.9186   -0.2894    4.8260 H         1 <0>         0.0949
     56 H23         7.2913    1.2675    5.4285 H         1 <0>         0.0873
     57 H24         3.7712   -1.3470    6.9645 H         1 <0>         0.0259
     58 H25         4.6091   -0.3253    8.1570 H         1 <0>         0.0715
     59 H26         3.1316    0.2663    7.3599 H         1 <0>         0.0715
     60 H27        -1.2651   -5.5910   -1.2745 H         1 <0>         0.0826
     61 H28        -1.1218   -5.0381   -2.9604 H         1 <0>         0.0959
     62 H29         0.1207   -6.1067   -2.2656 H         1 <0>         0.1018
     63 H30         3.1857   -1.6357    0.1370 H         1 <0>         0.4171
@<TRIPOS>BOND
     1    1    2 1
     2    1   34 1
     3    1   35 1
     4    1   36 1
     5    2    3 1
     6    2   37 1
     7    2   38 1
     8    3    4 1
     9    3   39 1
    10    3   40 1
    11    4   32 2
    12    4    5 1
    13    5   11 1
    14    5    6 2
    15    6    7 1
    16    6   31 1
    17    7    8 2
    18    7    9 1
    19    9   10 2
    20   10   11 1
    21   10   12 1
    22   11   63 1
    23   12   17 ar
    24   12   13 ar
    25   13   14 ar
    26   13   41 1
    27   14   15 ar
    28   14   21 1
    29   15   16 ar
    30   15   42 1
    31   16   17 ar
    32   16   43 1
    33   17   18 1
    34   18   19 1
    35   19   20 1
    36   19   44 1
    37   19   45 1
    38   20   46 1
    39   20   47 1
    40   20   48 1
    41   21   22 2
    42   21   23 2
    43   21   24 1
    44   24   29 1
    45   24   25 1
    46   25   26 1
    47   25   49 1
    48   25   50 1
    49   26   27 1
    50   26   51 1
    51   26   52 1
    52   27   28 1
    53   27   30 1
    54   28   29 1
    55   28   53 1
    56   28   54 1
    57   29   55 1
    58   29   56 1
    59   30   57 1
    60   30   58 1
    61   30   59 1
    62   31   32 1
    63   31   33 1
    64   33   60 1
    65   33   61 1
    66   33   62 1
@<TRIPOS>MOLECULE
ZINC19796168
   62    65     0     0     0
SMALL
USER_CHARGES

@<TRIPOS>ATOM
      1 C1         -0.0187    1.5258    0.0104 C.3       1 <0>        -0.1485
      2 C2          0.0021   -0.0041    0.0020 C.3       1 <0>        -0.1148
      3 C3         -1.4333   -0.5336    0.0129 C.3       1 <0>        -0.0265
      4 C4         -1.4129   -2.0405    0.0046 C.2       1 <0>         0.0755
      5 C5         -1.4070   -2.8569   -1.1475 C.ar      1 <0>         0.0668
      6 C6         -1.3869   -4.1920   -0.7014 C.ar      1 <0>        -0.0515
      7 C7         -1.3777   -5.2165   -1.6565 C.ar      1 <0>         0.4648
      8 O1         -1.3588   -6.5164   -1.2751 O.3       1 <0>        -0.6909
      9 N1         -1.3884   -4.8893   -2.9402 N.ar      1 <0>        -0.5725
     10 C8         -1.4074   -3.6162   -3.3266 C.ar      1 <0>         0.3612
     11 N2         -1.4163   -2.6161   -2.4630 N.ar      1 <0>        -0.5554
     12 C9         -1.4186   -3.3091   -4.7764 C.ar      1 <0>        -0.0636
     13 C10        -1.4328   -1.9850   -5.2116 C.ar      1 <0>         0.0543
     14 C11        -1.4432   -1.7045   -6.5622 C.ar      1 <0>        -0.7317
     15 C12        -1.4396   -2.7334   -7.4883 C.ar      1 <0>         0.0205
     16 C13        -1.4256   -4.0494   -7.0685 C.ar      1 <0>        -0.2451
     17 C14        -1.4092   -4.3463   -5.7145 C.ar      1 <0>         0.2216
     18 O2         -1.3897   -5.6394   -5.3005 O.3       1 <0>        -0.2427
     19 C15        -1.3811   -6.6454   -6.3153 C.3       1 <0>         0.0442
     20 C16        -1.3591   -8.0288   -5.6620 C.3       1 <0>        -0.1464
     21 S1         -1.4617   -0.0302   -7.1108 S.o2      1 <0>         2.6962
     22 O3         -2.0201   -0.0370   -8.4174 O.2       1 <0>        -0.9629
     23 O4         -2.0135    0.7385   -6.0505 O.2       1 <0>        -0.9522
     24 N3          0.1150    0.4496   -7.2724 N.pl3     1 <0>        -1.0004
     25 C17         0.8390    1.0557   -6.1447 C.3       1 <0>         0.1268
     26 C18         2.1670    0.3130   -5.9632 C.3       1 <0>         0.0372
     27 N4          2.8976    0.3041   -7.2376 N.3       1 <0>        -0.5398
     28 C19         2.1569   -0.4314   -8.2713 C.3       1 <0>         0.0376
     29 C20         0.8304    0.2753   -8.5456 C.3       1 <0>         0.1276
     30 C21         4.2487   -0.2463   -7.0660 C.3       1 <0>         0.0248
     31 N5         -1.3812   -4.1504    0.6672 N.pl3     1 <0>        -0.3678
     32 N6         -1.3920   -2.8055    1.0596 N.2       1 <0>        -0.2631
     33 C22        -1.3618   -5.3088    1.5638 C.3       1 <0>         0.1224
     34 H1          1.0039    1.9031    0.0027 H         1 <0>         0.0507
     35 H2         -0.5459    1.8868   -0.8726 H         1 <0>         0.0575
     36 H3         -0.5289    1.8773    0.9072 H         1 <0>         0.0512
     37 H4          0.5123   -0.3556   -0.8948 H         1 <0>         0.0656
     38 H5          0.5293   -0.3651    0.8851 H         1 <0>         0.0578
     39 H6         -1.9435   -0.1821    0.9097 H         1 <0>         0.0708
     40 H7         -1.9605   -0.1726   -0.8702 H         1 <0>         0.0861
     41 H8         -1.4360   -1.1795   -4.4922 H         1 <0>         0.1566
     42 H9         -1.4482   -2.5062   -8.5441 H         1 <0>         0.1359
     43 H10        -1.4233   -4.8477   -7.7959 H         1 <0>         0.1361
     44 H11        -2.2755   -6.5484   -6.9307 H         1 <0>         0.0581
     45 H12        -0.4957   -6.5243   -6.9395 H         1 <0>         0.0570
     46 H13        -1.3526   -8.7961   -6.4360 H         1 <0>         0.0694
     47 H14        -0.4647   -8.1258   -5.0466 H         1 <0>         0.0690
     48 H15        -2.2445   -8.1499   -5.0378 H         1 <0>         0.0696
     49 H16         1.0335    2.1070   -6.3571 H         1 <0>         0.0814
     50 H17         0.2427    0.9670   -5.2366 H         1 <0>         0.0979
     51 H18         2.7652    0.8176   -5.2045 H         1 <0>         0.0879
     52 H19         1.9704   -0.7122   -5.6495 H         1 <0>         0.0449
     53 H20         2.7478   -0.4666   -9.1865 H         1 <0>         0.0858
     54 H21         1.9605   -1.4462   -7.9254 H         1 <0>         0.0417
     55 H22         0.2284   -0.3292   -9.2240 H         1 <0>         0.0922
     56 H23         1.0240    1.2501   -8.9932 H         1 <0>         0.0807
     57 H24         4.1801   -1.2690   -6.6954 H         1 <0>         0.0264
     58 H25         4.7675   -0.2413   -8.0246 H         1 <0>         0.0675
     59 H26         4.8011    0.3631   -6.3508 H         1 <0>         0.0692
     60 H27        -0.3294   -5.5825    1.7815 H         1 <0>         0.0592
     61 H28        -1.8748   -5.0582    2.4923 H         1 <0>         0.0722
     62 H29        -1.8667   -6.1476    1.0847 H         1 <0>         0.0961
@<TRIPOS>BOND
     1    1    2 1
     2    1   34 1
     3    1   35 1
     4    1   36 1
     5    2    3 1
     6    2   37 1
     7    2   38 1
     8    3    4 1
     9    3   39 1
    10    3   40 1
    11    4   32 2
    12    4    5 1
    13    5   11 ar
    14    5    6 ar
    15    6    7 ar
    16    6   31 1
    17    7    8 1
    18    7    9 ar
    19    9   10 ar
    20   10   11 ar
    21   10   12 1
    22   12   17 ar
    23   12   13 ar
    24   13   14 ar
    25   13   41 1
    26   14   15 ar
    27   14   21 1
    28   15   16 ar
    29   15   42 1
    30   16   17 ar
    31   16   43 1
    32   17   18 1
    33   18   19 1
    34   19   20 1
    35   19   44 1
    36   19   45 1
    37   20   46 1
    38   20   47 1
    39   20   48 1
    40   21   22 2
    41   21   23 2
    42   21   24 1
    43   24   29 1
    44   24   25 1
    45   25   26 1
    46   25   49 1
    47   25   50 1
    48   26   27 1
    49   26   51 1
    50   26   52 1
    51   27   28 1
    52   27   30 1
    53   28   29 1
    54   28   53 1
    55   28   54 1
    56   29   55 1
    57   29   56 1
    58   30   57 1
    59   30   58 1
    60   30   59 1
    61   31   32 1
    62   31   33 1
    63   33   60 1
    64   33   61 1
    65   33   62 1
@<TRIPOS>MOLECULE
ZINC19796168
   64    67     0     0     0
SMALL
USER_CHARGES

@<TRIPOS>ATOM
      1 C1         -0.0187    1.5258    0.0104 C.3       1 <0>        -0.1524
      2 C2          0.0021   -0.0041    0.0020 C.3       1 <0>        -0.1163
      3 C3         -1.4333   -0.5336    0.0129 C.3       1 <0>        -0.0382
      4 C4         -1.4129   -2.0405    0.0046 C.2       1 <0>         0.1125
      5 C5         -1.4070   -2.8548   -1.1446 C.2       1 <0>         0.0358
      6 C6         -1.3861   -4.1841   -0.7032 C.2       1 <0>        -0.0303
      7 C7         -1.3769   -5.2214   -1.6643 C.2       1 <0>         0.5721
      8 O1         -1.3591   -6.3907   -1.3206 O.2       1 <0>        -0.5177
      9 N1         -1.3887   -4.8848   -2.9731 N.am      1 <0>        -0.6346
     10 H1         -1.3827   -5.5793   -3.6502 H         1 <0>         0.4185
     11 C8         -1.4095   -3.5686   -3.3476 C.2       1 <0>         0.3827
     12 N2         -1.4171   -2.5966   -2.4679 N.2       1 <0>        -0.4195
     13 C9         -1.4219   -3.2333   -4.7854 C.ar      1 <0>        -0.1025
     14 C10        -1.4183   -4.2493   -5.7432 C.ar      1 <0>         0.0333
     15 C11        -1.4299   -3.9298   -7.0842 C.ar      1 <0>        -0.7276
     16 C12        -1.4448   -2.6046   -7.4863 C.ar      1 <0>         0.0370
     17 C13        -1.4485   -1.5903   -6.5488 C.ar      1 <0>        -0.2285
     18 C14        -1.4433   -1.8942   -5.1961 C.ar      1 <0>         0.2470
     19 O2         -1.4527   -0.8984   -4.2738 O.3       1 <0>        -0.2539
     20 C15        -1.4745    0.4426   -4.7671 C.3       1 <0>         0.0414
     21 C16        -1.4823    1.4191   -3.5893 C.3       1 <0>        -0.1545
     22 S1         -1.4253   -5.2129   -8.2917 S.o2      1 <0>         2.6914
     23 O3         -0.8874   -4.6500   -9.4805 O.2       1 <0>        -0.9316
     24 O4         -0.8594   -6.3568   -7.6667 O.2       1 <0>        -0.9334
     25 N3         -3.0059   -5.5847   -8.6172 N.pl3     1 <0>        -1.0127
     26 C17        -3.7155   -6.6148   -7.8430 C.3       1 <0>         0.0947
     27 C18        -5.0462   -6.0287   -7.3599 C.3       1 <0>        -0.0248
     28 N4         -5.7976   -5.5098   -8.5098 N.4       1 <0>        -0.3832
     29 C19        -5.0699   -4.3889   -9.1182 C.3       1 <0>        -0.0235
     30 C20        -3.7420   -4.8899   -9.6846 C.3       1 <0>         0.0949
     31 C21        -7.1182   -5.0483   -8.0616 C.3       1 <0>        -0.0476
     32 N5         -1.3799   -4.1501    0.6637 N.pl3     1 <0>        -0.3251
     33 N6         -1.3920   -2.8068    1.0614 N.2       1 <0>        -0.2289
     34 C22        -1.3598   -5.3128    1.5547 C.3       1 <0>         0.0963
     35 H2          1.0039    1.9031    0.0027 H         1 <0>         0.0582
     36 H3         -0.5459    1.8868   -0.8726 H         1 <0>         0.0570
     37 H4         -0.5289    1.8773    0.9072 H         1 <0>         0.0575
     38 H5          0.5123   -0.3556   -0.8948 H         1 <0>         0.0655
     39 H6          0.5293   -0.3651    0.8851 H         1 <0>         0.0644
     40 H7         -1.9435   -0.1821    0.9097 H         1 <0>         0.0854
     41 H8         -1.9605   -0.1726   -0.8702 H         1 <0>         0.0931
     42 H9         -1.4060   -5.2840   -5.4339 H         1 <0>         0.1444
     43 H10        -1.4531   -2.3629   -8.5389 H         1 <0>         0.1495
     44 H11        -1.4598   -0.5592   -6.8698 H         1 <0>         0.1518
     45 H12        -0.5902    0.6189   -5.3794 H         1 <0>         0.0706
     46 H13        -2.3699    0.5934   -5.3701 H         1 <0>         0.0677
     47 H14        -1.4990    2.4420   -3.9655 H         1 <0>         0.0830
     48 H15        -2.3667    1.2428   -2.9770 H         1 <0>         0.0703
     49 H16        -0.5869    1.2683   -2.9863 H         1 <0>         0.0743
     50 H17        -3.9053   -7.4822   -8.4752 H         1 <0>         0.1071
     51 H18        -3.1115   -6.9087   -6.9845 H         1 <0>         0.1349
     52 H19        -5.6284   -6.8070   -6.8666 H         1 <0>         0.1469
     53 H20        -4.8527   -5.2186   -6.6568 H         1 <0>         0.1345
     54 H21        -5.6695   -3.9589   -9.9204 H         1 <0>         0.1472
     55 H22        -4.8756   -3.6285   -8.3618 H         1 <0>         0.1345
     56 H23        -3.1556   -4.0439  -10.0432 H         1 <0>         0.1362
     57 H24        -3.9345   -5.5801  -10.5059 H         1 <0>         0.1058
     58 H25        -6.9949   -4.2582   -7.3209 H         1 <0>         0.1220
     59 H26        -7.6771   -4.6629   -8.9144 H         1 <0>         0.1268
     60 H27        -7.6626   -5.8814   -7.6170 H         1 <0>         0.1264
     61 H28        -0.3273   -5.5873    1.7707 H         1 <0>         0.0857
     62 H29        -1.8725   -5.0668    2.4846 H         1 <0>         0.0997
     63 H30        -1.8648   -6.1494    1.0718 H         1 <0>         0.1010
     64 H31        -5.9143   -6.2436   -9.1925 H         1 <0>         0.4277
@<TRIPOS>BOND
     1    1    2 1
     2    1   35 1
     3    1   36 1
     4    1   37 1
     5    2    3 1
     6    2   38 1
     7    2   39 1
     8    3    4 1
     9    3   40 1
    10    3   41 1
    11    4   33 2
    12    4    5 1
    13    5   12 1
    14    5    6 2
    15    6    7 1
    16    6   32 1
    17    7    8 2
    18    7    9 am
    19    9   10 1
    20    9   11 1
    21   11   12 2
    22   11   13 1
    23   13   18 ar
    24   13   14 ar
    25   14   15 ar
    26   14   42 1
    27   15   16 ar
    28   15   22 1
    29   16   17 ar
    30   16   43 1
    31   17   18 ar
    32   17   44 1
    33   18   19 1
    34   19   20 1
    35   20   21 1
    36   20   45 1
    37   20   46 1
    38   21   47 1
    39   21   48 1
    40   21   49 1
    41   22   23 2
    42   22   24 2
    43   22   25 1
    44   25   30 1
    45   25   26 1
    46   26   27 1
    47   26   50 1
    48   26   51 1
    49   27   28 1
    50   27   52 1
    51   27   53 1
    52   28   29 1
    53   28   31 1
    54   28   64 1
    55   29   30 1
    56   29   54 1
    57   29   55 1
    58   30   56 1
    59   30   57 1
    60   31   58 1
    61   31   59 1
    62   31   60 1
    63   32   33 1
    64   32   34 1
    65   34   61 1
    66   34   62 1
    67   34   63 1
@<TRIPOS>MOLECULE
ZINC00056555
   46    48     0     0     0
SMALL
USER_CHARGES

@<TRIPOS>ATOM
      1 C1         -0.0173    1.4248    0.0099 C.3       1 <0>         0.0258
      2 O1          0.0021   -0.0041    0.0020 O.3       1 <0>        -0.3063
      3 C2          0.6262   -0.6188    1.0422 C.ar      1 <0>         0.0999
      4 C3          1.2021    0.1367    2.0510 C.ar      1 <0>        -0.1710
      5 C4          1.8358   -0.4897    3.1079 C.ar      1 <0>        -0.1122
      6 C5          1.8971   -1.8699    3.1612 C.ar      1 <0>        -0.0760
      7 C6          1.3251   -2.6295    2.1578 C.ar      1 <0>        -0.1547
      8 C7          0.6830   -2.0080    1.0988 C.ar      1 <0>         0.1015
      9 O2          0.1145   -2.7540    0.1140 O.3       1 <0>        -0.3064
     10 C8          0.2115   -4.1743    0.2380 C.3       1 <0>         0.0255
     11 C9          2.5896   -2.5476    4.3154 C.3       1 <0>        -0.0305
     12 C10         1.5954   -2.8002    5.4194 C.ar      1 <0>         0.1803
     13 C11         1.3868   -1.8306    6.4126 C.ar      1 <0>        -0.0927
     14 C12         2.0813   -0.6102    6.4178 C.ar      1 <0>        -0.1656
     15 C13         1.8397    0.2976    7.4073 C.ar      1 <0>         0.1202
     16 C14         0.9067    0.0284    8.4207 C.ar      1 <0>         0.1418
     17 C15         0.2161   -1.1496    8.4419 C.ar      1 <0>        -0.1891
     18 C16         0.4428   -2.1015    7.4380 C.ar      1 <0>        -0.0102
     19 C17        -0.2384   -3.3323    7.4069 C.ar      1 <0>        -0.1601
     20 C18         0.0362   -4.2060    6.3992 C.ar      1 <0>         0.0826
     21 N1          0.9194   -3.9252    5.4505 N.ar      1 <0>        -0.4840
     22 O3          0.6880    0.9516    9.3935 O.3       1 <0>        -0.3019
     23 C19        -0.2734    0.6206   10.3977 C.3       1 <0>         0.0223
     24 O4          2.5122    1.4790    7.4120 O.3       1 <0>        -0.3019
     25 C20         3.4494    1.6962    6.3553 C.3       1 <0>         0.0208
     26 H1          1.0053    1.8021    0.0021 H         1 <0>         0.0553
     27 H2         -0.5445    1.7859   -0.8732 H         1 <0>         0.1013
     28 H3         -0.5275    1.7763    0.9067 H         1 <0>         0.0545
     29 H4          1.1562    1.2150    2.0113 H         1 <0>         0.1358
     30 H5          2.2842    0.1003    3.8935 H         1 <0>         0.1221
     31 H6          1.3747   -3.7075    2.2017 H         1 <0>         0.1401
     32 H7          1.2614   -4.4664    0.2576 H         1 <0>         0.0558
     33 H8         -0.2714   -4.4922    1.1620 H         1 <0>         0.0564
     34 H9         -0.2815   -4.6476   -0.6111 H         1 <0>         0.1010
     35 H10         3.0097   -3.4961    3.9808 H         1 <0>         0.0985
     36 H11         3.3894   -1.9067    4.6863 H         1 <0>         0.0913
     37 H12         2.8023   -0.3917    5.6438 H         1 <0>         0.1473
     38 H13        -0.4993   -1.3466    9.2266 H         1 <0>         0.1459
     39 H14        -0.9645   -3.5793    8.1673 H         1 <0>         0.1371
     40 H15        -0.4831   -5.1525    6.3692 H         1 <0>         0.1540
     41 H16        -0.3511    1.4413   11.1107 H         1 <0>         0.1057
     42 H17        -1.2436    0.4521    9.9304 H         1 <0>         0.0589
     43 H18         0.0414   -0.2840   10.9179 H         1 <0>         0.0591
     44 H19         4.2164    0.9223    6.3853 H         1 <0>         0.0590
     45 H20         2.9316    1.6577    5.3969 H         1 <0>         0.0571
     46 H21         3.9148    2.6741    6.4778 H         1 <0>         0.1062
@<TRIPOS>BOND
     1    1    2 1
     2    1   26 1
     3    1   27 1
     4    1   28 1
     5    2    3 1
     6    3    8 ar
     7    3    4 ar
     8    4    5 ar
     9    4   29 1
    10    5    6 ar
    11    5   30 1
    12    6    7 ar
    13    6   11 1
    14    7    8 ar
    15    7   31 1
    16    8    9 1
    17    9   10 1
    18   10   32 1
    19   10   33 1
    20   10   34 1
    21   11   12 1
    22   11   35 1
    23   11   36 1
    24   12   21 ar
    25   12   13 ar
    26   13   18 ar
    27   13   14 ar
    28   14   15 ar
    29   14   37 1
    30   15   16 ar
    31   15   24 1
    32   16   17 ar
    33   16   22 1
    34   17   18 ar
    35   17   38 1
    36   18   19 ar
    37   19   20 ar
    38   19   39 1
    39   20   21 ar
    40   20   40 1
    41   22   23 1
    42   23   41 1
    43   23   42 1
    44   23   43 1
    45   24   25 1
    46   25   44 1
    47   25   45 1
    48   25   46 1
@<TRIPOS>MOLECULE
ZINC14956507
   51    55     0     0     0
SMALL
USER_CHARGES
6,7-dimethoxy-4-[(3R)-3-quinoxalin-2-yloxypyrrolidin-1-yl]quinazoline
@<TRIPOS>ATOM
      1 C1         -6.2798   -7.7495    1.2059 C.3       1 <0>         0.0224
      2 O1         -7.5778   -7.7374    0.6083 O.3       1 <0>        -0.3009
      3 C2         -8.0146   -6.5522    0.1046 C.ar      1 <0>         0.1126
      4 C3         -7.2155   -5.4474    0.1877 C.ar      1 <0>        -0.1328
      5 C4         -7.6638   -4.2269   -0.3314 C.ar      1 <0>        -0.1267
      6 C5         -8.9414   -4.1439   -0.9384 C.ar      1 <0>         0.1770
      7 C6         -9.7440   -5.2887   -1.0122 C.ar      1 <0>        -0.1864
      8 C7         -9.2799   -6.4775   -0.4940 C.ar      1 <0>         0.1640
      9 O2        -10.0566   -7.5899   -0.5643 O.3       1 <0>        -0.2962
     10 C8        -11.3354   -7.4499   -1.1865 C.3       1 <0>         0.0199
     11 N1         -9.3471   -2.9615   -1.4276 N.ar      1 <0>        -0.5071
     12 C9         -8.5729   -1.9061   -1.3433 C.ar      1 <0>         0.3099
     13 N2         -7.3749   -1.9350   -0.7809 N.ar      1 <0>        -0.5589
     14 C10        -6.8755   -3.0531   -0.2710 C.ar      1 <0>         0.3796
     15 N3         -5.6234   -3.0699    0.3078 N.pl3     1 <0>        -0.4684
     16 C11        -5.5341   -2.0805    1.4120 C.3       1 <0>         0.0436
     17 C12        -4.0084   -1.8609    1.5688 C.3       1 <0>        -0.1357
     18 C13        -3.5006   -1.9083    0.1094 C.3       1 <0>         0.0829
     19 H1         -3.3953   -0.8993   -0.2891 H         1 <0>         0.1056
     20 C14        -4.5829   -2.6799   -0.6682 C.3       1 <0>         0.0461
     21 O3         -2.2523   -2.6005    0.0408 O.3       1 <0>        -0.2842
     22 C15        -1.1268   -1.8464    0.0920 C.ar      1 <0>         0.3017
     23 C16         0.1311   -2.4675    0.0288 C.ar      1 <0>         0.0861
     24 N4          1.2313   -1.7552    0.0763 N.ar      1 <0>        -0.3909
     25 C17         1.1575   -0.4230    0.1862 C.ar      1 <0>         0.0394
     26 C18         2.3205    0.3644    0.2387 C.ar      1 <0>        -0.0674
     27 C19         2.2156    1.7168    0.3502 C.ar      1 <0>        -0.1132
     28 C20         0.9689    2.3362    0.4133 C.ar      1 <0>        -0.0834
     29 C21        -0.1786    1.6057    0.3652 C.ar      1 <0>        -0.1001
     30 C22        -0.1099    0.2068    0.2503 C.ar      1 <0>         0.1263
     31 N5         -1.2221   -0.5367    0.2003 N.ar      1 <0>        -0.4953
     32 H2         -6.2582   -7.0502    2.0418 H         1 <0>         0.0599
     33 H3         -6.0550   -8.7534    1.5660 H         1 <0>         0.1054
     34 H4         -5.5363   -7.4540    0.4657 H         1 <0>         0.0605
     35 H5         -6.2422   -5.5153    0.6509 H         1 <0>         0.1597
     36 H6        -10.7201   -5.2400   -1.4718 H         1 <0>         0.1557
     37 H7        -11.9263   -6.7141   -0.6410 H         1 <0>         0.0619
     38 H8        -11.2040   -7.1189   -2.2167 H         1 <0>         0.0620
     39 H9        -11.8514   -8.4100   -1.1764 H         1 <0>         0.1077
     40 H10        -8.9305   -0.9705   -1.7473 H         1 <0>         0.1966
     41 H11        -6.0303   -1.1501    1.1359 H         1 <0>         0.0726
     42 H12        -5.9631   -2.4865    2.3281 H         1 <0>         0.0934
     43 H13        -3.5621   -2.6615    2.1587 H         1 <0>         0.0898
     44 H14        -3.8027   -0.8890    2.0174 H         1 <0>         0.0879
     45 H15        -5.0160   -2.0393   -1.4365 H         1 <0>         0.0783
     46 H16        -4.1485   -3.5680   -1.1271 H         1 <0>         0.1011
     47 H17         0.1931   -3.5421   -0.0595 H         1 <0>         0.1838
     48 H18         3.2935   -0.1018    0.1912 H         1 <0>         0.1409
     49 H19         3.1115    2.3187    0.3899 H         1 <0>         0.1371
     50 H20         0.9123    3.4111    0.5016 H         1 <0>         0.1371
     51 H21        -1.1380    2.0995    0.4107 H         1 <0>         0.1394
@<TRIPOS>BOND
     1    1    2 1
     2    1   32 1
     3    1   33 1
     4    1   34 1
     5    2    3 1
     6    3    8 ar
     7    3    4 ar
     8    4    5 ar
     9    4   35 1
    10    5   14 ar
    11    5    6 ar
    12    6    7 ar
    13    6   11 ar
    14    7    8 ar
    15    7   36 1
    16    8    9 1
    17    9   10 1
    18   10   37 1
    19   10   38 1
    20   10   39 1
    21   11   12 ar
    22   12   13 ar
    23   12   40 1
    24   13   14 ar
    25   14   15 1
    26   15   20 1
    27   15   16 1
    28   16   17 1
    29   16   41 1
    30   16   42 1
    31   17   18 1
    32   17   43 1
    33   17   44 1
    34   18   19 1
    35   18   20 1
    36   18   21 1
    37   20   45 1
    38   20   46 1
    39   21   22 1
    40   22   31 ar
    41   22   23 ar
    42   23   24 ar
    43   23   47 1
    44   24   25 ar
    45   25   30 ar
    46   25   26 ar
    47   26   27 ar
    48   26   48 1
    49   27   28 ar
    50   27   49 1
    51   28   29 ar
    52   28   50 1
    53   29   30 ar
    54   29   51 1
    55   30   31 ar
@<TRIPOS>MOLECULE
ZINC04170129
   43    46     0     0     0
SMALL
USER_CHARGES
(4R)-3-[2-(4-methoxyphenyl)-1H-benzimidazol-5-yl]-4-methyl-4,5-dihydro-1H-pyridazin-6-one
@<TRIPOS>ATOM
      1 C1         -8.6740   -3.3376    1.4620 C.3       1 <0>        -0.1471
      2 C2         -8.1728   -3.2384    0.0198 C.3       1 <0>        -0.0890
      3 H1         -8.5375   -2.3092   -0.4425 H         1 <0>         0.1113
      4 C3         -8.6738   -4.4446   -0.7775 C.3       1 <0>        -0.1448
      5 C4         -7.9057   -5.6717   -0.3530 C.2       1 <0>         0.4974
      6 O1         -8.4582   -6.7506   -0.3041 O.2       1 <0>        -0.5274
      7 N1         -6.6034   -5.5625   -0.0282 N.am      1 <0>        -0.5717
      8 N2         -5.9821   -4.3111   -0.0018 N.2       1 <0>        -0.2448
      9 C5         -6.6672   -3.2156    0.0130 C.2       1 <0>         0.1605
     10 C6         -5.9623   -1.9204    0.0172 C.ar      1 <0>        -0.0607
     11 C7         -6.6953   -0.7257    0.0275 C.ar      1 <0>        -0.0776
     12 C8         -6.0542    0.4797    0.0315 C.ar      1 <0>        -0.1098
     13 C9         -4.6656    0.5326    0.0259 C.ar      1 <0>         0.0569
     14 C10        -3.9127   -0.6563    0.0156 C.ar      1 <0>         0.0448
     15 C11        -4.5714   -1.8874    0.0115 C.ar      1 <0>        -0.0141
     16 N3         -2.6038   -0.3019    0.0060 N.2       1 <0>        -0.4796
     17 C12        -2.5021    1.0049    0.0188 C.2       1 <0>         0.3490
     18 N4         -3.7503    1.5671    0.0278 N.pl3     1 <0>        -0.6069
     19 H2         -4.0993    2.6102    0.0355 H         1 <0>         0.4510
     20 C13        -1.2306    1.7583    0.0174 C.ar      1 <0>        -0.0739
     21 C14        -0.0126    1.0758    0.0080 C.ar      1 <0>        -0.0274
     22 C15         1.1708    1.7819    0.0004 C.ar      1 <0>        -0.1518
     23 C16         1.1530    3.1709    0.0081 C.ar      1 <0>         0.1477
     24 C17        -0.0568    3.8535    0.0229 C.ar      1 <0>        -0.2093
     25 C18        -1.2443    3.1545    0.0301 C.ar      1 <0>        -0.0564
     26 O2          2.3213    3.8632    0.0007 O.3       1 <0>        -0.3122
     27 C19         2.2303    5.2893    0.0093 C.3       1 <0>         0.0207
     28 H3         -9.7739   -3.3543    1.4676 H         1 <0>         0.0733
     29 H4         -8.3175   -2.4687    2.0346 H         1 <0>         0.0714
     30 H5         -8.2909   -4.2612    1.9206 H         1 <0>         0.0551
     31 H6         -9.7460   -4.5936   -0.5820 H         1 <0>         0.1166
     32 H7         -8.5185   -4.2644   -1.8515 H         1 <0>         0.1071
     33 H8         -6.0282   -6.4674    0.2174 H         1 <0>         0.4592
     34 H9         -7.7748   -0.7589    0.0319 H         1 <0>         0.1381
     35 H10        -6.6279    1.3947    0.0394 H         1 <0>         0.1295
     36 H11        -4.0054   -2.8072    0.0043 H         1 <0>         0.1429
     37 H12         0.0021   -0.0041    0.0020 H         1 <0>         0.1475
     38 H13         2.1133    1.2547   -0.0118 H         1 <0>         0.1409
     39 H14        -0.0666    4.9334    0.0285 H         1 <0>         0.1357
     40 H15        -2.1845    3.6859    0.0412 H         1 <0>         0.1241
     41 H16         3.2419    5.7213    0.0020 H         1 <0>         0.1055
     42 H17         1.6981    5.6173    0.9144 H         1 <0>         0.0592
     43 H18         1.6809    5.6270   -0.8818 H         1 <0>         0.0592
@<TRIPOS>BOND
     1    1    2 1
     2    1   28 1
     3    1   29 1
     4    1   30 1
     5    2    3 1
     6    2    9 1
     7    2    4 1
     8    4    5 1
     9    4   31 1
    10    4   32 1
    11    5    6 2
    12    5    7 am
    13    7    8 1
    14    7   33 1
    15    8    9 2
    16    9   10 1
    17   10   15 ar
    18   10   11 ar
    19   11   12 ar
    20   11   34 1
    21   12   13 ar
    22   12   35 1
    23   13   18 1
    24   13   14 ar
    25   14   15 ar
    26   14   16 1
    27   15   36 1
    28   16   17 2
    29   17   18 1
    30   17   20 1
    31   18   19 1
    32   20   25 ar
    33   20   21 ar
    34   21   22 ar
    35   21   37 1
    36   22   23 ar
    37   22   38 1
    38   23   24 ar
    39   23   26 1
    40   24   25 ar
    41   24   39 1
    42   25   40 1
    43   26   27 1
    44   27   41 1
    45   27   42 1
    46   27   43 1
@<TRIPOS>MOLECULE
ZINC05071680
   43    46     0     0     0
SMALL
USER_CHARGES
(4S)-3-[2-(4-methoxyphenyl)-1H-benzimidazol-5-yl]-4-methyl-4,5-dihydro-1H-pyridazin-6-one
@<TRIPOS>ATOM
      1 C1          2.7768    1.8541    2.3171 C.3       1 <0>        -0.1547
      2 C2          3.4884    1.3648    1.0540 C.3       1 <0>        -0.0845
      3 H1          3.9826    2.2079    0.5490 H         1 <0>         0.1024
      4 C3          4.5270    0.3070    1.4332 C.3       1 <0>        -0.1425
      5 C4          4.9964   -0.3957    0.1834 C.2       1 <0>         0.4954
      6 O1          6.1509   -0.7541    0.0822 O.2       1 <0>        -0.5266
      7 N1          4.1264   -0.6231   -0.8189 N.am      1 <0>        -0.5736
      8 N2          2.8169   -0.1411   -0.7437 N.2       1 <0>        -0.2405
      9 C5          2.4787    0.7686    0.1093 C.2       1 <0>         0.1585
     10 C6          1.0780    1.2269    0.1625 C.ar      1 <0>        -0.0536
     11 C7          0.7938    2.5826    0.3764 C.ar      1 <0>        -0.0753
     12 C8         -0.4988    3.0192    0.4272 C.ar      1 <0>        -0.1105
     13 C9         -1.5467    2.1205    0.2674 C.ar      1 <0>         0.0556
     14 C10        -1.2808    0.7564    0.0459 C.ar      1 <0>         0.0468
     15 C11         0.0422    0.3123   -0.0002 C.ar      1 <0>        -0.0186
     16 N3         -2.4771    0.1278   -0.0659 N.2       1 <0>        -0.4803
     17 C12        -3.4462    1.0014    0.0601 C.2       1 <0>         0.3487
     18 N4         -2.9219    2.2489    0.2680 N.pl3     1 <0>        -0.6067
     19 H2         -3.3820    3.2364    0.4198 H         1 <0>         0.4508
     20 C13        -4.8886    0.6867   -0.0109 C.ar      1 <0>        -0.0736
     21 C14        -5.8348    1.7016    0.1445 C.ar      1 <0>        -0.0565
     22 C15        -7.1786    1.4051    0.0728 C.ar      1 <0>        -0.2093
     23 C16        -7.5924    0.0968   -0.1437 C.ar      1 <0>         0.1476
     24 C17        -6.6541   -0.9165   -0.2935 C.ar      1 <0>        -0.1517
     25 C18        -5.3085   -0.6271   -0.2279 C.ar      1 <0>        -0.0276
     26 O2         -8.9178   -0.1924   -0.2086 O.3       1 <0>        -0.3123
     27 C19        -9.8282    0.8970   -0.0462 C.3       1 <0>         0.0207
     28 H3          3.5138    2.2898    3.0077 H         1 <0>         0.0670
     29 H4          2.2727    1.0071    2.8054 H         1 <0>         0.0645
     30 H5          2.0323    2.6172    2.0462 H         1 <0>         0.0803
     31 H6          5.3814    0.7927    1.9273 H         1 <0>         0.1162
     32 H7          4.0731   -0.4231    2.1195 H         1 <0>         0.1079
     33 H8          4.4529   -1.1928   -1.7014 H         1 <0>         0.4594
     34 H9          1.6030    3.2869    0.5015 H         1 <0>         0.1391
     35 H10        -0.7076    4.0658    0.5925 H         1 <0>         0.1294
     36 H11         0.2599   -0.7325   -0.1654 H         1 <0>         0.1364
     37 H12        -5.5139    2.7182    0.3173 H         1 <0>         0.1241
     38 H13        -7.9111    2.1901    0.1891 H         1 <0>         0.1357
     39 H14        -6.9797   -1.9325   -0.4613 H         1 <0>         0.1409
     40 H15        -4.5795   -1.4155   -0.3438 H         1 <0>         0.1473
     41 H16       -10.8610    0.5258   -0.1202 H         1 <0>         0.1054
     42 H17        -9.6498    1.6443   -0.8334 H         1 <0>         0.0592
     43 H18        -9.6745    1.3594    0.9400 H         1 <0>         0.0592
@<TRIPOS>BOND
     1    1    2 1
     2    1   28 1
     3    1   29 1
     4    1   30 1
     5    2    3 1
     6    2    9 1
     7    2    4 1
     8    4    5 1
     9    4   31 1
    10    4   32 1
    11    5    6 2
    12    5    7 am
    13    7    8 1
    14    7   33 1
    15    8    9 2
    16    9   10 1
    17   10   15 ar
    18   10   11 ar
    19   11   12 ar
    20   11   34 1
    21   12   13 ar
    22   12   35 1
    23   13   18 1
    24   13   14 ar
    25   14   15 ar
    26   14   16 1
    27   15   36 1
    28   16   17 2
    29   17   18 1
    30   17   20 1
    31   18   19 1
    32   20   25 ar
    33   20   21 ar
    34   21   22 ar
    35   21   37 1
    36   22   23 ar
    37   22   38 1
    38   23   24 ar
    39   23   26 1
    40   24   25 ar
    41   24   39 1
    42   25   40 1
    43   26   27 1
    44   27   41 1
    45   27   42 1
    46   27   43 1
@<TRIPOS>MOLECULE
ZINC09225358
   29    30     0     0     0
SMALL
USER_CHARGES

@<TRIPOS>ATOM
      1 C1         -1.4067   -3.3082    0.0480 C.3       1 <0>        -0.0935
      2 C2         -0.6774   -2.0426    0.4188 C.2       1 <0>         0.1362
      3 C3         -1.1579   -0.7820    0.3021 C.2       1 <0>        -0.0791
      4 N1         -0.1602    0.0845    0.7567 N.am      1 <0>        -0.6275
      5 H1         -0.2156    1.0522    0.7937 H         1 <0>         0.4358
      6 C4          0.8924   -0.6670    1.1348 C.2       1 <0>         0.6583
      7 O1          1.9422   -0.2446    1.5832 O.2       1 <0>        -0.5578
      8 N2          0.5866   -1.9632    0.9391 N.am      1 <0>        -0.6216
      9 H2          1.1668   -2.7163    1.1321 H         1 <0>         0.4382
     10 C5         -2.4778   -0.3982   -0.2059 C.2       1 <0>         0.4719
     11 O2         -3.3030   -1.2552   -0.4660 O.2       1 <0>        -0.4414
     12 C6         -2.8069    1.0266   -0.4023 C.ar      1 <0>        -0.1650
     13 C7         -1.7846    1.9622   -0.5911 C.ar      1 <0>        -0.0706
     14 C8         -2.0934    3.2853   -0.7733 C.ar      1 <0>        -0.1063
     15 C9         -3.4239    3.6984   -0.7701 C.ar      1 <0>        -0.0552
     16 C10        -4.4443    2.7687   -0.5823 C.ar      1 <0>        -0.1423
     17 C11        -4.1419    1.4433   -0.4059 C.ar      1 <0>        -0.0366
     18 S1         -3.8169    5.4001   -1.0035 S.3       1 <0>        -0.0993
     19 C12        -5.6284    5.4473   -0.9227 C.3       1 <0>        -0.1493
     20 H3         -0.8090   -4.1712    0.3415 H         1 <0>         0.0771
     21 H4         -2.3666   -3.3388    0.5635 H         1 <0>         0.0988
     22 H5         -1.5718   -3.3301   -1.0292 H         1 <0>         0.0943
     23 H6         -0.7530    1.6427   -0.5930 H         1 <0>         0.1343
     24 H7         -1.3045    4.0083   -0.9191 H         1 <0>         0.1384
     25 H8         -5.4748    3.0918   -0.5800 H         1 <0>         0.1330
     26 H9         -4.9336    0.7224   -0.2648 H         1 <0>         0.1401
     27 H10        -5.9585    5.0790    0.0486 H         1 <0>         0.0875
     28 H11        -5.9716    6.4729   -1.0582 H         1 <0>         0.1137
     29 H12        -6.0437    4.8182   -1.7101 H         1 <0>         0.0877
@<TRIPOS>BOND
     1    1    2 1
     2    1   20 1
     3    1   21 1
     4    1   22 1
     5    2    8 1
     6    2    3 2
     7    3    4 1
     8    3   10 1
     9    4    5 1
    10    4    6 am
    11    6    7 2
    12    6    8 am
    13    8    9 1
    14   10   11 2
    15   10   12 1
    16   12   17 ar
    17   12   13 ar
    18   13   14 ar
    19   13   23 1
    20   14   15 ar
    21   14   24 1
    22   15   16 ar
    23   15   18 1
    24   16   17 ar
    25   16   25 1
    26   17   26 1
    27   18   19 1
    28   19   27 1
    29   19   28 1
    30   19   29 1
@<TRIPOS>MOLECULE
ZINC00000883
   35    38     0     0     0
SMALL
USER_CHARGES

@<TRIPOS>ATOM
      1 C1         -0.0187    1.5258    0.0104 C.3       1 <0>        -0.1289
      2 C2          0.0021   -0.0041    0.0020 C.3       1 <0>        -0.0510
      3 C3          0.7865   -0.5164   -1.1847 C.ar      1 <0>        -0.1021
      4 C4          0.6123   -0.3812   -2.5407 C.ar      1 <0>        -0.0528
      5 C5          1.5123   -0.9756   -3.4153 C.ar      1 <0>         0.0417
      6 C6          2.5977   -1.7129   -2.9079 C.ar      1 <0>         0.0852
      7 C7          2.7614   -1.8408   -1.5261 C.ar      1 <0>        -0.0869
      8 C8          1.8560   -1.2433   -0.6621 C.ar      1 <0>         0.1406
      9 N1          1.8082   -1.2296    0.7349 N.am      1 <0>        -0.6575
     10 C9          0.7605   -0.5304    1.2014 C.2       1 <0>         0.5378
     11 O1          0.4752   -0.3538    2.3670 O.2       1 <0>        -0.4928
     12 N2          3.2998   -2.1720   -3.9723 N.2       1 <0>        -0.4688
     13 C10         2.7294   -1.7737   -5.0821 C.2       1 <0>         0.3268
     14 N3          1.6186   -1.0294   -4.7915 N.pl3     1 <0>        -0.5871
     15 H1          1.0181   -0.6169   -5.4320 H         1 <0>         0.4262
     16 C11         3.2139   -2.0823   -6.4461 C.ar      1 <0>         0.0150
     17 C12         2.5380   -1.6050   -7.5743 C.ar      1 <0>        -0.1586
     18 C13         3.0249   -1.9165   -8.8274 C.ar      1 <0>         0.1068
     19 N4          4.1101   -2.6528   -8.9687 N.ar      1 <0>        -0.4746
     20 C14         4.7770   -3.1226   -7.9322 C.ar      1 <0>         0.1060
     21 C15         4.3637   -2.8546   -6.6431 C.ar      1 <0>        -0.1241
     22 C16        -1.4241   -0.5578   -0.0153 C.3       1 <0>        -0.1286
     23 H2          1.0039    1.9031    0.0027 H         1 <0>         0.0625
     24 H3         -0.5459    1.8868   -0.8726 H         1 <0>         0.0737
     25 H4         -0.5289    1.8773    0.9072 H         1 <0>         0.0743
     26 H5         -0.2227    0.1855   -2.9255 H         1 <0>         0.1344
     27 H6          3.5925   -2.4060   -1.1309 H         1 <0>         0.1386
     28 H7          2.4572   -1.6743    1.3024 H         1 <0>         0.4160
     29 H8          1.6484   -1.0022   -7.4660 H         1 <0>         0.1344
     30 H9          2.5101   -1.5527   -9.7044 H         1 <0>         0.1641
     31 H10         5.6608   -3.7215   -8.0946 H         1 <0>         0.1665
     32 H11         4.9172   -3.2387   -5.7990 H         1 <0>         0.1526
     33 H12        -1.9359   -0.2155   -0.9148 H         1 <0>         0.0736
     34 H13        -1.3909   -1.6473   -0.0086 H         1 <0>         0.0624
     35 H14        -1.9615   -0.2052    0.8650 H         1 <0>         0.0744
@<TRIPOS>BOND
     1    1    2 1
     2    1   23 1
     3    1   24 1
     4    1   25 1
     5    2   10 1
     6    2    3 1
     7    2   22 1
     8    3    8 ar
     9    3    4 ar
    10    4    5 ar
    11    4   26 1
    12    5   14 1
    13    5    6 ar
    14    6    7 ar
    15    6   12 1
    16    7    8 ar
    17    7   27 1
    18    8    9 1
    19    9   10 am
    20    9   28 1
    21   10   11 2
    22   12   13 2
    23   13   14 1
    24   13   16 1
    25   14   15 1
    26   16   21 ar
    27   16   17 ar
    28   17   18 ar
    29   17   29 1
    30   18   19 ar
    31   18   30 1
    32   19   20 ar
    33   20   21 ar
    34   20   31 1
    35   21   32 1
    36   22   33 1
    37   22   34 1
    38   22   35 1
@<TRIPOS>MOLECULE
ZINC13556347
   31    32     0     0     0
SMALL
USER_CHARGES

@<TRIPOS>ATOM
      1 C1         -1.2362    1.2021    0.1547 C.3       1 <0>        -0.1503
      2 C2         -0.8440   -0.2768    0.1630 C.3       1 <0>         0.0499
      3 O1         -0.4604   -0.6752   -1.1546 O.3       1 <0>        -0.3039
      4 C3         -0.0807   -1.9685   -1.3217 C.ar      1 <0>         0.1147
      5 C4         -0.0838   -2.8364   -0.2372 C.ar      1 <0>        -0.1720
      6 C5          0.3000   -4.1488   -0.3995 C.ar      1 <0>        -0.0890
      7 C6          0.6951   -4.6113   -1.6619 C.ar      1 <0>        -0.0732
      8 C7          0.6977   -3.7344   -2.7550 C.ar      1 <0>        -0.1451
      9 C8          0.3057   -2.4220   -2.5829 C.ar      1 <0>         0.0915
     10 O2          0.3016   -1.5694   -3.6423 O.3       1 <0>        -0.3075
     11 C9          0.7090   -2.1012   -4.9046 C.3       1 <0>         0.0246
     12 C10         1.1049   -6.0082   -1.8385 C.2       1 <0>         0.0281
     13 C11         1.2716   -6.8118   -0.7512 C.2       1 <0>        -0.1746
     14 C12         1.5039   -8.2197   -0.6838 C.2       1 <0>         0.4847
     15 O3          1.5885   -8.9627   -1.8104 O.3       1 <0>        -0.5806
     16 N1          1.6319   -8.7666    0.4830 N.2       1 <0>        -0.6227
     17 C13         1.5516   -8.0460    1.6146 C.2       1 <0>         0.3709
     18 S1          1.6917   -8.5720    3.2377 S.2       1 <0>        -0.5318
     19 S2          1.2681   -6.3959    0.9885 S.3       1 <0>        -0.1444
     20 H1         -0.3869    1.8014   -0.1733 H         1 <0>         0.0655
     21 H2         -2.0724    1.3523   -0.5282 H         1 <0>         0.0653
     22 H3         -1.5288    1.5060    1.1598 H         1 <0>         0.0775
     23 H4         -0.0078   -0.4271    0.8459 H         1 <0>         0.0638
     24 H5         -1.6932   -0.8761    0.4911 H         1 <0>         0.0633
     25 H6         -0.3878   -2.4808    0.7362 H         1 <0>         0.1395
     26 H7          0.2969   -4.8212    0.4456 H         1 <0>         0.1510
     27 H8          1.0016   -4.0853   -3.7301 H         1 <0>         0.1416
     28 H9          1.7317   -2.4709   -4.8301 H         1 <0>         0.0556
     29 H10         0.0463   -2.9199   -5.1849 H         1 <0>         0.0557
     30 H11         0.6598   -1.3185   -5.6615 H         1 <0>         0.0988
     31 H12         1.2746   -6.3999   -2.8306 H         1 <0>         0.1530
@<TRIPOS>BOND
     1    1    2 1
     2    1   20 1
     3    1   21 1
     4    1   22 1
     5    2    3 1
     6    2   23 1
     7    2   24 1
     8    3    4 1
     9    4    9 ar
    10    4    5 ar
    11    5    6 ar
    12    5   25 1
    13    6    7 ar
    14    6   26 1
    15    7    8 ar
    16    7   12 1
    17    8    9 ar
    18    8   27 1
    19    9   10 1
    20   10   11 1
    21   11   28 1
    22   11   29 1
    23   11   30 1
    24   12   13 2
    25   12   31 1
    26   13   19 1
    27   13   14 1
    28   14   15 1
    29   14   16 2
    30   16   17 1
    31   17   18 2
    32   17   19 1
@<TRIPOS>MOLECULE
ZINC03861807
   30    31     0     0     0
SMALL
USER_CHARGES

@<TRIPOS>ATOM
      1 C1         -0.0187    1.5258    0.0104 C.3       1 <0>        -0.1415
      2 C2          0.0021   -0.0041    0.0020 C.3       1 <0>        -0.1122
      3 C3          0.7421   -0.5109    1.2415 C.3       1 <0>        -0.1434
      4 C4         -1.4333   -0.5336    0.0129 C.3       1 <0>         0.1228
      5 N1         -2.1054   -0.1483   -1.2305 N.am      1 <0>        -0.5064
      6 C5         -2.7896    1.0542   -1.3029 C.2       1 <0>         0.3270
      7 C6         -3.4188    1.3971   -2.4931 C.2       1 <0>        -0.1566
      8 C7         -3.3428    0.5129   -3.5907 C.2       1 <0>         0.5930
      9 O1         -3.8857    0.7913   -4.6449 O.2       1 <0>        -0.5148
     10 N2         -2.6613   -0.6442   -3.4587 N.am      1 <0>        -0.5518
     11 C8         -2.0526   -0.9608   -2.3028 C.2       1 <0>         0.7063
     12 O2         -1.4428   -2.0098   -2.2221 O.2       1 <0>        -0.5287
     13 C9         -2.5785   -1.5664   -4.5940 C.3       1 <0>         0.0827
     14 N3         -4.0103    2.6257   -2.2774 N.pl3     1 <0>        -0.5187
     15 H1         -4.5284    3.1372   -2.9183 H         1 <0>         0.4381
     16 C10        -3.7321    2.9790   -1.0073 C.2       1 <0>         0.2767
     17 N4         -3.0113    2.0471   -0.4377 N.2       1 <0>        -0.4957
     18 H2          1.0039    1.9031    0.0027 H         1 <0>         0.0532
     19 H3         -0.5459    1.8868   -0.8726 H         1 <0>         0.0473
     20 H4         -0.5289    1.8773    0.9072 H         1 <0>         0.0653
     21 H5          0.5123   -0.3556   -0.8948 H         1 <0>         0.0742
     22 H6          0.2319   -0.1594    2.1383 H         1 <0>         0.0596
     23 H7          0.7568   -1.6008    1.2356 H         1 <0>         0.0591
     24 H8          1.7647   -0.1336    1.2338 H         1 <0>         0.0613
     25 H9         -1.4190   -1.6203    0.0965 H         1 <0>         0.1003
     26 H10        -1.9701   -0.1109    0.8621 H         1 <0>         0.1000
     27 H11        -3.1215   -1.1486   -5.4417 H         1 <0>         0.1034
     28 H12        -1.5337   -1.7124   -4.8680 H         1 <0>         0.0826
     29 H13        -3.0188   -2.5242   -4.3168 H         1 <0>         0.0828
     30 H14        -4.0547    3.8934   -0.5315 H         1 <0>         0.2343
@<TRIPOS>BOND
     1    1    2 1
     2    1   18 1
     3    1   19 1
     4    1   20 1
     5    2    3 1
     6    2    4 1
     7    2   21 1
     8    3   22 1
     9    3   23 1
    10    3   24 1
    11    4    5 1
    12    4   25 1
    13    4   26 1
    14    5   11 am
    15    5    6 1
    16    6   17 1
    17    6    7 2
    18    7    8 1
    19    7   14 1
    20    8    9 2
    21    8   10 am
    22   10   11 am
    23   10   13 1
    24   11   12 2
    25   13   27 1
    26   13   28 1
    27   13   29 1
    28   14   15 1
    29   14   16 1
    30   16   17 2
    31   16   30 1
@<TRIPOS>MOLECULE
ZINC26420394
   28    30     0     0     0
SMALL
USER_CHARGES
6-(4-imidazol-1-ylphenyl)pyridazin-3-ol
@<TRIPOS>ATOM
      1 C1         -3.5411    2.4009    0.0455 C.ar      1 <0>        -0.0529
      2 C2         -2.4199    1.5987    0.0415 C.ar      1 <0>        -0.1321
      3 C3         -1.1543    2.1718    0.0378 C.ar      1 <0>         0.1490
      4 C4         -1.0149    3.5540    0.0438 C.ar      1 <0>        -0.1286
      5 C5         -2.1329    4.3608    0.0421 C.ar      1 <0>        -0.0677
      6 C6         -3.4041    3.7884    0.0459 C.ar      1 <0>        -0.0464
      7 C7         -4.6083    4.6537    0.0498 C.2       1 <0>         0.1098
      8 C8         -4.4724    6.0459    0.0561 C.2       1 <0>        -0.0526
      9 C9         -5.6260    6.8101    0.0651 C.2       1 <0>        -0.1275
     10 C10        -6.8515    6.1458    0.0672 C.2       1 <0>         0.4092
     11 N1         -6.8858    4.8228    0.0607 N.am      1 <0>        -0.3897
     12 N2         -5.8182    4.1104    0.0473 N.2       1 <0>        -0.2087
     13 O1         -8.0082    6.8551    0.0754 O.2       1 <0>        -0.6010
     14 N3         -0.0163    1.3541    0.0336 N.pl3     1 <0>        -0.4037
     15 C11         1.2890    1.7739    0.0242 C.2       1 <0>        -0.0529
     16 C12         2.0547    0.6662    0.0174 C.2       1 <0>        -0.0118
     17 N4          1.2448   -0.4030    0.0226 N.2       1 <0>        -0.4818
     18 C13         0.0021   -0.0043    0.0323 C.2       1 <0>         0.2055
     19 H1         -4.5247    1.9550    0.0480 H         1 <0>         0.1472
     20 H2         -2.5255    0.5239    0.0415 H         1 <0>         0.1404
     21 H3         -0.0299    3.9970    0.0454 H         1 <0>         0.1399
     22 H4         -2.0240    5.4353    0.0425 H         1 <0>         0.1414
     23 H5         -3.5773    6.4917    0.0543 H         1 <0>         0.1465
     24 H6         -5.5645    7.8082    0.0699 H         1 <0>         0.1535
     25 H7         -7.8720    4.3357    0.0672 H         1 <0>         0.4845
     26 H8          1.7170    2.6776    0.0212 H         1 <0>         0.1716
     27 H9          3.0513    0.7474    0.0107 H         1 <0>         0.1618
     28 H10        -0.7385   -0.6762    0.0367 H         1 <0>         0.1972
@<TRIPOS>BOND
     1    1    6 ar
     2    1    2 ar
     3    1   19 1
     4    2    3 ar
     5    2   20 1
     6    3    4 ar
     7    3   14 1
     8    4    5 ar
     9    4   21 1
    10    5    6 ar
    11    5   22 1
    12    6    7 1
    13    7    8 1
    14    7   12 2
    15    8    9 2
    16    8   23 1
    17    9   10 1
    18    9   24 1
    19   10   13 2
    20   10   11 am
    21   11   12 1
    22   11   25 1
    23   14   18 1
    24   14   15 1
    25   15   16 2
    26   15   26 1
    27   16   17 1
    28   16   27 1
    29   17   18 2
    30   18   28 1
@<TRIPOS>MOLECULE
ZINC26420394
   27    29     0     0     0
SMALL
USER_CHARGES
6-(4-imidazol-1-ylphenyl)pyridazin-3-ol
@<TRIPOS>ATOM
      1 C1         -3.5411    2.4009    0.0455 C.ar      1 <0>        -0.0810
      2 C2         -2.4199    1.5987    0.0415 C.ar      1 <0>        -0.1221
      3 C3         -1.1543    2.1718    0.0378 C.ar      1 <0>         0.0949
      4 C4         -1.0149    3.5540    0.0438 C.ar      1 <0>        -0.1200
      5 C5         -2.1329    4.3608    0.0421 C.ar      1 <0>        -0.1042
      6 C6         -3.4041    3.7884    0.0459 C.ar      1 <0>         0.0213
      7 C7         -4.6083    4.6537    0.0498 C.ar      1 <0>        -0.0593
      8 C8         -4.4724    6.0459    0.0561 C.ar      1 <0>        -0.0730
      9 C9         -5.6260    6.8101    0.0651 C.ar      1 <0>        -0.2237
     10 C10        -6.8515    6.1458    0.0672 C.ar      1 <0>         0.3643
     11 N1         -6.8858    4.8228    0.0607 N.ar      1 <0>        -0.3479
     12 N2         -5.8182    4.1104    0.0473 N.ar      1 <0>        -0.1800
     13 O1         -8.0082    6.8551    0.0754 O.3       1 <0>        -0.6877
     14 N3         -0.0163    1.3541    0.0336 N.pl3     1 <0>        -0.3873
     15 C11         1.2890    1.7739    0.0242 C.2       1 <0>        -0.0530
     16 C12         2.0547    0.6662    0.0174 C.2       1 <0>        -0.0255
     17 N4          1.2448   -0.4030    0.0226 N.2       1 <0>        -0.4917
     18 C13         0.0021   -0.0043    0.0323 C.2       1 <0>         0.1989
     19 H1         -4.5247    1.9550    0.0480 H         1 <0>         0.1457
     20 H2         -2.5255    0.5239    0.0415 H         1 <0>         0.1298
     21 H3         -0.0299    3.9970    0.0454 H         1 <0>         0.1270
     22 H4         -2.0240    5.4353    0.0425 H         1 <0>         0.1324
     23 H5         -3.5773    6.4917    0.0543 H         1 <0>         0.1113
     24 H6         -5.5645    7.8082    0.0699 H         1 <0>         0.1131
     25 H7          1.7170    2.6776    0.0212 H         1 <0>         0.1665
     26 H8          3.0513    0.7474    0.0107 H         1 <0>         0.1577
     27 H9         -0.7385   -0.6762    0.0367 H         1 <0>         0.1936
@<TRIPOS>BOND
     1    1    6 ar
     2    1    2 ar
     3    1   19 1
     4    2    3 ar
     5    2   20 1
     6    3    4 ar
     7    3   14 1
     8    4    5 ar
     9    4   21 1
    10    5    6 ar
    11    5   22 1
    12    6    7 1
    13    7    8 ar
    14    7   12 ar
    15    8    9 ar
    16    8   23 1
    17    9   10 ar
    18    9   24 1
    19   10   13 1
    20   10   11 ar
    21   11   12 ar
    22   14   18 1
    23   14   15 1
    24   15   16 2
    25   15   25 1
    26   16   17 1
    27   16   26 1
    28   17   18 2
    29   18   27 1
@<TRIPOS>MOLECULE
ZINC26420394
   29    31     0     0     0
SMALL
USER_CHARGES
6-(4-imidazol-1-ylphenyl)pyridazin-3-ol
@<TRIPOS>ATOM
      1 C1         -3.5411    2.4009    0.0455 C.ar      1 <0>        -0.0614
      2 C2         -2.4199    1.5987    0.0415 C.ar      1 <0>        -0.1042
      3 C3         -1.1543    2.1718    0.0378 C.ar      1 <0>         0.0819
      4 C4         -1.0149    3.5540    0.0438 C.ar      1 <0>        -0.0932
      5 C5         -2.1329    4.3608    0.0421 C.ar      1 <0>        -0.0743
      6 C6         -3.4041    3.7884    0.0459 C.ar      1 <0>         0.0066
      7 C7         -4.6083    4.6537    0.0498 C.2       1 <0>         0.0839
      8 C8         -4.4724    6.0459    0.0561 C.2       1 <0>        -0.0568
      9 C9         -5.6260    6.8101    0.0651 C.2       1 <0>        -0.1167
     10 C10        -6.8515    6.1458    0.0672 C.2       1 <0>         0.4136
     11 N1         -6.8858    4.8228    0.0607 N.am      1 <0>        -0.3872
     12 N2         -5.8182    4.1104    0.0473 N.2       1 <0>        -0.1970
     13 O1         -8.0082    6.8551    0.0754 O.2       1 <0>        -0.5813
     14 N3         -0.0163    1.3541    0.0336 N.pl3     1 <0>        -0.3420
     15 C11         1.2890    1.7739    0.0242 C.2       1 <0>         0.0283
     16 C12         2.0547    0.6662    0.0174 C.2       1 <0>         0.0142
     17 N4          1.2448   -0.4030    0.0226 N.pl3     1 <0>        -0.4908
     18 C13         0.0021   -0.0043    0.0323 C.cat     1 <0>         0.3201
     19 H1         -4.5247    1.9550    0.0480 H         1 <0>         0.1587
     20 H2         -2.5255    0.5239    0.0415 H         1 <0>         0.1456
     21 H3         -0.0299    3.9970    0.0454 H         1 <0>         0.1488
     22 H4         -2.0240    5.4353    0.0425 H         1 <0>         0.1545
     23 H5         -3.5773    6.4917    0.0543 H         1 <0>         0.1477
     24 H6         -5.5645    7.8082    0.0699 H         1 <0>         0.1571
     25 H7         -7.8523    4.2976    0.0668 H         1 <0>         0.4883
     26 H8          1.7170    2.6776    0.0212 H         1 <0>         0.2049
     27 H9          3.0513    0.7474    0.0107 H         1 <0>         0.2061
     28 H10        -0.7385   -0.6762    0.0367 H         1 <0>         0.2338
     29 H11         1.6720   -1.4166    0.0185 H         1 <0>         0.5109
@<TRIPOS>BOND
     1    1    6 ar
     2    1    2 ar
     3    1   19 1
     4    2    3 ar
     5    2   20 1
     6    3    4 ar
     7    3   14 1
     8    4    5 ar
     9    4   21 1
    10    5    6 ar
    11    5   22 1
    12    6    7 1
    13    7    8 1
    14    7   12 2
    15    8    9 2
    16    8   23 1
    17    9   10 1
    18    9   24 1
    19   10   13 2
    20   10   11 am
    21   11   12 1
    22   11   25 1
    23   14   18 1
    24   14   15 1
    25   15   16 2
    26   15   26 1
    27   16   17 1
    28   16   27 1
    29   17   18 2
    30   17   29 1
    31   18   28 1
@<TRIPOS>MOLECULE
ZINC26420394
   28    30     0     0     0
SMALL
USER_CHARGES

@<TRIPOS>ATOM
      1 C1         -0.0168    1.3900    0.0097 C.ar      1 <0>        -0.0904
      2 C2          1.1684    2.0943    0.0022 C.ar      1 <0>        -0.0870
      3 C3          2.3808    1.4161   -0.0135 C.ar      1 <0>         0.0248
      4 C4          2.4024    0.0270   -0.0217 C.ar      1 <0>        -0.0937
      5 C5          1.2202   -0.6822   -0.0137 C.ar      1 <0>        -0.1131
      6 C6          0.0021   -0.0041    0.0020 C.ar      1 <0>         0.0743
      7 C7         -1.2711   -0.7642    0.0106 C.ar      1 <0>        -0.0880
      8 C8         -1.2537   -2.1625    0.0029 C.ar      1 <0>        -0.0759
      9 C9         -2.4683   -2.8265    0.0119 C.ar      1 <0>        -0.2237
     10 C10        -3.6327   -2.0612    0.0280 C.ar      1 <0>         0.3704
     11 N1         -3.5549   -0.7398    0.0343 N.ar      1 <0>        -0.3395
     12 N2         -2.4308   -0.1203    0.0311 N.ar      1 <0>        -0.1684
     13 O1         -4.8452   -2.6701    0.0368 O.3       1 <0>        -0.6638
     14 N3          3.5839    2.1344   -0.0216 N.pl3     1 <0>        -0.3256
     15 C11         3.7187    3.4988   -0.0096 C.2       1 <0>         0.0189
     16 C12         5.0395    3.7603   -0.0230 C.2       1 <0>         0.0037
     17 N4          5.6978    2.5917   -0.0426 N.pl3     1 <0>        -0.4770
     18 C13         4.8372    1.6105   -0.0369 C.cat     1 <0>         0.2674
     19 H1         -0.9590    1.9177    0.0260 H         1 <0>         0.1564
     20 H2          1.1543    3.1742    0.0081 H         1 <0>         0.1361
     21 H3          3.3463   -0.4978   -0.0346 H         1 <0>         0.1325
     22 H4          1.2376   -1.7620   -0.0204 H         1 <0>         0.1449
     23 H5         -0.3214   -2.7076   -0.0100 H         1 <0>         0.1215
     24 H6         -2.5121   -3.9056    0.0062 H         1 <0>         0.1281
     25 H7          2.9190    4.2245    0.0070 H         1 <0>         0.2218
     26 H8          5.4910    4.7414   -0.0186 H         1 <0>         0.2239
     27 H9          5.0807    0.5583   -0.0449 H         1 <0>         0.2578
     28 H10         6.6625    2.4916   -0.0558 H         1 <0>         0.4634
@<TRIPOS>BOND
     1    1    6 ar
     2    1    2 ar
     3    1   19 1
     4    2    3 ar
     5    2   20 1
     6    3    4 ar
     7    3   14 1
     8    4    5 ar
     9    4   21 1
    10    5    6 ar
    11    5   22 1
    12    6    7 1
    13    7    8 ar
    14    7   12 ar
    15    8    9 ar
    16    8   23 1
    17    9   10 ar
    18    9   24 1
    19   10   13 1
    20   10   11 ar
    21   11   12 ar
    22   14   18 1
    23   14   15 1
    24   15   16 2
    25   15   25 1
    26   16   17 1
    27   16   26 1
    28   17   18 2
    29   17   28 1
    30   18   27 1
@<TRIPOS>MOLECULE
ZINC06032206
   33    35     0     0     0
SMALL
USER_CHARGES
5-[(3S)-3-methyl-3-methylsulfanyl-2-oxo-indolin-5-yl]-3,6-dihydro-1,3,4-thiadiazin-2-one
@<TRIPOS>ATOM
      1 C1          2.0457    1.8945    1.2504 C.3       1 <0>        -0.1327
      2 C2          1.1913    2.1241    0.0021 C.3       1 <0>        -0.0305
      3 C3          0.5969    3.5139    0.0152 C.ar      1 <0>        -0.1289
      4 C4          1.1584    4.7674    0.0162 C.ar      1 <0>         0.0000
      5 C5          0.3349    5.8976    0.0298 C.ar      1 <0>        -0.0765
      6 C6         -1.0536    5.7374    0.0422 C.ar      1 <0>        -0.0454
      7 C7         -1.6051    4.4771    0.0411 C.ar      1 <0>        -0.1397
      8 C8         -0.7842    3.3483    0.0275 C.ar      1 <0>         0.1777
      9 N1         -1.1060    1.9916    0.0174 N.am      1 <0>        -0.6647
     10 C9         -0.0144    1.2087    0.0087 C.2       1 <0>         0.5477
     11 O1          0.0021   -0.0041    0.0020 O.2       1 <0>        -0.4859
     12 C10         0.9267    7.2478    0.0314 C.2       1 <0>         0.1788
     13 N2          2.2056    7.3563    0.0254 N.2       1 <0>        -0.2479
     14 N3          2.9047    8.5564    0.0150 N.am      1 <0>        -0.5535
     15 C11         2.3777    9.7097    0.4603 C.2       1 <0>         0.4971
     16 O2          3.0387   10.7306    0.4386 O.2       1 <0>        -0.4767
     17 S1          0.7256    9.7395    1.0768 S.3       1 <0>        -0.1072
     18 C12         0.0051    8.4355    0.0462 C.3       1 <0>        -0.1207
     19 S2          2.1779    1.8651   -1.4979 S.3       1 <0>        -0.1874
     20 C13         2.6990    0.1311   -1.3865 C.3       1 <0>        -0.1378
     21 H1          2.9157    2.5673    1.2281 H         1 <0>         0.0882
     22 H2          2.3903    0.8501    1.2718 H         1 <0>         0.0735
     23 H3          1.4454    2.1010    2.1487 H         1 <0>         0.0732
     24 H4          2.2325    4.8798    0.0062 H         1 <0>         0.1466
     25 H5         -1.6955    6.6058    0.0523 H         1 <0>         0.1425
     26 H6         -2.6787    4.3605    0.0507 H         1 <0>         0.1400
     27 H7         -2.1598    1.6763    0.0173 H         1 <0>         0.4462
     28 H8          3.9349    8.5895   -0.3692 H         1 <0>         0.4673
     29 H9         -0.1285    8.8087   -0.9799 H         1 <0>         0.1272
     30 H10        -0.9705    8.1375    0.4579 H         1 <0>         0.1463
     31 H11         3.3114   -0.1248   -2.2637 H         1 <0>         0.1080
     32 H12         1.8110   -0.5175   -1.3574 H         1 <0>         0.0923
     33 H13         3.2906   -0.0159   -0.4708 H         1 <0>         0.0828
@<TRIPOS>BOND
     1    1    2 1
     2    1   21 1
     3    1   22 1
     4    1   23 1
     5    2   10 1
     6    2    3 1
     7    2   19 1
     8    3    8 ar
     9    3    4 ar
    10    4    5 ar
    11    4   24 1
    12    5    6 ar
    13    5   12 1
    14    6    7 ar
    15    6   25 1
    16    7    8 ar
    17    7   26 1
    18    8    9 1
    19    9   10 am
    20    9   27 1
    21   10   11 2
    22   12   18 1
    23   12   13 2
    24   13   14 1
    25   14   15 am
    26   14   28 1
    27   15   16 2
    28   15   17 1
    29   17   18 1
    30   18   29 1
    31   18   30 1
    32   19   20 1
    33   20   31 1
    34   20   32 1
    35   20   33 1
@<TRIPOS>MOLECULE
ZINC06067429
   33    35     0     0     0
SMALL
USER_CHARGES
5-[(3R)-3-methyl-3-methylsulfanyl-2-oxo-indolin-5-yl]-3,6-dihydro-1,3,4-thiadiazin-2-one
@<TRIPOS>ATOM
      1 C1          1.1218    3.8976   -1.2454 C.3       1 <0>        -0.1323
      2 C2          0.6397    3.1731    0.0130 C.3       1 <0>        -0.0308
      3 C3         -0.8692    3.0825    0.0269 C.ar      1 <0>        -0.1288
      4 C4         -1.8595    4.0341    0.0411 C.ar      1 <0>        -0.0001
      5 C5         -3.2014    3.6403    0.0514 C.ar      1 <0>        -0.0765
      6 C6         -3.5193    2.2792    0.0471 C.ar      1 <0>        -0.0455
      7 C7         -2.5191    1.3348    0.0329 C.ar      1 <0>        -0.1397
      8 C8         -1.1795    1.7266    0.0166 C.ar      1 <0>         0.1777
      9 N1         -0.0111    0.9658    0.0074 N.am      1 <0>        -0.6648
     10 C9          1.0944    1.7292    0.0009 C.2       1 <0>         0.5477
     11 O1          2.2415    1.3354   -0.0116 O.2       1 <0>        -0.4859
     12 C10        -4.2726    4.6531    0.0662 C.2       1 <0>         0.1785
     13 N2         -3.9430    5.8935    0.0745 N.2       1 <0>        -0.2478
     14 N3         -4.8367    6.9567    0.0776 N.am      1 <0>        -0.5535
     15 C11        -6.0998    6.8447    0.5230 C.2       1 <0>         0.4972
     16 O2         -6.8378    7.8115    0.5127 O.2       1 <0>        -0.4767
     17 S1         -6.6848    5.2924    1.1218 S.3       1 <0>        -0.1066
     18 C12        -5.7017    4.1863    0.0769 C.3       1 <0>        -0.1206
     19 S2          1.2431    4.0171    1.5010 S.3       1 <0>        -0.1868
     20 C13         3.0490    3.9222    1.3575 C.3       1 <0>        -0.1378
     21 H1          0.7825    4.9436   -1.2190 H         1 <0>         0.0881
     22 H2          0.7088    3.4005   -2.1356 H         1 <0>         0.0730
     23 H3          2.2207    3.8695   -1.2864 H         1 <0>         0.0735
     24 H4         -1.6028    5.0832    0.0447 H         1 <0>         0.1465
     25 H5         -4.5534    1.9680    0.0554 H         1 <0>         0.1425
     26 H6         -2.7718    0.2847    0.0296 H         1 <0>         0.1400
     27 H7         -0.0700   -0.1326    0.0062 H         1 <0>         0.4462
     28 H8         -4.5205    7.9421   -0.2954 H         1 <0>         0.4670
     29 H9         -6.0991    4.1987   -0.9487 H         1 <0>         0.1270
     30 H10        -5.7501    3.1626    0.4765 H         1 <0>         0.1463
     31 H11         3.5121    4.4138    2.2257 H         1 <0>         0.1080
     32 H12         3.3706    4.4278    0.4350 H         1 <0>         0.0827
     33 H13         3.3593    2.8674    1.3247 H         1 <0>         0.0923
@<TRIPOS>BOND
     1    1    2 1
     2    1   21 1
     3    1   22 1
     4    1   23 1
     5    2   10 1
     6    2    3 1
     7    2   19 1
     8    3    8 ar
     9    3    4 ar
    10    4    5 ar
    11    4   24 1
    12    5    6 ar
    13    5   12 1
    14    6    7 ar
    15    6   25 1
    16    7    8 ar
    17    7   26 1
    18    8    9 1
    19    9   10 am
    20    9   27 1
    21   10   11 2
    22   12   18 1
    23   12   13 2
    24   13   14 1
    25   14   15 am
    26   14   28 1
    27   15   16 2
    28   15   17 1
    29   17   18 1
    30   18   29 1
    31   18   30 1
    32   19   20 1
    33   20   31 1
    34   20   32 1
    35   20   33 1
@<TRIPOS>MOLECULE
ZINC00004689
   33    34     0     0     0
SMALL
USER_CHARGES
2-[4-(4-methyl-6-oxo-4,5-dihydro-1H-pyridazin-3-yl)phenyl]aminoiminopropanedinitrile
@<TRIPOS>ATOM
      1 C1         -2.8184    1.8028   -2.3065 C.3       1 <0>        -0.1512
      2 C2         -3.5220    1.2790   -1.0529 C.3       1 <0>        -0.0868
      3 H1         -4.0455    2.0991   -0.5614 H         1 <0>         0.1044
      4 C3         -4.5290    0.1974   -1.4498 C.3       1 <0>        -0.1399
      5 C4         -4.9848   -0.5328   -0.2108 C.2       1 <0>         0.4946
      6 O1         -6.1296   -0.9234   -0.1194 O.2       1 <0>        -0.5188
      7 N1         -4.1136   -0.7482    0.7933 N.am      1 <0>        -0.5624
      8 N2         -2.8178   -0.2291    0.7309 N.2       1 <0>        -0.2403
      9 C5         -2.5006    0.6999   -0.1101 C.2       1 <0>         0.1583
     10 C6         -1.1138    1.1968   -0.1511 C.ar      1 <0>        -0.0551
     11 C7         -0.0465    0.3091    0.0134 C.ar      1 <0>        -0.0473
     12 C8          1.2483    0.7757   -0.0315 C.ar      1 <0>        -0.1456
     13 C9          1.4948    2.1303   -0.2351 C.ar      1 <0>         0.1694
     14 C10         0.4344    3.0178   -0.3931 C.ar      1 <0>        -0.1290
     15 C11        -0.8628    2.5578   -0.3487 C.ar      1 <0>        -0.0597
     16 N3          2.8058    2.5988   -0.2805 N.pl3     1 <0>        -0.4724
     17 N4          3.0359    3.8540   -0.4692 N.2       1 <0>        -0.0939
     18 C12         4.2747    4.2968   -0.5121 C.2       1 <0>         0.1548
     19 C13         5.3669    3.3852   -0.3493 C.1       1 <0>         0.2171
     20 N5          6.2334    2.6620   -0.2202 N.1       1 <0>        -0.3563
     21 C14         4.5301    5.6902   -0.7215 C.1       1 <0>         0.2845
     22 N6          4.7328    6.7956   -0.8876 N.1       1 <0>        -0.3631
     23 H2         -2.1735    1.0240   -2.7134 H         1 <0>         0.0654
     24 H3         -3.5635    2.0833   -3.0510 H         1 <0>         0.0689
     25 H4         -2.2170    2.6744   -2.0482 H         1 <0>         0.0767
     26 H5         -5.3876    0.6599   -1.9366 H         1 <0>         0.1175
     27 H6         -4.0567   -0.5061   -2.1355 H         1 <0>         0.1088
     28 H7         -4.3871   -1.2703    1.5637 H         1 <0>         0.4330
     29 H8         -0.2371   -0.7422    0.1712 H         1 <0>         0.1401
     30 H9          2.0734    0.0897    0.0910 H         1 <0>         0.1368
     31 H10         0.6291    4.0684   -0.5502 H         1 <0>         0.1487
     32 H11        -1.6852    3.2470   -0.4713 H         1 <0>         0.1426
     33 H12         3.5456    1.9813   -0.1703 H         1 <0>         0.4002
@<TRIPOS>BOND
     1    1    2 1
     2    1   23 1
     3    1   24 1
     4    1   25 1
     5    2    3 1
     6    2    9 1
     7    2    4 1
     8    4    5 1
     9    4   26 1
    10    4   27 1
    11    5    6 2
    12    5    7 am
    13    7    8 1
    14    7   28 1
    15    8    9 2
    16    9   10 1
    17   10   15 ar
    18   10   11 ar
    19   11   12 ar
    20   11   29 1
    21   12   13 ar
    22   12   30 1
    23   13   14 ar
    24   13   16 1
    25   14   15 ar
    26   14   31 1
    27   15   32 1
    28   16   17 1
    29   16   33 1
    30   17   18 2
    31   18   19 1
    32   18   21 1
    33   19   20 3
    34   21   22 3
@<TRIPOS>MOLECULE
ZINC03915645
   33    34     0     0     0
SMALL
USER_CHARGES
2-[4-(4-methyl-6-oxo-4,5-dihydro-1H-pyridazin-3-yl)phenyl]aminoiminopropanedinitrile
@<TRIPOS>ATOM
      1 C1         -5.0188    5.7186    1.5061 C.3       1 <0>        -0.1472
      2 C2         -4.9371    5.2241    0.0605 C.3       1 <0>        -0.0900
      3 H1         -4.0200    5.5945   -0.3975 H         1 <0>         0.1126
      4 C3         -6.1457    5.7402   -0.7292 C.3       1 <0>        -0.1424
      5 C4         -7.3772    4.9859   -0.2928 C.2       1 <0>         0.4966
      6 O1         -8.4489    5.5510   -0.2315 O.2       1 <0>        -0.5195
      7 N1         -7.2800    3.6819    0.0288 N.am      1 <0>        -0.5606
      8 N2         -6.0358    3.0458    0.0464 N.2       1 <0>        -0.2438
      9 C5         -4.9319    3.7184    0.0456 C.2       1 <0>         0.1596
     10 C6         -3.6458    2.9990    0.0361 C.ar      1 <0>        -0.0612
     11 C7         -3.6250    1.6012    0.0279 C.ar      1 <0>        -0.0445
     12 C8         -2.4215    0.9320    0.0186 C.ar      1 <0>        -0.1472
     13 C9         -1.2267    1.6458    0.0168 C.ar      1 <0>         0.1713
     14 C10        -1.2437    3.0374    0.0303 C.ar      1 <0>        -0.1290
     15 C11        -2.4438    3.7128    0.0347 C.ar      1 <0>        -0.0612
     16 N3         -0.0111    0.9658    0.0074 N.pl3     1 <0>        -0.4726
     17 N4          1.0972    1.6260    0.0003 N.2       1 <0>        -0.0943
     18 C12         2.2458    0.9834   -0.0141 C.2       1 <0>         0.1557
     19 C13         2.2652   -0.4484   -0.0220 C.1       1 <0>         0.2169
     20 N5          2.2807   -1.5843   -0.0282 N.1       1 <0>        -0.3559
     21 C14         3.4761    1.7162   -0.0219 C.1       1 <0>         0.2843
     22 N6          4.4521    2.2976   -0.0281 N.1       1 <0>        -0.3628
     23 H2         -4.1574    5.3524    2.0646 H         1 <0>         0.0721
     24 H3         -5.0226    6.8086    1.5176 H         1 <0>         0.0749
     25 H4         -5.9346    5.3472    1.9660 H         1 <0>         0.0547
     26 H5         -5.9821    5.5846   -1.7956 H         1 <0>         0.1088
     27 H6         -6.2812    6.8038   -0.5328 H         1 <0>         0.1178
     28 H7         -8.0800    3.1801    0.2504 H         1 <0>         0.4326
     29 H8         -4.5518    1.0467    0.0286 H         1 <0>         0.1460
     30 H9         -2.4048   -0.1478    0.0123 H         1 <0>         0.1371
     31 H10        -0.3148    3.5883    0.0334 H         1 <0>         0.1488
     32 H11        -2.4563    4.7927    0.0407 H         1 <0>         0.1420
     33 H12         0.0021   -0.0041    0.0020 H         1 <0>         0.4004
@<TRIPOS>BOND
     1    1    2 1
     2    1   23 1
     3    1   24 1
     4    1   25 1
     5    2    3 1
     6    2    9 1
     7    2    4 1
     8    4    5 1
     9    4   26 1
    10    4   27 1
    11    5    6 2
    12    5    7 am
    13    7    8 1
    14    7   28 1
    15    8    9 2
    16    9   10 1
    17   10   15 ar
    18   10   11 ar
    19   11   12 ar
    20   11   29 1
    21   12   13 ar
    22   12   30 1
    23   13   14 ar
    24   13   16 1
    25   14   15 ar
    26   14   31 1
    27   15   32 1
    28   16   17 1
    29   16   33 1
    30   17   18 2
    31   18   19 1
    32   18   21 1
    33   19   20 3
    34   21   22 3
@<TRIPOS>MOLECULE
ZINC09230249
   29    30     0     0     0
SMALL
USER_CHARGES

@<TRIPOS>ATOM
      1 C1         -0.0173    1.4248    0.0099 C.3       1 <0>         0.0236
      2 O1          0.0021   -0.0041    0.0020 O.3       1 <0>        -0.3040
      3 C2         -1.2011   -0.6379    0.0101 C.ar      1 <0>         0.1175
      4 C3         -2.3714    0.0993    0.0195 C.ar      1 <0>        -0.1445
      5 C4         -3.6031   -0.5532    0.0272 C.ar      1 <0>        -0.0191
      6 C5         -3.6514   -1.9463    0.0256 C.ar      1 <0>        -0.0954
      7 C6         -2.4813   -2.6777    0.0162 C.ar      1 <0>        -0.1520
      8 C7         -1.2554   -2.0294    0.0031 C.ar      1 <0>         0.0894
      9 O2         -0.1049   -2.7535   -0.0117 O.3       1 <0>        -0.3072
     10 C8         -0.2340   -4.1767   -0.0181 C.3       1 <0>         0.4100
     11 F1         -0.9220   -4.5877    1.1286 F         1 <0>        -0.1977
     12 F2         -0.9438   -4.5754   -1.1558 F         1 <0>        -0.1976
     13 C9         -4.8604    0.2335    0.0378 C.2       1 <0>         0.1091
     14 C10        -6.1084   -0.4326    0.0457 C.2       1 <0>        -0.0608
     15 C11        -7.2432    0.3233    0.0552 C.2       1 <0>        -0.1772
     16 C12        -7.1016    1.7287    0.0567 C.2       1 <0>         0.4770
     17 N1         -5.8696    2.2712    0.0487 N.am      1 <0>        -0.4422
     18 N2         -4.8109    1.5448    0.0452 N.2       1 <0>        -0.2145
     19 O3         -8.0890    2.4461    0.0648 O.2       1 <0>        -0.5275
     20 H1          1.0053    1.8021    0.0021 H         1 <0>         0.1046
     21 H2         -0.5445    1.7859   -0.8732 H         1 <0>         0.0586
     22 H3         -0.5275    1.7763    0.9067 H         1 <0>         0.0586
     23 H4         -2.3310    1.1786    0.0211 H         1 <0>         0.1510
     24 H5         -4.6049   -2.4534    0.0320 H         1 <0>         0.1391
     25 H6         -2.5204   -3.7570    0.0153 H         1 <0>         0.1473
     26 H7          0.7566   -4.6313   -0.0300 H         1 <0>         0.1846
     27 H8         -6.1609   -1.5113    0.0438 H         1 <0>         0.1580
     28 H9         -8.2197   -0.1381    0.0612 H         1 <0>         0.1689
     29 H10        -5.7792    3.2370    0.0498 H         1 <0>         0.4424
@<TRIPOS>BOND
     1    1    2 1
     2    1   20 1
     3    1   21 1
     4    1   22 1
     5    2    3 1
     6    3    8 ar
     7    3    4 ar
     8    4    5 ar
     9    4   23 1
    10    5    6 ar
    11    5   13 1
    12    6    7 ar
    13    6   24 1
    14    7    8 ar
    15    7   25 1
    16    8    9 1
    17    9   10 1
    18   10   11 1
    19   10   12 1
    20   10   26 1
    21   13   14 1
    22   13   18 2
    23   14   15 2
    24   14   27 1
    25   15   16 1
    26   15   28 1
    27   16   19 2
    28   16   17 am
    29   17   18 1
    30   17   29 1
@<TRIPOS>MOLECULE
ZINC03794726
   53    56     0     0     0
SMALL
USER_CHARGES
5-[1-(3,4-dimethoxybenzoyl)-3,4-dihydro-2H-quinolin-6-yl]-6-methyl-3,6-dihydro-1,3,4-thiadiazin-2-one
@<TRIPOS>ATOM
      1 C1         -2.3013   -3.6697   -1.2188 C.3       1 <0>        -0.1417
      2 C2         -2.2574   -3.1643    0.2247 C.3       1 <0>        -0.0853
      3 H1         -1.4224   -2.4738    0.3433 H         1 <0>         0.1485
      4 C3         -3.5438   -2.4565    0.5479 C.2       1 <0>         0.1906
      5 N1         -4.6075   -3.0739    0.9151 N.2       1 <0>        -0.2575
      6 N2         -4.7250   -4.4514    1.0480 N.am      1 <0>        -0.5433
      7 C4         -3.6683   -5.2558    1.2541 C.2       1 <0>         0.4981
      8 O1         -3.8294   -6.4555    1.3735 O.2       1 <0>        -0.4763
      9 S1         -2.0472   -4.5678    1.3507 S.3       1 <0>        -0.1037
     10 C5         -3.5835   -0.9865    0.4443 C.ar      1 <0>        -0.0760
     11 C6         -2.4423   -0.2804    0.0533 C.ar      1 <0>        -0.0699
     12 C7         -2.4869    1.0923   -0.0397 C.ar      1 <0>        -0.1594
     13 C8         -3.6630    1.7777    0.2543 C.ar      1 <0>         0.1797
     14 C9         -4.8002    1.0820    0.6407 C.ar      1 <0>        -0.1187
     15 C10        -4.7607   -0.2959    0.7367 C.ar      1 <0>        -0.0480
     16 C11        -6.0884    1.7947    0.9591 C.3       1 <0>        -0.0797
     17 C12        -5.8200    3.2625    1.2903 C.3       1 <0>        -0.1375
     18 C13        -4.9677    3.8754    0.1772 C.3       1 <0>         0.0878
     19 N3         -3.6771    3.1740    0.1545 N.am      1 <0>        -0.5447
     20 C14        -2.5247    3.8641    0.0451 C.2       1 <0>         0.5694
     21 O2         -1.4635    3.2722   -0.0008 O.2       1 <0>        -0.5047
     22 C15        -2.5507    5.3382   -0.0192 C.ar      1 <0>        -0.1346
     23 C16        -3.4831    5.9873   -0.8325 C.ar      1 <0>        -0.0831
     24 C17        -3.5029    7.3636   -0.8951 C.ar      1 <0>        -0.1796
     25 C18        -2.6047    8.1088   -0.1433 C.ar      1 <0>         0.1301
     26 C19        -1.6755    7.4679    0.6747 C.ar      1 <0>         0.0978
     27 C20        -1.6468    6.0882    0.7380 C.ar      1 <0>        -0.1178
     28 O3         -0.7969    8.2008    1.4100 O.3       1 <0>        -0.3020
     29 C21         0.1273    7.4782    2.2259 C.3       1 <0>         0.0225
     30 O4         -2.6317    9.4652   -0.2044 O.3       1 <0>        -0.3000
     31 C22        -3.6096   10.0566   -1.0623 C.3       1 <0>         0.0225
     32 H2         -2.4310   -2.8252   -1.8956 H         1 <0>         0.0839
     33 H3         -1.3684   -4.1827   -1.4526 H         1 <0>         0.0873
     34 H4         -3.1356   -4.3611   -1.3365 H         1 <0>         0.0582
     35 H5         -5.6075   -4.8502    0.9924 H         1 <0>         0.4365
     36 H6         -1.5292   -0.8098   -0.1753 H         1 <0>         0.1332
     37 H7         -1.6064    1.6398   -0.3418 H         1 <0>         0.1828
     38 H8         -5.6434   -0.8401    1.0386 H         1 <0>         0.1401
     39 H9         -6.7550    1.7356    0.0987 H         1 <0>         0.0821
     40 H10        -6.5627    1.3161    1.8158 H         1 <0>         0.0850
     41 H11        -6.7659    3.7991    1.3646 H         1 <0>         0.0907
     42 H12        -5.2857    3.3313    2.2379 H         1 <0>         0.0749
     43 H13        -4.8084    4.9352    0.3761 H         1 <0>         0.1061
     44 H14        -5.4724    3.7507   -0.7808 H         1 <0>         0.0834
     45 H15        -4.1859    5.4101   -1.4151 H         1 <0>         0.1373
     46 H16        -4.2218    7.8638   -1.5271 H         1 <0>         0.1456
     47 H17        -0.9277    5.5904    1.3716 H         1 <0>         0.1459
     48 H18         0.7395    6.8321    1.5967 H         1 <0>         0.0590
     49 H19         0.7686    8.1808    2.7580 H         1 <0>         0.1053
     50 H20        -0.4214    6.8705    2.9455 H         1 <0>         0.0567
     51 H21        -3.5228   11.1422   -1.0180 H         1 <0>         0.1049
     52 H22        -3.4457    9.7204   -2.0861 H         1 <0>         0.0589
     53 H23        -4.6062    9.7582   -0.7371 H         1 <0>         0.0589
@<TRIPOS>BOND
     1    1    2 1
     2    1   32 1
     3    1   33 1
     4    1   34 1
     5    2    3 1
     6    2    9 1
     7    2    4 1
     8    4    5 2
     9    4   10 1
    10    5    6 1
    11    6    7 am
    12    6   35 1
    13    7    8 2
    14    7    9 1
    15   10   15 ar
    16   10   11 ar
    17   11   12 ar
    18   11   36 1
    19   12   13 ar
    20   12   37 1
    21   13   19 1
    22   13   14 ar
    23   14   15 ar
    24   14   16 1
    25   15   38 1
    26   16   17 1
    27   16   39 1
    28   16   40 1
    29   17   18 1
    30   17   41 1
    31   17   42 1
    32   18   19 1
    33   18   43 1
    34   18   44 1
    35   19   20 am
    36   20   21 2
    37   20   22 1
    38   22   27 ar
    39   22   23 ar
    40   23   24 ar
    41   23   45 1
    42   24   25 ar
    43   24   46 1
    44   25   26 ar
    45   25   30 1
    46   26   27 ar
    47   26   28 1
    48   27   47 1
    49   28   29 1
    50   29   48 1
    51   29   49 1
    52   29   50 1
    53   30   31 1
    54   31   51 1
    55   31   52 1
    56   31   53 1
@<TRIPOS>MOLECULE
ZINC12504047
   53    56     0     0     0
SMALL
USER_CHARGES
(6R)-5-[1-(3,4-dimethoxybenzoyl)-3,4-dihydro-2H-quinolin-6-yl]-6-methyl-3,6-dihydro-1,3,4-thiadiazin-2-one
@<TRIPOS>ATOM
      1 C1          0.3679    1.0179    0.0382 C.3       1 <0>        -0.1421
      2 C2         -0.3716   -0.3038    0.2554 C.3       1 <0>        -0.0850
      3 H1         -0.0001   -1.0485   -0.4486 H         1 <0>         0.1484
      4 C3         -1.8445   -0.0965    0.0371 C.2       1 <0>         0.1905
      5 N1         -2.6267    0.3657    0.9438 N.2       1 <0>        -0.2572
      6 N2         -2.2340    0.7364    2.2233 N.am      1 <0>        -0.5433
      7 C4         -1.1242    0.2597    2.8128 C.2       1 <0>         0.4981
      8 O1         -0.8320    0.6141    3.9391 O.2       1 <0>        -0.4762
      9 S1         -0.0930   -0.8813    1.9497 S.3       1 <0>        -0.1037
     10 C5         -2.4163   -0.4396   -1.2776 C.ar      1 <0>        -0.0760
     11 C6         -1.5935   -0.9399   -2.2907 C.ar      1 <0>        -0.0691
     12 C7         -2.1354   -1.2610   -3.5147 C.ar      1 <0>        -0.1522
     13 C8         -3.4962   -1.0797   -3.7487 C.ar      1 <0>         0.1821
     14 C9         -4.3182   -0.5813   -2.7475 C.ar      1 <0>        -0.1191
     15 C10        -3.7799   -0.2602   -1.5161 C.ar      1 <0>        -0.0473
     16 C11        -5.7952   -0.3844   -2.9674 C.3       1 <0>        -0.0799
     17 C12        -6.1075   -0.3001   -4.4612 C.3       1 <0>        -0.1378
     18 C13        -5.4738   -1.5050   -5.1687 C.3       1 <0>         0.0812
     19 N3         -4.0171   -1.4058   -5.0066 N.am      1 <0>        -0.5470
     20 C14        -3.1953   -1.6258   -6.0519 C.2       1 <0>         0.5680
     21 O2         -2.0001   -1.4339   -5.9365 O.2       1 <0>        -0.5078
     22 C15        -3.7459   -2.0995   -7.3365 C.ar      1 <0>        -0.1397
     23 C16        -4.9245   -2.8494   -7.3590 C.ar      1 <0>        -0.0906
     24 C17        -5.4402   -3.2865   -8.5597 C.ar      1 <0>        -0.1830
     25 C18        -4.7850   -2.9933   -9.7481 C.ar      1 <0>         0.1336
     26 C19        -3.6058   -2.2500   -9.7324 C.ar      1 <0>         0.0945
     27 C20        -3.0865   -1.8038   -8.5326 C.ar      1 <0>        -0.1119
     28 O3         -2.9668   -1.9637  -10.8983 O.3       1 <0>        -0.3024
     29 C21        -1.7640   -1.1975  -10.8078 C.3       1 <0>         0.0225
     30 O4         -5.2942   -3.4312  -10.9284 O.3       1 <0>        -0.2997
     31 C22        -6.5054   -4.1874  -10.8717 C.3       1 <0>         0.0223
     32 H2          1.4354    0.8678    0.1997 H         1 <0>         0.0874
     33 H3          0.2000    1.3649   -0.9813 H         1 <0>         0.0841
     34 H4         -0.0048    1.7626    0.7415 H         1 <0>         0.0582
     35 H5         -2.7849    1.3669    2.7131 H         1 <0>         0.4365
     36 H6         -0.5373   -1.0779   -2.1125 H         1 <0>         0.1334
     37 H7         -1.5022   -1.6511   -4.2977 H         1 <0>         0.1742
     38 H8         -4.4161    0.1303   -0.7356 H         1 <0>         0.1403
     39 H9         -6.3386   -1.2236   -2.5332 H         1 <0>         0.0820
     40 H10        -6.1114    0.5384   -2.4811 H         1 <0>         0.0851
     41 H11        -5.6938    0.6221   -4.8692 H         1 <0>         0.0755
     42 H12        -7.1871   -0.3154   -4.6100 H         1 <0>         0.0908
     43 H13        -5.7293   -1.4873   -6.2282 H         1 <0>         0.1122
     44 H14        -5.8333   -2.4300   -4.7178 H         1 <0>         0.0850
     45 H15        -5.4338   -3.0828   -6.4357 H         1 <0>         0.1461
     46 H16        -6.3535   -3.8626   -8.5760 H         1 <0>         0.1457
     47 H17        -2.1728   -1.2282   -8.5190 H         1 <0>         0.1488
     48 H18        -1.3571   -1.0406  -11.8067 H         1 <0>         0.1051
     49 H19        -1.9812   -0.2332  -10.3484 H         1 <0>         0.0572
     50 H20        -1.0363   -1.7342  -10.1992 H         1 <0>         0.0590
     51 H21        -6.3468   -5.0829  -10.2709 H         1 <0>         0.0591
     52 H22        -7.2912   -3.5816  -10.4205 H         1 <0>         0.0591
     53 H23        -6.8020   -4.4745  -11.8805 H         1 <0>         0.1051
@<TRIPOS>BOND
     1    1    2 1
     2    1   32 1
     3    1   33 1
     4    1   34 1
     5    2    3 1
     6    2    9 1
     7    2    4 1
     8    4    5 2
     9    4   10 1
    10    5    6 1
    11    6    7 am
    12    6   35 1
    13    7    8 2
    14    7    9 1
    15   10   15 ar
    16   10   11 ar
    17   11   12 ar
    18   11   36 1
    19   12   13 ar
    20   12   37 1
    21   13   19 1
    22   13   14 ar
    23   14   15 ar
    24   14   16 1
    25   15   38 1
    26   16   17 1
    27   16   39 1
    28   16   40 1
    29   17   18 1
    30   17   41 1
    31   17   42 1
    32   18   19 1
    33   18   43 1
    34   18   44 1
    35   19   20 am
    36   20   21 2
    37   20   22 1
    38   22   27 ar
    39   22   23 ar
    40   23   24 ar
    41   23   45 1
    42   24   25 ar
    43   24   46 1
    44   25   26 ar
    45   25   30 1
    46   26   27 ar
    47   26   28 1
    48   27   47 1
    49   28   29 1
    50   29   48 1
    51   29   49 1
    52   29   50 1
    53   30   31 1
    54   31   51 1
    55   31   52 1
    56   31   53 1
@<TRIPOS>MOLECULE
ZINC13587284
   33    34     0     0     0
SMALL
USER_CHARGES
N-[4-[(4R)-4-methyl-6-oxo-4,5-dihydro-1H-pyridazin-3-yl]phenyl]acetamide
@<TRIPOS>ATOM
      1 C1         -5.3348    5.2772    1.7522 C.3       1 <0>        -0.1458
      2 C2         -5.3326    4.7126    0.3302 C.3       1 <0>        -0.0911
      3 H1         -4.5039    5.1457   -0.2300 H         1 <0>         0.1118
      4 C3         -6.6544    5.0610   -0.3642 C.3       1 <0>        -0.1421
      5 C4         -7.7564    4.2140    0.2224 C.2       1 <0>         0.4967
      6 O1         -8.8713    4.6725    0.3589 O.2       1 <0>        -0.5224
      7 N1         -7.4955    2.9463    0.5941 N.am      1 <0>        -0.5612
      8 N2         -6.1954    2.4388    0.5228 N.2       1 <0>        -0.2490
      9 C5         -5.1722    3.2164    0.3854 C.2       1 <0>         0.1655
     10 C6         -3.8240    2.6285    0.2872 C.ar      1 <0>        -0.0687
     11 C7         -3.6586    1.2418    0.3425 C.ar      1 <0>        -0.0547
     12 C8         -2.3971    0.6962    0.2499 C.ar      1 <0>        -0.1510
     13 C9         -1.2892    1.5232    0.1010 C.ar      1 <0>         0.1655
     14 C10        -1.4492    2.9035    0.0508 C.ar      1 <0>        -0.1249
     15 C11        -2.7079    3.4564    0.1379 C.ar      1 <0>        -0.0687
     16 N3         -0.0111    0.9658    0.0074 N.am      1 <0>        -0.6769
     17 C12         0.9266    1.5555   -0.7604 C.2       1 <0>         0.5110
     18 O2          0.6363    2.5159   -1.4419 O.2       1 <0>        -0.5214
     19 C13         2.3358    1.0216   -0.7720 C.3       1 <0>        -0.1733
     20 H2         -4.3932    5.0303    2.2426 H         1 <0>         0.0714
     21 H3         -5.4509    6.3603    1.7129 H         1 <0>         0.0740
     22 H4         -6.1619    4.8433    2.3141 H         1 <0>         0.0545
     23 H5         -6.5720    4.8626   -1.4328 H         1 <0>         0.1082
     24 H6         -6.8816    6.1152   -0.2058 H         1 <0>         0.1170
     25 H7         -8.2157    2.3808    0.9142 H         1 <0>         0.4317
     26 H8         -4.5187    0.5989    0.4575 H         1 <0>         0.1397
     27 H9         -2.2684   -0.3752    0.2926 H         1 <0>         0.1319
     28 H10        -0.5858    3.5427   -0.0608 H         1 <0>         0.1399
     29 H11        -2.8317    4.5284    0.0947 H         1 <0>         0.1350
     30 H12         0.2000    0.1524    0.4917 H         1 <0>         0.4142
     31 H13         2.4321    0.2672   -1.5528 H         1 <0>         0.0990
     32 H14         3.0319    1.8375   -0.9673 H         1 <0>         0.0996
     33 H15         2.5628    0.5741    0.1956 H         1 <0>         0.0847
@<TRIPOS>BOND
     1    1    2 1
     2    1   20 1
     3    1   21 1
     4    1   22 1
     5    2    3 1
     6    2    9 1
     7    2    4 1
     8    4    5 1
     9    4   23 1
    10    4   24 1
    11    5    6 2
    12    5    7 am
    13    7    8 1
    14    7   25 1
    15    8    9 2
    16    9   10 1
    17   10   15 ar
    18   10   11 ar
    19   11   12 ar
    20   11   26 1
    21   12   13 ar
    22   12   27 1
    23   13   14 ar
    24   13   16 1
    25   14   15 ar
    26   14   28 1
    27   15   29 1
    28   16   17 am
    29   16   30 1
    30   17   18 2
    31   17   19 1
    32   19   31 1
    33   19   32 1
    34   19   33 1
@<TRIPOS>MOLECULE
ZINC03872076
   51    53     0     0     0
SMALL
USER_CHARGES

@<TRIPOS>ATOM
      1 C1         -0.0178    1.4608    0.0101 C.3       1 <0>         0.0725
      2 N1          0.0021   -0.0041    0.0020 N.am      1 <0>        -0.6140
      3 C2          0.0241   -0.7433    1.2666 C.3       1 <0>         0.1380
      4 C3          1.2758   -0.3610    2.0591 C.3       1 <0>        -0.1258
      5 C4          1.2989   -1.1331    3.3798 C.3       1 <0>        -0.1181
      6 C5          0.0524   -0.7848    4.1959 C.3       1 <0>        -0.1220
      7 C6         -1.1993   -1.1671    3.4035 C.3       1 <0>        -0.1179
      8 C7         -1.2223   -0.3950    2.0828 C.3       1 <0>        -0.1271
      9 C8          0.0001   -0.6716   -1.1688 C.2       1 <0>         0.5148
     10 O1          0.0165   -1.8843   -1.1755 O.2       1 <0>        -0.5352
     11 C9         -0.0226    0.0888   -2.4697 C.3       1 <0>        -0.1362
     12 C10        -0.0202   -0.8991   -3.6380 C.3       1 <0>        -0.1055
     13 C11        -0.0433   -0.1270   -4.9587 C.3       1 <0>         0.0593
     14 O2         -0.0410   -1.0497   -6.0499 O.3       1 <0>        -0.3097
     15 C12        -0.0601   -0.5234   -7.3034 C.ar      1 <0>         0.1034
     16 C13        -0.0748    0.8591   -7.4744 C.ar      1 <0>        -0.1497
     17 C14        -0.0941    1.4099   -8.7364 C.ar      1 <0>        -0.1216
     18 C15        -0.0992    0.5834   -9.8554 C.ar      1 <0>         0.1483
     19 C16        -0.0844   -0.8138   -9.6872 C.ar      1 <0>        -0.0918
     20 C17        -0.0591   -1.3613   -8.4001 C.ar      1 <0>        -0.0933
     21 C18        -0.0893   -1.6718  -10.8735 C.2       1 <0>        -0.0192
     22 C19        -0.1082   -1.0868  -12.0966 C.2       1 <0>        -0.2069
     23 C20        -0.1225    0.3197  -12.2115 C.2       1 <0>         0.5329
     24 O3         -0.1393    0.8251  -13.3206 O.2       1 <0>        -0.5405
     25 N2         -0.1181    1.1162  -11.1284 N.am      1 <0>        -0.6292
     26 H1         -0.1283    2.0793  -11.2434 H         1 <0>         0.4150
     27 H2          1.0048    1.8381    0.0023 H         1 <0>         0.0586
     28 H3         -0.5450    1.8219   -0.8730 H         1 <0>         0.0732
     29 H4         -0.5280    1.8123    0.9069 H         1 <0>         0.0753
     30 H5          0.0368   -1.8138    1.0616 H         1 <0>         0.1019
     31 H6          2.1638   -0.6091    1.4777 H         1 <0>         0.0647
     32 H7          1.2632    0.7094    2.2641 H         1 <0>         0.0650
     33 H8          1.3115   -2.2035    3.1748 H         1 <0>         0.0652
     34 H9          2.1906   -0.8607    3.9444 H         1 <0>         0.0666
     35 H10         0.0688   -1.3348    5.1369 H         1 <0>         0.0649
     36 H11         0.0398    0.2857    4.4010 H         1 <0>         0.0623
     37 H12        -1.1866   -2.2375    3.1984 H         1 <0>         0.0653
     38 H13        -2.0872   -0.9190    3.9849 H         1 <0>         0.0666
     39 H14        -1.2349    0.6754    2.2878 H         1 <0>         0.0657
     40 H15        -2.1140   -0.6674    1.5182 H         1 <0>         0.0652
     41 H16        -0.9215    0.7036   -2.5156 H         1 <0>         0.0975
     42 H17         0.8582    0.7278   -2.5324 H         1 <0>         0.0973
     43 H18         0.8787   -1.5139   -3.5922 H         1 <0>         0.0837
     44 H19        -0.9010   -1.5381   -3.5753 H         1 <0>         0.0836
     45 H20        -0.9422    0.4877   -5.0046 H         1 <0>         0.0643
     46 H21         0.8376    0.5120   -5.0215 H         1 <0>         0.0643
     47 H22        -0.0713    1.5051   -6.6089 H         1 <0>         0.1380
     48 H23        -0.1058    2.4831   -8.8574 H         1 <0>         0.1381
     49 H24        -0.0432   -2.4328   -8.2655 H         1 <0>         0.1457
     50 H25        -0.0779   -2.7474  -10.7766 H         1 <0>         0.1493
     51 H26        -0.1118   -1.6993  -12.9861 H         1 <0>         0.1571
@<TRIPOS>BOND
     1    1    2 1
     2    1   27 1
     3    1   28 1
     4    1   29 1
     5    2    3 1
     6    2    9 am
     7    3    8 1
     8    3    4 1
     9    3   30 1
    10    4    5 1
    11    4   31 1
    12    4   32 1
    13    5    6 1
    14    5   33 1
    15    5   34 1
    16    6    7 1
    17    6   35 1
    18    6   36 1
    19    7    8 1
    20    7   37 1
    21    7   38 1
    22    8   39 1
    23    8   40 1
    24    9   10 2
    25    9   11 1
    26   11   12 1
    27   11   41 1
    28   11   42 1
    29   12   13 1
    30   12   43 1
    31   12   44 1
    32   13   14 1
    33   13   45 1
    34   13   46 1
    35   14   15 1
    36   15   20 ar
    37   15   16 ar
    38   16   17 ar
    39   16   47 1
    40   17   18 ar
    41   17   48 1
    42   18   25 1
    43   18   19 ar
    44   19   20 ar
    45   19   21 1
    46   20   49 1
    47   21   22 2
    48   21   50 1
    49   22   23 1
    50   22   51 1
    51   23   24 2
    52   23   25 am
    53   25   26 1
@<TRIPOS>MOLECULE
ZINC13544987
   34    36     0     0     0
SMALL
USER_CHARGES

@<TRIPOS>ATOM
      1 C1         -0.0187    1.5258    0.0104 C.3       1 <0>        -0.1288
      2 C2          0.0021   -0.0041    0.0020 C.3       1 <0>        -0.0533
      3 C3          0.7881   -0.5167   -1.1832 C.ar      1 <0>        -0.1372
      4 C4          0.6197   -0.3856   -2.5399 C.ar      1 <0>        -0.0173
      5 C5          1.5304   -0.9873   -3.4144 C.ar      1 <0>        -0.0739
      6 C6          2.6039   -1.7168   -2.8955 C.ar      1 <0>        -0.0529
      7 C7          2.7627   -1.8415   -1.5348 C.ar      1 <0>        -0.1405
      8 C8          1.8544   -1.2415   -0.6610 C.ar      1 <0>         0.1656
      9 N1          1.8079   -1.2293    0.7323 N.am      1 <0>        -0.6602
     10 C9          0.7606   -0.5310    1.2015 C.2       1 <0>         0.5355
     11 O1          0.4763   -0.3552    2.3674 O.2       1 <0>        -0.4892
     12 C10         1.3592   -0.8535   -4.8724 C.2       1 <0>         0.1610
     13 N2          0.3636   -0.1713   -5.3347 N.2       1 <0>        -0.2492
     14 N3          0.1436   -0.0373   -6.7083 N.am      1 <0>        -0.5605
     15 C11         0.7667   -0.8494   -7.5833 C.2       1 <0>         0.4940
     16 O2          0.6312   -0.6789   -8.7768 O.2       1 <0>        -0.5211
     17 C12         1.6345   -1.9721   -7.0711 C.3       1 <0>        -0.1438
     18 C13         2.3507   -1.5090   -5.7968 C.3       1 <0>        -0.1213
     19 C14        -1.4239   -0.5582   -0.0164 C.3       1 <0>        -0.1286
     20 H1          1.0039    1.9031    0.0027 H         1 <0>         0.0617
     21 H2         -0.5459    1.8868   -0.8726 H         1 <0>         0.0760
     22 H3         -0.5289    1.8773    0.9072 H         1 <0>         0.0729
     23 H4         -0.2134    0.1800   -2.9302 H         1 <0>         0.1419
     24 H5          3.3107   -2.1844   -3.5650 H         1 <0>         0.1414
     25 H6          3.5943   -2.4066   -1.1405 H         1 <0>         0.1352
     26 H7          2.4574   -1.6748    1.2985 H         1 <0>         0.4156
     27 H8         -0.4630    0.6460   -7.0339 H         1 <0>         0.4325
     28 H9          1.0138   -2.8403   -6.8493 H         1 <0>         0.1085
     29 H10         2.3738   -2.2353   -7.8276 H         1 <0>         0.1168
     30 H11         3.1327   -0.7949   -6.0551 H         1 <0>         0.1011
     31 H12         2.7967   -2.3699   -5.2988 H         1 <0>         0.1077
     32 H13        -1.9352   -0.2159   -0.9162 H         1 <0>         0.0758
     33 H14        -1.3905   -1.6476   -0.0096 H         1 <0>         0.0615
     34 H15        -1.9621   -0.2057    0.8636 H         1 <0>         0.0731
@<TRIPOS>BOND
     1    1    2 1
     2    1   20 1
     3    1   21 1
     4    1   22 1
     5    2   10 1
     6    2    3 1
     7    2   19 1
     8    3    8 ar
     9    3    4 ar
    10    4    5 ar
    11    4   23 1
    12    5    6 ar
    13    5   12 1
    14    6    7 ar
    15    6   24 1
    16    7    8 ar
    17    7   25 1
    18    8    9 1
    19    9   10 am
    20    9   26 1
    21   10   11 2
    22   12   18 1
    23   12   13 2
    24   13   14 1
    25   14   15 am
    26   14   27 1
    27   15   16 2
    28   15   17 1
    29   17   18 1
    30   17   28 1
    31   17   29 1
    32   18   30 1
    33   18   31 1
    34   19   32 1
    35   19   33 1
    36   19   34 1
@<TRIPOS>MOLECULE
ZINC12402866
   34    37     0     0     0
SMALL
USER_CHARGES
2-amino-9-[(1S,3R,6R,8R,9R)-3,9-dihydroxy-3-oxo-2,4,7-trioxa-3$l^{5}-phosphabicyclo[4.3.0]nonan-8-yl]-3H-purin-6-one
@<TRIPOS>ATOM
      1 C1          1.7207   -2.7761    0.8999 C.2       1 <0>         0.2304
      2 N1          2.9164   -3.2157    0.6298 N.2       1 <0>        -0.4259
      3 C2          3.7702   -2.1679    0.5635 C.2       1 <0>        -0.1179
      4 C3          3.0329   -1.0154    0.8067 C.2       1 <0>         0.2731
      5 N2          1.7505   -1.4178    1.0204 N.pl3     1 <0>        -0.4473
      6 C4          0.6088   -0.5497    1.3191 C.3       1 <0>         0.2693
      7 H1          0.9252    0.2786    1.9531 H         1 <0>         0.1264
      8 C5          0.0021   -0.0041    0.0020 C.3       1 <0>         0.0787
      9 H2          0.5544   -0.3751   -0.8613 H         1 <0>         0.0892
     10 C6         -1.4259   -0.5647    0.0126 C.3       1 <0>         0.0937
     11 H3         -1.4806   -1.5168   -0.5153 H         1 <0>         0.1038
     12 C7         -1.6592   -0.7465    1.5370 C.3       1 <0>        -0.0182
     13 H4         -1.7901    0.2295    2.0044 H         1 <0>         0.1012
     14 O1         -0.4291   -1.3110    1.9838 O.3       1 <0>        -0.3400
     15 C8         -2.9060   -1.5821    1.7497 C.3       1 <0>         0.1132
     16 O2         -4.0252   -0.7850    1.2932 O.3       1 <0>        -0.7159
     17 P1         -3.9810   -0.0738   -0.1655 P.3       1 <0>         2.1402
     18 O3         -4.4373   -1.0234   -1.2050 O.2       1 <0>        -1.0521
     19 O4         -2.4290    0.3507   -0.4377 O.3       1 <0>        -0.6834
     20 O5         -0.0173    1.4248    0.0099 O.3       1 <0>        -0.5149
     21 N3          3.6734    0.1969    0.7879 N.2       1 <0>        -0.5601
     22 H5          6.7143   -0.6856    0.0986 H         1 <0>         0.4323
     23 C9          5.0045    0.2703    0.5261 C.2       1 <0>         0.5901
     24 N4          5.7381   -0.7952    0.2859 N.am      1 <0>        -0.6182
     25 C10         5.2031   -2.0262    0.2871 C.2       1 <0>         0.5898
     26 O6          5.8949   -3.0069    0.0631 O.2       1 <0>        -0.4989
     27 N5          5.6058    1.5004    0.5116 N.pl3     1 <0>        -0.7463
     28 H6          0.8408   -3.3922    1.0114 H         1 <0>         0.2269
     29 H7         -2.8418   -2.5019    1.1684 H         1 <0>         0.0745
     30 H8         -3.0211   -1.8174    2.8077 H         1 <0>         0.1056
     31 H9          0.8606    1.8301    0.0037 H         1 <0>         0.3780
     32 H10         6.3264    1.5273    1.2044 H         1 <0>         0.3729
     33 H11         5.0825    2.2981    0.6866 H         1 <0>         0.3966
     34 O7         -4.9180    1.2355   -0.1678 O.3       1 <0>        -1.0467
@<TRIPOS>BOND
     1    1   28 1
     2    1    5 1
     3    1    2 2
     4    2    3 1
     5    3    4 2
     6    3   25 1
     7    4    5 1
     8    4   21 1
     9    5    6 1
    10    6    7 1
    11    6   14 1
    12    6    8 1
    13    8    9 1
    14    8   10 1
    15    8   20 1
    16   10   11 1
    17   10   19 1
    18   10   12 1
    19   12   13 1
    20   12   14 1
    21   12   15 1
    22   15   16 1
    23   15   29 1
    24   15   30 1
    25   16   17 1
    26   17   18 2
    27   17   19 1
    28   17   34 1
    29   20   31 1
    30   21   23 2
    31   22   24 1
    32   23   24 1
    33   23   27 1
    34   24   25 am
    35   25   26 2
    36   27   33 1
    37   27   32 1
@<TRIPOS>MOLECULE
ZINC05736150
   32    34     0     0     0
SMALL
USER_CHARGES
7-[(4R)-4-methyl-6-oxo-4,5-dihydro-1H-pyridazin-3-yl]-4H-1,4-benzoxazin-3-one
@<TRIPOS>ATOM
      1 C1         -4.2804    1.9356    1.4735 C.3       1 <0>        -0.1481
      2 C2         -3.8042    1.7620    0.0299 C.3       1 <0>        -0.0887
      3 H1         -3.6427    2.7459   -0.4346 H         1 <0>         0.1119
      4 C3         -4.8556    0.9812   -0.7617 C.3       1 <0>        -0.1451
      5 C4         -4.8232   -0.4653   -0.3343 C.2       1 <0>         0.4976
      6 O1         -5.8502   -1.1087   -0.2809 O.2       1 <0>        -0.5240
      7 N1         -3.6477   -1.0382   -0.0130 N.am      1 <0>        -0.5714
      8 N2         -2.4727   -0.2821    0.0073 N.2       1 <0>        -0.2384
      9 C5         -2.4997    1.0100    0.0196 C.2       1 <0>         0.1540
     10 C6         -1.2311    1.7608    0.0174 C.ar      1 <0>        -0.0414
     11 C7         -1.2452    3.1582    0.0305 C.ar      1 <0>        -0.0800
     12 C8         -0.0584    3.8606    0.0231 C.ar      1 <0>        -0.1263
     13 C9          1.1507    3.1806    0.0086 C.ar      1 <0>         0.1174
     14 C10         1.1720    1.7848    0.0005 C.ar      1 <0>         0.0698
     15 C11        -0.0126    1.0758    0.0080 C.ar      1 <0>        -0.0654
     16 O2          2.3667    1.1345   -0.0159 O.3       1 <0>        -0.2993
     17 C12         3.4369    1.7743   -0.7159 C.3       1 <0>         0.0459
     18 C13         3.4976    3.2295   -0.3268 C.2       1 <0>         0.4925
     19 O3          4.5618    3.8112   -0.3101 O.2       1 <0>        -0.5074
     20 N3          2.3626    3.8832    0.0025 N.am      1 <0>        -0.6730
     21 H2         -5.2334    2.4849    1.4817 H         1 <0>         0.0744
     22 H3         -3.5270    2.4998    2.0427 H         1 <0>         0.0718
     23 H4         -4.4231    0.9468    1.9339 H         1 <0>         0.0556
     24 H5         -5.8519    1.4031   -0.5633 H         1 <0>         0.1177
     25 H6         -4.6341    1.0541   -1.8367 H         1 <0>         0.1078
     26 H7         -3.6167   -2.1095    0.2346 H         1 <0>         0.4603
     27 H8         -2.1860    3.6884    0.0420 H         1 <0>         0.1416
     28 H9         -0.0704    4.9405    0.0283 H         1 <0>         0.1411
     29 H10         0.0021   -0.0041    0.0020 H         1 <0>         0.1516
     30 H11         4.3881    1.2867   -0.4563 H         1 <0>         0.1503
     31 H12         3.2668    1.6926   -1.7996 H         1 <0>         0.1031
     32 H13         2.3802    4.9516    0.2635 H         1 <0>         0.4440
@<TRIPOS>BOND
     1    1    2 1
     2    1   21 1
     3    1   22 1
     4    1   23 1
     5    2    3 1
     6    2    9 1
     7    2    4 1
     8    4    5 1
     9    4   24 1
    10    4   25 1
    11    5    6 2
    12    5    7 am
    13    7    8 1
    14    7   26 1
    15    8    9 2
    16    9   10 1
    17   10   15 ar
    18   10   11 ar
    19   11   12 ar
    20   11   27 1
    21   12   13 ar
    22   12   28 1
    23   13   20 1
    24   13   14 ar
    25   14   15 ar
    26   14   16 1
    27   15   29 1
    28   16   17 1
    29   17   18 1
    30   17   30 1
    31   17   31 1
    32   18   19 2
    33   18   20 am
    34   20   32 1
@<TRIPOS>MOLECULE
ZINC05752381
   32    34     0     0     0
SMALL
USER_CHARGES
7-[(4S)-4-methyl-6-oxo-4,5-dihydro-1H-pyridazin-3-yl]-4H-1,4-benzoxazin-3-one
@<TRIPOS>ATOM
      1 C1         -2.2297    4.0877   -1.6415 C.3       1 <0>        -0.1562
      2 C2         -1.3559    3.2046   -0.7485 C.3       1 <0>        -0.0857
      3 H1         -1.8727    3.0010    0.2009 H         1 <0>         0.1036
      4 C3         -1.0588    1.8878   -1.4691 C.3       1 <0>        -0.1423
      5 C4          0.0442    1.1622   -0.7390 C.2       1 <0>         0.4957
      6 O1          0.0339   -0.0487   -0.6663 O.2       1 <0>        -0.5234
      7 N1          1.0372    1.8667   -0.1637 N.am      1 <0>        -0.5735
      8 N2          1.0137    3.2636   -0.1710 N.2       1 <0>        -0.2359
      9 C5         -0.0657    3.9194   -0.4456 C.2       1 <0>         0.1540
     10 C6         -0.0329    5.3930   -0.4631 C.ar      1 <0>        -0.0362
     11 C7          1.0782    6.0620   -0.9836 C.ar      1 <0>        -0.0669
     12 C8          1.1062    7.4405   -1.0056 C.ar      1 <0>        -0.1267
     13 C9          0.0361    8.1648   -0.5009 C.ar      1 <0>         0.1168
     14 C10        -1.0743    7.5030    0.0265 C.ar      1 <0>         0.0707
     15 C11        -1.1108    6.1231    0.0461 C.ar      1 <0>        -0.0781
     16 O2         -2.1140    8.2291    0.5186 O.3       1 <0>        -0.2997
     17 C12        -1.7911    9.4807    1.1299 C.3       1 <0>         0.0463
     18 C13        -0.8300   10.2402    0.2512 C.2       1 <0>         0.4923
     19 O3         -0.8514   11.4528    0.2315 O.2       1 <0>        -0.5076
     20 N3          0.0546    9.5654   -0.5144 N.am      1 <0>        -0.6731
     21 H2         -3.1724    3.5660   -1.8631 H         1 <0>         0.0691
     22 H3         -1.6980    4.2991   -2.5809 H         1 <0>         0.0652
     23 H4         -2.4469    5.0329   -1.1224 H         1 <0>         0.0798
     24 H5         -1.9652    1.2647   -1.4828 H         1 <0>         0.1173
     25 H6         -0.7427    2.0980   -2.5015 H         1 <0>         0.1085
     26 H7          1.8717    1.3332    0.3148 H         1 <0>         0.4602
     27 H8          1.9138    5.4990   -1.3725 H         1 <0>         0.1395
     28 H9          1.9635    7.9566   -1.4119 H         1 <0>         0.1399
     29 H10        -1.9693    5.6094    0.4531 H         1 <0>         0.1487
     30 H11        -2.7094   10.0715    1.2629 H         1 <0>         0.1504
     31 H12        -1.3257    9.3007    2.1102 H         1 <0>         0.1032
     32 H13         0.7826   10.0998   -1.1425 H         1 <0>         0.4442
@<TRIPOS>BOND
     1    1    2 1
     2    1   21 1
     3    1   22 1
     4    1   23 1
     5    2    3 1
     6    2    9 1
     7    2    4 1
     8    4    5 1
     9    4   24 1
    10    4   25 1
    11    5    6 2
    12    5    7 am
    13    7    8 1
    14    7   26 1
    15    8    9 2
    16    9   10 1
    17   10   15 ar
    18   10   11 ar
    19   11   12 ar
    20   11   27 1
    21   12   13 ar
    22   12   28 1
    23   13   20 1
    24   13   14 ar
    25   14   15 ar
    26   14   16 1
    27   15   29 1
    28   16   17 1
    29   17   18 1
    30   17   30 1
    31   17   31 1
    32   18   19 2
    33   18   20 am
    34   20   32 1
@<TRIPOS>MOLECULE
ZINC00001965
   27    28     0     0     0
SMALL
USER_CHARGES

@<TRIPOS>ATOM
      1 C1         -0.3805    1.3893    0.3980 C.3       1 <0>        -0.1464
      2 C2         -0.0361   -0.0584    0.0422 C.3       1 <0>        -0.0756
      3 C3         -1.3005   -0.8764   -0.0134 C.2       1 <0>         0.1486
      4 C4         -2.0437   -1.1239   -1.1204 C.2       1 <0>        -0.0821
      5 N1         -3.1225   -1.9189   -0.7238 N.am      1 <0>        -0.6281
      6 C5         -3.0071   -2.1314    0.6018 C.2       1 <0>         0.6593
      7 N2         -1.8995   -1.5063    1.0425 N.am      1 <0>        -0.6190
      8 H1         -1.5801   -1.5013    1.9585 H         1 <0>         0.4391
      9 O1         -3.7738   -2.7840    1.2857 O.2       1 <0>        -0.5548
     10 C6         -1.7680   -0.6473   -2.4762 C.2       1 <0>         0.4724
     11 O2         -0.7321   -0.0543   -2.7140 O.2       1 <0>        -0.4305
     12 C7         -2.7499   -0.8866   -3.5595 C.ar      1 <0>        -0.1081
     13 C8         -4.0916   -1.1531   -3.2676 C.ar      1 <0>        -0.1499
     14 C9         -4.9729   -1.3703   -4.3085 C.ar      1 <0>         0.1026
     15 N3         -4.5643   -1.3289   -5.5613 N.ar      1 <0>        -0.4641
     16 C10        -3.3093   -1.0812   -5.8802 C.ar      1 <0>         0.1025
     17 C11        -2.3622   -0.8466   -4.9028 C.ar      1 <0>        -0.1169
     18 H2          0.5341    1.9809    0.4382 H         1 <0>         0.0721
     19 H3         -1.0466    1.8011   -0.3600 H         1 <0>         0.0610
     20 H4         -0.8742    1.4170    1.3694 H         1 <0>         0.0560
     21 H5          0.4576   -0.0862   -0.9292 H         1 <0>         0.1147
     22 H6          0.6301   -0.4703    0.8002 H         1 <0>         0.0872
     23 H7         -4.4331   -1.1888   -2.2436 H         1 <0>         0.1404
     24 H8         -6.0108   -1.5772   -4.0932 H         1 <0>         0.1664
     25 H9         -3.0188   -1.0572   -6.9201 H         1 <0>         0.1674
     26 H10        -1.3368   -0.6398   -5.1714 H         1 <0>         0.1500
     27 H11        -3.8270   -2.2566   -1.2988 H         1 <0>         0.4357
@<TRIPOS>BOND
     1    1    2 1
     2    1   18 1
     3    1   19 1
     4    1   20 1
     5    2    3 1
     6    2   21 1
     7    2   22 1
     8    3    7 1
     9    3    4 2
    10    4    5 1
    11    4   10 1
    12    5    6 am
    13    5   27 1
    14    6    7 am
    15    6    9 2
    16    7    8 1
    17   10   11 2
    18   10   12 1
    19   12   17 ar
    20   12   13 ar
    21   13   14 ar
    22   13   23 1
    23   14   15 ar
    24   14   24 1
    25   15   16 ar
    26   16   17 ar
    27   16   25 1
    28   17   26 1
@<TRIPOS>MOLECULE
ZINC13450004
   29    31     0     0     0
SMALL
USER_CHARGES
6-(3-pyridyl)-3,4-dihydro-1H-quinolin-2-one
@<TRIPOS>ATOM
      1 C1          2.2373    9.6399   -0.2440 C.ar      1 <0>        -0.1664
      2 C2          2.2872    8.2570   -0.2861 C.ar      1 <0>        -0.0708
      3 C3          1.1518    7.5406    0.1020 C.ar      1 <0>        -0.0918
      4 C4          0.0186    8.2425    0.5088 C.ar      1 <0>         0.1067
      5 N1          0.0202    9.5593    0.5377 N.ar      1 <0>        -0.4802
      6 C5          1.0765   10.2623    0.1768 C.ar      1 <0>         0.0962
      7 C6          1.1508    6.0574    0.0756 C.ar      1 <0>        -0.0641
      8 C7          2.2880    5.3656   -0.3391 C.ar      1 <0>        -0.0767
      9 C8          2.2848    3.9874   -0.3633 C.ar      1 <0>        -0.1464
     10 C9          1.1489    3.2868    0.0254 C.ar      1 <0>         0.1651
     11 C10         0.0142    3.9747    0.4392 C.ar      1 <0>        -0.1188
     12 C11         0.0127    5.3530    0.4649 C.ar      1 <0>        -0.0708
     13 C12        -1.2140    3.2099    0.8600 C.3       1 <0>        -0.0787
     14 C13        -1.3327    1.9345    0.0189 C.3       1 <0>        -0.1392
     15 C14        -0.0144    1.2087    0.0087 C.2       1 <0>         0.5204
     16 O1          0.0021   -0.0041    0.0020 O.2       1 <0>        -0.5232
     17 N2          1.1461    1.8893    0.0013 N.am      1 <0>        -0.6641
     18 H1          3.0956   10.2262   -0.5370 H         1 <0>         0.1386
     19 H2          3.1811    7.7448   -0.6104 H         1 <0>         0.1372
     20 H3         -0.8673    7.7017    0.8072 H         1 <0>         0.1574
     21 H4          1.0341   11.3410    0.2109 H         1 <0>         0.1578
     22 H5          3.1709    5.9092   -0.6412 H         1 <0>         0.1321
     23 H6          3.1656    3.4514   -0.6845 H         1 <0>         0.1332
     24 H7         -0.8696    5.8866    0.7860 H         1 <0>         0.1349
     25 H8         -1.1347    2.9475    1.9150 H         1 <0>         0.0866
     26 H9         -2.0979    3.8287    0.7052 H         1 <0>         0.0949
     27 H10        -1.6109    2.1944   -1.0024 H         1 <0>         0.1060
     28 H11        -2.0985    1.2882    0.4480 H         1 <0>         0.1119
     29 H12         1.9872    1.4066   -0.0207 H         1 <0>         0.4123
@<TRIPOS>BOND
     1    1    6 ar
     2    1    2 ar
     3    1   18 1
     4    2    3 ar
     5    2   19 1
     6    3    4 ar
     7    3    7 1
     8    4    5 ar
     9    4   20 1
    10    5    6 ar
    11    6   21 1
    12    7   12 ar
    13    7    8 ar
    14    8    9 ar
    15    8   22 1
    16    9   10 ar
    17    9   23 1
    18   10   17 1
    19   10   11 ar
    20   11   12 ar
    21   11   13 1
    22   12   24 1
    23   13   14 1
    24   13   25 1
    25   13   26 1
    26   14   15 1
    27   14   27 1
    28   14   28 1
    29   15   16 2
    30   15   17 am
    31   17   29 1
@<TRIPOS>MOLECULE
ZINC26259661
   23    25     0     0     0
SMALL
USER_CHARGES

@<TRIPOS>ATOM
      1 C1         -0.0167    1.3790    0.0096 C.ar      1 <0>        -0.0467
      2 C2          1.1695    2.0884    0.0021 C.ar      1 <0>        -0.1337
      3 C3          2.3778    1.4094   -0.0117 C.ar      1 <0>         0.1863
      4 C4          2.3944    0.0179   -0.0125 C.ar      1 <0>        -0.1420
      5 C5          1.2076   -0.6843   -0.0099 C.ar      1 <0>        -0.0398
      6 C6          0.0021   -0.0041    0.0020 C.ar      1 <0>        -0.1188
      7 I1         -1.7998   -1.0728    0.0093 I         1 <0>        -0.0267
      8 C7          3.7159   -0.7211   -0.0034 C.3       1 <0>         0.1841
      9 N1          4.6951    0.1220   -0.6901 N.pl3     1 <0>        -0.6267
     10 C8          5.8726   -0.2378   -1.4728 C.3       1 <0>         0.0191
     11 C9          6.4442    1.1129   -1.8700 C.2       1 <0>         0.5138
     12 O1          7.4433    1.3178   -2.5312 O.2       1 <0>        -0.4671
     13 N2          5.6279    2.0278   -1.3464 N.2       1 <0>        -0.6356
     14 C10         4.6329    1.4954   -0.6836 C.2       1 <0>         0.6611
     15 N3          3.5917    2.1234   -0.0337 N.pl3     1 <0>        -0.6393
     16 H1         -0.9596    1.9053    0.0260 H         1 <0>         0.1416
     17 H2          1.1549    3.1683    0.0067 H         1 <0>         0.1455
     18 H3          1.2187   -1.7642   -0.0176 H         1 <0>         0.1417
     19 H4          4.0346   -0.8972    1.0239 H         1 <0>         0.0937
     20 H5          3.6125   -1.6710   -0.5280 H         1 <0>         0.1038
     21 H6          6.5851   -0.7939   -0.8638 H         1 <0>         0.1234
     22 H7          5.5884   -0.8108   -2.3555 H         1 <0>         0.1191
     23 H8          3.6883    2.9958    0.3792 H         1 <0>         0.4431
@<TRIPOS>BOND
     1    1    6 ar
     2    1    2 ar
     3    1   16 1
     4    2    3 ar
     5    2   17 1
     6    3   15 1
     7    3    4 ar
     8    4    5 ar
     9    4    8 1
    10    5    6 ar
    11    5   18 1
    12    6    7 1
    13    8    9 1
    14    8   19 1
    15    8   20 1
    16    9   14 1
    17    9   10 1
    18   10   11 1
    19   10   21 1
    20   10   22 1
    21   11   12 2
    22   11   13 1
    23   13   14 2
    24   14   15 1
    25   15   23 1
@<TRIPOS>MOLECULE
ZINC05318265
   56    59     0     0     0
SMALL
USER_CHARGES

@<TRIPOS>ATOM
      1 C1         -0.0178    1.4608    0.0101 C.3       1 <0>         0.0723
      2 N1          0.0021   -0.0041    0.0020 N.am      1 <0>        -0.6138
      3 C2          0.0241   -0.7433    1.2666 C.3       1 <0>         0.1380
      4 C3          1.2758   -0.3610    2.0591 C.3       1 <0>        -0.1257
      5 C4          1.2989   -1.1331    3.3798 C.3       1 <0>        -0.1182
      6 C5          0.0524   -0.7848    4.1959 C.3       1 <0>        -0.1220
      7 C6         -1.1993   -1.1671    3.4035 C.3       1 <0>        -0.1179
      8 C7         -1.2223   -0.3950    2.0828 C.3       1 <0>        -0.1271
      9 C8          0.0001   -0.6716   -1.1688 C.2       1 <0>         0.5148
     10 O1          0.0165   -1.8843   -1.1755 O.2       1 <0>        -0.5354
     11 C9         -0.0226    0.0888   -2.4697 C.3       1 <0>        -0.1363
     12 C10        -0.0202   -0.8991   -3.6380 C.3       1 <0>        -0.1056
     13 C11        -0.0433   -0.1270   -4.9587 C.3       1 <0>         0.0591
     14 O2         -0.0410   -1.0497   -6.0499 O.3       1 <0>        -0.3084
     15 C12        -0.0601   -0.5233   -7.3035 C.ar      1 <0>         0.1236
     16 C13        -0.0747    0.8532   -7.4764 C.ar      1 <0>        -0.1742
     17 C14        -0.0987    1.3903   -8.7490 C.ar      1 <0>        -0.0941
     18 C15        -0.1055    0.5510   -9.8523 C.ar      1 <0>         0.1255
     19 C16        -0.0832   -0.8291   -9.6789 C.ar      1 <0>        -0.1022
     20 C17        -0.0591   -1.3637   -8.4076 C.ar      1 <0>        -0.1087
     21 C18        -0.0664   -1.7418  -10.8869 C.3       1 <0>         0.1833
     22 N2         -0.7685   -1.0515  -11.9693 N.pl3     1 <0>        -0.6276
     23 C19        -1.5471   -1.5816  -13.0834 C.3       1 <0>         0.0191
     24 C20        -1.9671   -0.3285  -13.8332 C.2       1 <0>         0.5138
     25 O3         -2.6336   -0.2731  -14.8482 O.2       1 <0>        -0.4717
     26 N3         -1.4573    0.6978  -13.1522 N.2       1 <0>        -0.6400
     27 C21        -0.7841    0.3175  -12.0960 C.2       1 <0>         0.6628
     28 N4         -0.1427    1.0925  -11.1539 N.pl3     1 <0>        -0.6382
     29 H1          1.0048    1.8381    0.0023 H         1 <0>         0.0588
     30 H2         -0.5450    1.8219   -0.8730 H         1 <0>         0.0732
     31 H3         -0.5280    1.8123    0.9069 H         1 <0>         0.0754
     32 H4          0.0368   -1.8138    1.0616 H         1 <0>         0.1019
     33 H5          2.1638   -0.6091    1.4777 H         1 <0>         0.0647
     34 H6          1.2632    0.7094    2.2641 H         1 <0>         0.0651
     35 H7          1.3115   -2.2035    3.1748 H         1 <0>         0.0651
     36 H8          2.1906   -0.8607    3.9444 H         1 <0>         0.0666
     37 H9          0.0688   -1.3348    5.1369 H         1 <0>         0.0650
     38 H10         0.0398    0.2857    4.4010 H         1 <0>         0.0624
     39 H11        -1.1866   -2.2375    3.1984 H         1 <0>         0.0653
     40 H12        -2.0872   -0.9190    3.9849 H         1 <0>         0.0667
     41 H13        -1.2349    0.6754    2.2878 H         1 <0>         0.0657
     42 H14        -2.1140   -0.6674    1.5182 H         1 <0>         0.0652
     43 H15        -0.9215    0.7036   -2.5156 H         1 <0>         0.0977
     44 H16         0.8582    0.7278   -2.5324 H         1 <0>         0.0976
     45 H17         0.8787   -1.5139   -3.5922 H         1 <0>         0.0839
     46 H18        -0.9010   -1.5381   -3.5753 H         1 <0>         0.0837
     47 H19        -0.9422    0.4877   -5.0046 H         1 <0>         0.0654
     48 H20         0.8376    0.5120   -5.0215 H         1 <0>         0.0658
     49 H21        -0.0677    1.5053   -6.6155 H         1 <0>         0.1390
     50 H22        -0.1125    2.4617   -8.8840 H         1 <0>         0.1392
     51 H23        -0.0436   -2.4350   -8.2718 H         1 <0>         0.1445
     52 H24         0.9627   -1.9447  -11.1834 H         1 <0>         0.0934
     53 H25        -0.5759   -2.6763  -10.6519 H         1 <0>         0.1037
     54 H26        -0.9301   -2.2205  -13.7153 H         1 <0>         0.1219
     55 H27        -2.4198   -2.1242  -12.7201 H         1 <0>         0.1176
     56 H28         0.2548    1.9503  -11.3709 H         1 <0>         0.4402
@<TRIPOS>BOND
     1    1    2 1
     2    1   29 1
     3    1   30 1
     4    1   31 1
     5    2    3 1
     6    2    9 am
     7    3    8 1
     8    3    4 1
     9    3   32 1
    10    4    5 1
    11    4   33 1
    12    4   34 1
    13    5    6 1
    14    5   35 1
    15    5   36 1
    16    6    7 1
    17    6   37 1
    18    6   38 1
    19    7    8 1
    20    7   39 1
    21    7   40 1
    22    8   41 1
    23    8   42 1
    24    9   10 2
    25    9   11 1
    26   11   12 1
    27   11   43 1
    28   11   44 1
    29   12   13 1
    30   12   45 1
    31   12   46 1
    32   13   14 1
    33   13   47 1
    34   13   48 1
    35   14   15 1
    36   15   20 ar
    37   15   16 ar
    38   16   17 ar
    39   16   49 1
    40   17   18 ar
    41   17   50 1
    42   18   28 1
    43   18   19 ar
    44   19   20 ar
    45   19   21 1
    46   20   51 1
    47   21   22 1
    48   21   52 1
    49   21   53 1
    50   22   27 1
    51   22   23 1
    52   23   24 1
    53   23   54 1
    54   23   55 1
    55   24   25 2
    56   24   26 1
    57   26   27 2
    58   27   28 1
    59   28   56 1
@<TRIPOS>MOLECULE
ZINC26269276
   24    26     0     0     0
SMALL
USER_CHARGES

@<TRIPOS>ATOM
      1 C1         -0.0167    1.3828    0.0096 C.ar      1 <0>        -0.1079
      2 C2          1.1699    2.0910    0.0021 C.ar      1 <0>        -0.1197
      3 C3          2.3782    1.4123   -0.0106 C.ar      1 <0>         0.1563
      4 C4          2.3969    0.0210   -0.0105 C.ar      1 <0>        -0.1277
      5 C5          1.2120   -0.6843   -0.0087 C.ar      1 <0>        -0.1011
      6 C6          0.0021   -0.0041    0.0020 C.ar      1 <0>         0.0951
      7 O1         -1.1669   -0.6986    0.0055 O.3       1 <0>        -0.4948
      8 C7          3.7193   -0.7163    0.0007 C.3       1 <0>         0.1833
      9 N1          4.6999    0.1281   -0.6823 N.pl3     1 <0>        -0.6276
     10 C8          5.8814   -0.2308   -1.4594 C.3       1 <0>         0.0191
     11 C9          6.4537    1.1205   -1.8539 C.2       1 <0>         0.5137
     12 O2          7.4560    1.3263   -2.5101 O.2       1 <0>        -0.4696
     13 N2          5.6342    2.0346   -1.3345 N.2       1 <0>        -0.6382
     14 C10         4.6364    1.5015   -0.6759 C.2       1 <0>         0.6620
     15 N3          3.5927    2.1291   -0.0307 N.pl3     1 <0>        -0.6393
     16 H1         -0.9594    1.9095    0.0260 H         1 <0>         0.1415
     17 H2          1.1557    3.1709    0.0057 H         1 <0>         0.1415
     18 H3          1.2254   -1.7642   -0.0159 H         1 <0>         0.1420
     19 H4         -1.5105   -0.8947   -0.8769 H         1 <0>         0.3945
     20 H5          4.0356   -0.8935    1.0286 H         1 <0>         0.0923
     21 H6          3.6183   -1.6657   -0.5252 H         1 <0>         0.1025
     22 H7          6.5916   -0.7864   -0.8470 H         1 <0>         0.1224
     23 H8          5.6019   -0.8040   -2.3434 H         1 <0>         0.1180
     24 H9          3.6868    3.0026    0.3804 H         1 <0>         0.4418
@<TRIPOS>BOND
     1    1    6 ar
     2    1    2 ar
     3    1   16 1
     4    2    3 ar
     5    2   17 1
     6    3   15 1
     7    3    4 ar
     8    4    5 ar
     9    4    8 1
    10    5    6 ar
    11    5   18 1
    12    6    7 1
    13    7   19 1
    14    8    9 1
    15    8   20 1
    16    8   21 1
    17    9   14 1
    18    9   10 1
    19   10   11 1
    20   10   22 1
    21   10   23 1
    22   11   12 2
    23   11   13 1
    24   13   14 2
    25   14   15 1
    26   15   24 1
@<TRIPOS>MOLECULE
ZINC03874827
   26    28     0     0     0
SMALL
USER_CHARGES

@<TRIPOS>ATOM
      1 C1         -0.0187    1.5258    0.0104 C.3       1 <0>        -0.1423
      2 C2          0.0021   -0.0041    0.0020 C.3       1 <0>         0.0458
      3 C3          0.8428   -0.5239   -1.1522 C.2       1 <0>         0.5195
      4 O1          0.6409   -0.3529   -2.3385 O.2       1 <0>        -0.4642
      5 N1          1.8467   -1.2055   -0.6000 N.2       1 <0>        -0.6359
      6 C4          1.7937   -1.2110    0.7076 C.2       1 <0>         0.6620
      7 N2          2.6645   -1.7891    1.6069 N.pl3     1 <0>        -0.6380
      8 C5          2.7873   -1.1201    2.8400 C.ar      1 <0>         0.1798
      9 C6          3.9830   -1.1628    3.5408 C.ar      1 <0>        -0.1334
     10 C7          4.0974   -0.4950    4.7451 C.ar      1 <0>        -0.0683
     11 C8          3.0232    0.2145    5.2501 C.ar      1 <0>        -0.1229
     12 C9          1.8266    0.2561    4.5548 C.ar      1 <0>         0.0039
     13 C10         1.7050   -0.4128    3.3532 C.ar      1 <0>        -0.1389
     14 C11         0.3925   -0.3889    2.5987 C.3       1 <0>         0.1804
     15 N3          0.7025   -0.5171    1.1744 N.pl3     1 <0>        -0.6213
     16 Cl1         0.4812    1.1485    5.1928 Cl        1 <0>        -0.0487
     17 H1          1.0039    1.9031    0.0027 H         1 <0>         0.0631
     18 H2         -0.5459    1.8868   -0.8726 H         1 <0>         0.0866
     19 H3         -0.5289    1.8773    0.9072 H         1 <0>         0.0698
     20 H4         -1.0116   -0.4018   -0.0461 H         1 <0>         0.1267
     21 H5          4.8225   -1.7161    3.1464 H         1 <0>         0.1435
     22 H6          5.0275   -0.5274    5.2932 H         1 <0>         0.1460
     23 H7          3.1178    0.7376    6.1902 H         1 <0>         0.1437
     24 H8         -0.2334   -1.2222    2.9180 H         1 <0>         0.0945
     25 H9         -0.1229    0.5539    2.7821 H         1 <0>         0.1049
     26 H10         3.1575   -2.5996    1.4045 H         1 <0>         0.4436
@<TRIPOS>BOND
     1    1    2 1
     2    1   17 1
     3    1   18 1
     4    1   19 1
     5    2   15 1
     6    2    3 1
     7    2   20 1
     8    3    4 2
     9    3    5 1
    10    5    6 2
    11    6   15 1
    12    6    7 1
    13    7    8 1
    14    7   26 1
    15    8   13 ar
    16    8    9 ar
    17    9   10 ar
    18    9   21 1
    19   10   11 ar
    20   10   22 1
    21   11   12 ar
    22   11   23 1
    23   12   13 ar
    24   12   16 1
    25   13   14 1
    26   14   15 1
    27   14   24 1
    28   14   25 1
@<TRIPOS>MOLECULE
ZINC03871541
   23    25     0     0     0
SMALL
USER_CHARGES

@<TRIPOS>ATOM
      1 C1         -0.0167    1.3818    0.0096 C.ar      1 <0>        -0.1208
      2 C2          1.1730    2.0855    0.0021 C.ar      1 <0>        -0.0594
      3 C3          2.3795    1.4087   -0.0118 C.ar      1 <0>        -0.0479
      4 C4          2.4012    0.0230   -0.0121 C.ar      1 <0>         0.0073
      5 C5          1.2161   -0.6839   -0.0024 C.ar      1 <0>        -0.1289
      6 C6          0.0021   -0.0041    0.0020 C.ar      1 <0>         0.1855
      7 N1         -1.2057   -0.7291   -0.0161 N.pl3     1 <0>        -0.6362
      8 C7         -1.1533   -1.9438   -0.6660 C.2       1 <0>         0.6598
      9 N2         -2.0998   -2.5666   -1.3211 N.2       1 <0>        -0.6327
     10 C8         -1.6897   -3.7244   -1.8394 C.2       1 <0>         0.5146
     11 O1         -2.3508   -4.5075   -2.4929 O.2       1 <0>        -0.4650
     12 C9         -0.2284   -3.8667   -1.4477 C.3       1 <0>         0.0192
     13 N3          0.0226   -2.6562   -0.6731 N.pl3     1 <0>        -0.6258
     14 C10         1.2336   -2.1979    0.0095 C.3       1 <0>         0.1818
     15 Cl1         3.9174   -0.8224   -0.0251 Cl        1 <0>        -0.0264
     16 Cl2         3.8705    2.2977   -0.0285 Cl        1 <0>        -0.0339
     17 H1         -0.9584    1.9104    0.0260 H         1 <0>         0.1539
     18 H2          1.1607    3.1654    0.0066 H         1 <0>         0.1565
     19 H3         -2.0170   -0.3970    0.3991 H         1 <0>         0.4456
     20 H4         -0.0785   -4.7550   -0.8341 H         1 <0>         0.1248
     21 H5          0.4069   -3.8967   -2.3329 H         1 <0>         0.1203
     22 H6          2.1154   -2.5622   -0.5175 H         1 <0>         0.1081
     23 H7          1.2396   -2.5600    1.0376 H         1 <0>         0.0994
@<TRIPOS>BOND
     1    1    6 ar
     2    1    2 ar
     3    1   17 1
     4    2    3 ar
     5    2   18 1
     6    3    4 ar
     7    3   16 1
     8    4    5 ar
     9    4   15 1
    10    5   14 1
    11    5    6 ar
    12    6    7 1
    13    7    8 1
    14    7   19 1
    15    8   13 1
    16    8    9 2
    17    9   10 1
    18   10   11 2
    19   10   12 1
    20   12   13 1
    21   12   20 1
    22   12   21 1
    23   13   14 1
    24   14   22 1
    25   14   23 1
@<TRIPOS>MOLECULE
ZINC05424735
   38    41     0     0     0
SMALL
USER_CHARGES

@<TRIPOS>ATOM
      1 C1         -0.0187    1.5258    0.0104 C.3       1 <0>        -0.1535
      2 C2          0.0021   -0.0041    0.0020 C.3       1 <0>        -0.0857
      3 H1          0.5124   -0.3549   -0.8950 H         1 <0>         0.1144
      4 C3         -1.4338   -0.5328    0.0106 C.3       1 <0>        -0.1444
      5 C4         -2.0311   -0.3202    1.3796 C.2       1 <0>         0.4953
      6 O1         -3.2058   -0.0403    1.4958 O.2       1 <0>        -0.4867
      7 N1         -1.2531   -0.4433    2.4718 N.am      1 <0>        -0.5519
      8 N2          0.1183   -0.6793    2.3437 N.2       1 <0>        -0.2017
      9 C5          0.7324   -0.5019    1.2211 C.2       1 <0>         0.1105
     10 C6          2.1745   -0.7921    1.1328 C.ar      1 <0>         0.0490
     11 C7          2.8465   -0.5939   -0.0868 C.ar      1 <0>        -0.0343
     12 C8          4.1736   -0.8481   -0.2134 C.ar      1 <0>        -0.0719
     13 C9          4.9051   -1.3198    0.8893 C.ar      1 <0>         0.0868
     14 N3          6.1767   -1.6585    1.1016 N.pl3     1 <0>        -0.4543
     15 C10         6.3089   -2.0463    2.3688 C.2       1 <0>         0.3471
     16 C11         7.5732   -2.4946    2.9754 C.2       1 <0>         0.2295
     17 C12         7.7524   -2.9135    4.2949 C.2       1 <0>        -0.1743
     18 C13         9.0626   -3.2456    4.4621 C.2       1 <0>         0.2433
     19 N4          9.7128   -3.0483    3.2878 N.pl3     1 <0>        -0.3567
     20 N5          8.7838   -2.5820    2.3477 N.pl3     1 <0>        -0.3914
     21 N6          5.1472   -1.9748    3.0146 N.pl3     1 <0>        -0.4298
     22 C14         4.2161   -1.5309    2.1674 C.ar      1 <0>         0.0906
     23 C15         2.8477   -1.2506    2.2551 C.ar      1 <0>        -0.0543
     24 H2          1.0039    1.9031    0.0027 H         1 <0>         0.0700
     25 H3         -0.5459    1.8868   -0.8726 H         1 <0>         0.0844
     26 H4         -0.5289    1.8773    0.9072 H         1 <0>         0.0600
     27 H5         -2.0242    0.0041   -0.7318 H         1 <0>         0.1281
     28 H6         -1.4316   -1.5971   -0.2246 H         1 <0>         0.1145
     29 H7         -1.6478   -0.3672    3.3546 H         1 <0>         0.4404
     30 H8          2.2942   -0.2319   -0.9413 H         1 <0>         0.1759
     31 H9          4.6667   -0.6882   -1.1609 H         1 <0>         0.1730
     32 H10         6.9846   -2.9648    5.0526 H         1 <0>         0.2208
     33 H11         9.5094   -3.6059    5.3769 H         1 <0>         0.2643
     34 H12        10.6562   -3.2056    3.1261 H         1 <0>         0.4945
     35 H13         8.9671   -2.3598    1.4215 H         1 <0>         0.4817
     36 H14         2.3203   -1.3942    3.1866 H         1 <0>         0.1784
     37 H15         6.8877   -1.6279    0.4425 H         1 <0>         0.4649
     38 H16         5.0017   -2.2064    3.9453 H         1 <0>         0.4737
@<TRIPOS>BOND
     1    1    2 1
     2    1   24 1
     3    1   25 1
     4    1   26 1
     5    2    3 1
     6    2    9 1
     7    2    4 1
     8    4    5 1
     9    4   27 1
    10    4   28 1
    11    5    6 2
    12    5    7 am
    13    7    8 1
    14    7   29 1
    15    8    9 2
    16    9   10 1
    17   10   23 ar
    18   10   11 ar
    19   11   12 ar
    20   11   30 1
    21   12   13 ar
    22   12   31 1
    23   13   22 ar
    24   13   14 2
    25   14   15 1
    26   14   37 1
    27   15   16 2
    28   15   21 1
    29   16   20 1
    30   16   17 1
    31   17   18 2
    32   17   32 1
    33   18   19 1
    34   18   33 1
    35   19   20 1
    36   19   34 1
    37   20   35 1
    38   21   22 2
    39   21   38 1
    40   22   23 ar
    41   23   36 1
@<TRIPOS>MOLECULE
ZINC05424791
   38    41     0     0     0
SMALL
USER_CHARGES

@<TRIPOS>ATOM
      1 C1          1.4133    1.5162    0.0609 C.3       1 <0>        -0.1563
      2 C2          0.7393    0.1508   -0.0890 C.3       1 <0>        -0.0845
      3 H1         -0.3053    0.2906   -0.3672 H         1 <0>         0.1139
      4 C3          1.4531   -0.6526   -1.1782 C.3       1 <0>        -0.1411
      5 C4          1.0027   -2.0907   -1.1077 C.2       1 <0>         0.4935
      6 O1          0.8770   -2.7411   -2.1240 O.2       1 <0>        -0.4873
      7 N1          0.7415   -2.6485    0.0898 N.am      1 <0>        -0.5545
      8 N2          0.7994   -1.8829    1.2575 N.2       1 <0>        -0.2018
      9 C5          0.8144   -0.5913    1.2191 C.2       1 <0>         0.1087
     10 C6          0.9053    0.1687    2.4783 C.ar      1 <0>         0.0540
     11 C7          0.1499    1.3451    2.6323 C.ar      1 <0>        -0.0293
     12 C8          0.2028    2.0762    3.7745 C.ar      1 <0>        -0.0758
     13 C9          1.0257    1.6611    4.8347 C.ar      1 <0>         0.0891
     14 N3          1.3030    2.1291    6.0516 N.pl3     1 <0>        -0.4545
     15 C10         2.1751    1.3091    6.6354 C.2       1 <0>         0.3462
     16 C11         2.7182    1.4984    7.9906 C.2       1 <0>         0.2296
     17 C12         3.6361    0.6672    8.6352 C.2       1 <0>        -0.1746
     18 C13         3.8848    1.1845    9.8703 C.2       1 <0>         0.2433
     19 N4          3.1513    2.3157   10.0220 N.pl3     1 <0>        -0.3567
     20 N5          2.4202    2.5228    8.8443 N.pl3     1 <0>        -0.3914
     21 N6          2.4906    0.2957    5.8322 N.pl3     1 <0>        -0.4292
     22 C14         1.8191    0.4356    4.6871 C.ar      1 <0>         0.0904
     23 C15         1.7300   -0.2908    3.4941 C.ar      1 <0>        -0.0547
     24 H2          2.4132    1.3843    0.4742 H         1 <0>         0.0655
     25 H3          1.4840    1.9956   -0.9155 H         1 <0>         0.0830
     26 H4          0.8228    2.1413    0.7307 H         1 <0>         0.0694
     27 H5          1.2051   -0.2407   -2.1564 H         1 <0>         0.1275
     28 H6          2.5307   -0.6003   -1.0224 H         1 <0>         0.1136
     29 H7          0.5110   -3.5893    0.1423 H         1 <0>         0.4406
     30 H8         -0.4860    1.6740    1.8237 H         1 <0>         0.1769
     31 H9         -0.3867    2.9762    3.8681 H         1 <0>         0.1731
     32 H10         4.0731   -0.2314    8.2253 H         1 <0>         0.2208
     33 H11         4.5544    0.7643   10.6062 H         1 <0>         0.2643
     34 H12         3.1377    2.8841   10.8078 H         1 <0>         0.4946
     35 H13         1.8121    3.2578    8.6684 H         1 <0>         0.4817
     36 H14         2.3012   -1.1981    3.3643 H         1 <0>         0.1735
     37 H15         0.9316    2.9335    6.4464 H         1 <0>         0.4649
     38 H16         3.1056   -0.4240    6.0436 H         1 <0>         0.4736
@<TRIPOS>BOND
     1    1    2 1
     2    1   24 1
     3    1   25 1
     4    1   26 1
     5    2    3 1
     6    2    9 1
     7    2    4 1
     8    4    5 1
     9    4   27 1
    10    4   28 1
    11    5    6 2
    12    5    7 am
    13    7    8 1
    14    7   29 1
    15    8    9 2
    16    9   10 1
    17   10   23 ar
    18   10   11 ar
    19   11   12 ar
    20   11   30 1
    21   12   13 ar
    22   12   31 1
    23   13   22 ar
    24   13   14 2
    25   14   15 1
    26   14   37 1
    27   15   16 2
    28   15   21 1
    29   16   20 1
    30   16   17 1
    31   17   18 2
    32   17   32 1
    33   18   19 1
    34   18   33 1
    35   19   20 1
    36   19   34 1
    37   20   35 1
    38   21   22 2
    39   21   38 1
    40   22   23 ar
    41   23   36 1
