@<TRIPOS>MOLECULE
ZINC08183772
   38    39     0     0     0
SMALL
USER_CHARGES
1-(4-benzyl-1-piperidyl)-2-chloro-propan-1-one
@<TRIPOS>ATOM
      1 C1         -0.7929    1.5095    1.2652 C.3       1 <0>        -0.1494
      2 C2         -0.0248    1.0812    0.0132 C.3       1 <0>        -0.0348
      3 H1          0.0348   -0.0066   -0.0220 H         1 <0>         0.1203
      4 C3         -0.7416    1.5850   -1.2129 C.2       1 <0>         0.5145
      5 O1         -1.1799    2.7156   -1.2374 O.2       1 <0>        -0.5179
      6 N1         -0.8955    0.7793   -2.2822 N.am      1 <0>        -0.6053
      7 C4         -0.4502   -0.6201   -2.2354 C.3       1 <0>         0.0997
      8 C5          0.4794   -0.8862   -3.4181 C.3       1 <0>        -0.1339
      9 C6         -0.2272   -0.4942   -4.7178 C.3       1 <0>        -0.0802
     10 C7         -0.5598    0.9993   -4.6892 C.3       1 <0>        -0.1303
     11 C8         -1.5063    1.2853   -3.5191 C.3       1 <0>         0.1112
     12 C9          0.6908   -0.7894   -5.9057 C.3       1 <0>        -0.0774
     13 C10         0.9193   -2.2755   -6.0068 C.ar      1 <0>        -0.0798
     14 C11         1.9833   -2.8579   -5.3437 C.ar      1 <0>        -0.1180
     15 C12         2.1903   -4.2217   -5.4329 C.ar      1 <0>        -0.1182
     16 C13         1.3391   -5.0018   -6.1931 C.ar      1 <0>        -0.1248
     17 C14         0.2780   -4.4187   -6.8601 C.ar      1 <0>        -0.1175
     18 C15         0.0684   -3.0555   -6.7674 C.ar      1 <0>        -0.1182
     19 Cl1         1.6395    1.7730    0.0632 Cl        1 <0>        -0.1382
     20 H2         -0.8525    2.5973    1.3004 H         1 <0>         0.0820
     21 H3         -1.7990    1.0913    1.2350 H         1 <0>         0.0764
     22 H4         -0.2744    1.1451    2.1520 H         1 <0>         0.0796
     23 H5          0.0850   -0.8022   -1.3035 H         1 <0>         0.0870
     24 H6         -1.3147   -1.2809   -2.2979 H         1 <0>         0.0754
     25 H7          0.7369   -1.9449   -3.4489 H         1 <0>         0.0838
     26 H8          1.3873   -0.2937   -3.3045 H         1 <0>         0.0707
     27 H9         -1.1476   -1.0694   -4.8184 H         1 <0>         0.0757
     28 H10        -1.0420    1.2826   -5.6247 H         1 <0>         0.0796
     29 H11         0.3578    1.5740   -4.5637 H         1 <0>         0.0700
     30 H12        -2.4587    0.7829   -3.6883 H         1 <0>         0.0706
     31 H13        -1.6700    2.3595   -3.4328 H         1 <0>         0.0949
     32 H14         0.2246   -0.4302   -6.8231 H         1 <0>         0.0750
     33 H15         1.6457   -0.2839   -5.7613 H         1 <0>         0.0736
     34 H16         2.6507   -2.2479   -4.7531 H         1 <0>         0.1207
     35 H17         3.0191   -4.6774   -4.9115 H         1 <0>         0.1212
     36 H18         1.5029   -6.0668   -6.2656 H         1 <0>         0.1206
     37 H19        -0.3870   -5.0281   -7.4540 H         1 <0>         0.1210
     38 H20        -0.7604   -2.5999   -7.2888 H         1 <0>         0.1202
@<TRIPOS>BOND
     1    1    2 1
     2    1   20 1
     3    1   21 1
     4    1   22 1
     5    2    3 1
     6    2    4 1
     7    2   19 1
     8    4    5 2
     9    4    6 am
    10    6   11 1
    11    6    7 1
    12    7    8 1
    13    7   23 1
    14    7   24 1
    15    8    9 1
    16    8   25 1
    17    8   26 1
    18    9   10 1
    19    9   12 1
    20    9   27 1
    21   10   11 1
    22   10   28 1
    23   10   29 1
    24   11   30 1
    25   11   31 1
    26   12   13 1
    27   12   32 1
    28   12   33 1
    29   13   18 ar
    30   13   14 ar
    31   14   15 ar
    32   14   34 1
    33   15   16 ar
    34   15   35 1
    35   16   17 ar
    36   16   36 1
    37   17   18 ar
    38   17   37 1
    39   18   38 1
@<TRIPOS>MOLECULE
ZINC08183774
   38    39     0     0     0
SMALL
USER_CHARGES
1-(4-benzyl-1-piperidyl)-2-chloro-propan-1-one
@<TRIPOS>ATOM
      1 C1         -2.7016   -0.6486    2.3553 C.3       1 <0>        -0.1494
      2 C2         -1.3521    0.0143    2.0719 C.3       1 <0>        -0.0349
      3 H1         -1.5102    1.0573    1.7975 H         1 <0>         0.1204
      4 C3         -0.6673   -0.7051    0.9385 C.2       1 <0>         0.5145
      5 O1         -0.6649   -1.9173    0.9031 O.2       1 <0>        -0.5178
      6 N1         -0.0575   -0.0012   -0.0358 N.am      1 <0>        -0.6055
      7 C4         -0.1337    1.4659   -0.0592 C.3       1 <0>         0.0996
      8 C5          1.2877    2.0324   -0.1315 C.3       1 <0>        -0.1335
      9 C6          2.0156    1.4216   -1.3312 C.3       1 <0>        -0.0804
     10 C7          2.1088   -0.0958   -1.1550 C.3       1 <0>        -0.1304
     11 C8          0.6966   -0.6864   -1.0943 C.3       1 <0>         0.1113
     12 C9          3.4243    2.0111   -1.4266 C.3       1 <0>        -0.0774
     13 C10         3.3326    3.4859   -1.7225 C.ar      1 <0>        -0.0798
     14 C11         3.3149    3.9283   -3.0320 C.ar      1 <0>        -0.1182
     15 C12         3.2265    5.2809   -3.3035 C.ar      1 <0>        -0.1175
     16 C13         3.1654    6.1916   -2.2653 C.ar      1 <0>        -0.1248
     17 C14         3.1879    5.7495   -0.9558 C.ar      1 <0>        -0.1182
     18 C15         3.2720    4.3967   -0.6844 C.ar      1 <0>        -0.1180
     19 Cl1        -0.3198   -0.0691    3.5477 Cl        1 <0>        -0.1381
     20 H2         -2.5436   -1.6916    2.6297 H         1 <0>         0.0820
     21 H3         -3.1970   -0.1283    3.1751 H         1 <0>         0.0796
     22 H4         -3.3257   -0.5982    1.4631 H         1 <0>         0.0764
     23 H5         -0.7005    1.7884   -0.9326 H         1 <0>         0.0757
     24 H6         -0.6229    1.8209    0.8479 H         1 <0>         0.0870
     25 H7          1.2424    3.1154   -0.2464 H         1 <0>         0.0835
     26 H8          1.8249    1.7853    0.7842 H         1 <0>         0.0710
     27 H9          1.4646    1.6480   -2.2440 H         1 <0>         0.0756
     28 H10         2.6382   -0.3228   -0.2296 H         1 <0>         0.0700
     29 H11         2.6478   -0.5276   -1.9983 H         1 <0>         0.0796
     30 H12         0.7553   -1.7515   -0.8702 H         1 <0>         0.0949
     31 H13         0.1976   -0.5394   -2.0522 H         1 <0>         0.0707
     32 H14         3.9453    1.8619   -0.4809 H         1 <0>         0.0735
     33 H15         3.9730    1.5135   -2.2262 H         1 <0>         0.0750
     34 H16         3.3668    3.2170   -3.8430 H         1 <0>         0.1202
     35 H17         3.2085    5.6262   -4.3266 H         1 <0>         0.1211
     36 H18         3.0997    7.2485   -2.4774 H         1 <0>         0.1205
     37 H19         3.1402    6.4610   -0.1447 H         1 <0>         0.1212
     38 H20         3.2900    4.0513    0.3388 H         1 <0>         0.1207
@<TRIPOS>BOND
     1    1    2 1
     2    1   20 1
     3    1   21 1
     4    1   22 1
     5    2    3 1
     6    2    4 1
     7    2   19 1
     8    4    5 2
     9    4    6 am
    10    6   11 1
    11    6    7 1
    12    7    8 1
    13    7   23 1
    14    7   24 1
    15    8    9 1
    16    8   25 1
    17    8   26 1
    18    9   10 1
    19    9   12 1
    20    9   27 1
    21   10   11 1
    22   10   28 1
    23   10   29 1
    24   11   30 1
    25   11   31 1
    26   12   13 1
    27   12   32 1
    28   12   33 1
    29   13   18 ar
    30   13   14 ar
    31   14   15 ar
    32   14   34 1
    33   15   16 ar
    34   15   35 1
    35   16   17 ar
    36   16   36 1
    37   17   18 ar
    38   17   37 1
    39   18   38 1
