@<TRIPOS>MOLECULE
ZINC03830713
   56    56     0     0     0
SMALL
USER_CHARGES

@<TRIPOS>ATOM
      1 C1          1.1435    1.5780    0.1841 C.3       1 <0>        -0.1534
      2 C2          1.1566    0.0481    0.1856 C.3       1 <0>        -0.1262
      3 C3          1.6249   -0.4592   -1.1798 C.3       1 <0>        -0.1204
      4 C4          1.6381   -1.9892   -1.1783 C.3       1 <0>        -0.1181
      5 C5          2.1064   -2.4965   -2.5437 C.3       1 <0>        -0.1441
      6 C6          2.1195   -4.0264   -2.5422 C.3       1 <0>         0.1339
      7 H1          1.1360   -4.3979   -2.2545 H         1 <0>         0.1099
      8 C7          2.4618   -4.5271   -3.9218 C.2       1 <0>        -0.1807
      9 C8          3.4668   -5.3505   -4.0891 C.2       1 <0>        -0.1418
     10 C9          3.8091   -5.8513   -5.4686 C.3       1 <0>        -0.0473
     11 H2          3.1330   -5.4234   -6.2088 H         1 <0>         0.0978
     12 C10         5.2816   -5.5181   -5.8190 C.3       1 <0>         0.1132
     13 H3          5.9219   -5.6238   -4.9433 H         1 <0>         0.0737
     14 C11         5.6200   -6.5928   -6.8819 C.3       1 <0>        -0.2190
     15 C12         4.9054   -7.8420   -6.3978 C.2       1 <0>         0.3763
     16 O1          5.1958   -8.9826   -6.6680 O.2       1 <0>        -0.4319
     17 C13         3.7574   -7.3925   -5.5141 C.3       1 <0>        -0.1326
     18 H4          3.8794   -7.7992   -4.5102 H         1 <0>         0.1096
     19 C14         2.4245   -7.8537   -6.1072 C.3       1 <0>        -0.0812
     20 C15         2.3350   -9.3562   -6.0335 C.2       1 <0>        -0.1876
     21 C16         1.2888   -9.9240   -5.4864 C.2       1 <0>        -0.1312
     22 C17         0.1019   -9.0874   -5.0835 C.3       1 <0>        -0.1053
     23 C18        -1.1656   -9.6598   -5.7213 C.3       1 <0>        -0.0865
     24 C19        -2.3706   -8.8104   -5.3122 C.3       1 <0>        -0.1829
     25 C20        -3.6190   -9.3742   -5.9404 C.2       1 <0>         0.4875
     26 O2         -3.5513  -10.3637   -6.6495 O.co2     1 <0>        -0.6993
     27 O3         -4.6968   -8.8408   -5.7395 O.co2     1 <0>        -0.7094
     28 O4          5.3883   -4.2031   -6.3682 O.3       1 <0>        -0.5536
     29 O5          3.0966   -4.4935   -1.6099 O.3       1 <0>        -0.5569
     30 H5          2.1483    1.9498   -0.0165 H         1 <0>         0.0521
     31 H6          0.4630    1.9348   -0.5890 H         1 <0>         0.0533
     32 H7          0.8099    1.9395    1.1568 H         1 <0>         0.0523
     33 H8          1.8372   -0.3087    0.9587 H         1 <0>         0.0602
     34 H9          0.1518   -0.3237    0.3862 H         1 <0>         0.0615
     35 H10         0.9444   -0.1024   -1.9529 H         1 <0>         0.0606
     36 H11         2.6297   -0.0874   -1.3804 H         1 <0>         0.0589
     37 H12         2.3186   -2.3459   -0.4052 H         1 <0>         0.0674
     38 H13         0.6333   -2.3609   -0.9777 H         1 <0>         0.0627
     39 H14         1.4258   -2.1397   -3.3168 H         1 <0>         0.0733
     40 H15         3.1112   -2.1247   -2.7443 H         1 <0>         0.0652
     41 H16         1.8785   -4.2072   -4.7725 H         1 <0>         0.1180
     42 H17         4.0501   -5.6705   -3.2383 H         1 <0>         0.1187
     43 H18         5.2429   -6.2932   -7.8597 H         1 <0>         0.1142
     44 H19         6.6961   -6.7616   -6.9233 H         1 <0>         0.0938
     45 H20         1.6034   -7.4127   -5.5421 H         1 <0>         0.0927
     46 H21         2.3609   -7.5366   -7.1481 H         1 <0>         0.0696
     47 H22         3.1333   -9.9650   -6.4317 H         1 <0>         0.1146
     48 H23         1.2770  -10.9917   -5.3242 H         1 <0>         0.1080
     49 H24         0.0002   -9.0999   -3.9984 H         1 <0>         0.0647
     50 H25         0.2482   -8.0620   -5.4230 H         1 <0>         0.0685
     51 H26        -1.0638   -9.6473   -6.8065 H         1 <0>         0.0585
     52 H27        -1.3118  -10.6852   -5.3819 H         1 <0>         0.0589
     53 H28        -2.4724   -8.8229   -4.2271 H         1 <0>         0.0550
     54 H29        -2.2243   -7.7850   -5.6517 H         1 <0>         0.0541
     55 H30         6.2905   -3.9473   -6.6039 H         1 <0>         0.3797
     56 H31         3.9974   -4.2006   -1.8044 H         1 <0>         0.3713
@<TRIPOS>BOND
     1    1    2 1
     2    1   30 1
     3    1   31 1
     4    1   32 1
     5    2    3 1
     6    2   33 1
     7    2   34 1
     8    3    4 1
     9    3   35 1
    10    3   36 1
    11    4    5 1
    12    4   37 1
    13    4   38 1
    14    5    6 1
    15    5   39 1
    16    5   40 1
    17    6    7 1
    18    6    8 1
    19    6   29 1
    20    8    9 2
    21    8   41 1
    22    9   10 1
    23    9   42 1
    24   10   11 1
    25   10   17 1
    26   10   12 1
    27   12   13 1
    28   12   14 1
    29   12   28 1
    30   14   15 1
    31   14   43 1
    32   14   44 1
    33   15   16 2
    34   15   17 1
    35   17   18 1
    36   17   19 1
    37   19   20 1
    38   19   45 1
    39   19   46 1
    40   20   21 2
    41   20   47 1
    42   21   22 1
    43   21   48 1
    44   22   23 1
    45   22   49 1
    46   22   50 1
    47   23   24 1
    48   23   51 1
    49   23   52 1
    50   24   25 1
    51   24   53 1
    52   24   54 1
    53   25   26 2
    54   25   27 1
    55   28   55 1
    56   29   56 1
@<TRIPOS>MOLECULE
ZINC01494905
   60    62     0     0     0
SMALL
USER_CHARGES

@<TRIPOS>ATOM
      1 C1         -0.0187    1.5258    0.0104 C.3       1 <0>        -0.1383
      2 C2          0.0021   -0.0041    0.0020 C.3       1 <0>        -0.0305
      3 C3          0.7421   -0.5109    1.2415 C.3       1 <0>        -0.1385
      4 C4         -1.4333   -0.5336    0.0129 C.3       1 <0>        -0.1445
      5 C5          0.7074   -0.4901   -1.2379 C.ar      1 <0>        -0.0657
      6 C6          0.0361   -1.2843   -2.1485 C.ar      1 <0>        -0.1188
      7 C7          0.6831   -1.7301   -3.2859 C.ar      1 <0>        -0.1160
      8 C8          2.0014   -1.3813   -3.5127 C.ar      1 <0>        -0.1105
      9 C9          2.6724   -0.5863   -2.6025 C.ar      1 <0>        -0.0965
     10 C10         2.0241   -0.1370   -1.4673 C.ar      1 <0>        -0.1148
     11 C11         2.7070   -1.8681   -4.7521 C.3       1 <0>         0.1510
     12 N1          2.5202   -0.8976   -5.8335 N.pl3     1 <0>        -0.9807
     13 C12         3.4169    0.2554   -5.9460 C.3       1 <0>         0.1689
     14 C13         4.6527   -0.1421   -6.7113 C.ar      1 <0>        -0.0836
     15 C14         5.7508   -0.6446   -6.0374 C.ar      1 <0>        -0.1578
     16 C15         6.8860   -1.0101   -6.7366 C.ar      1 <0>        -0.0846
     17 C16         6.9262   -0.8738   -8.1109 C.ar      1 <0>        -0.2111
     18 C17         5.8260   -0.3700   -8.7892 C.ar      1 <0>         0.1388
     19 C18         4.6856   -0.0095   -8.0857 C.ar      1 <0>        -0.1372
     20 O1          5.8631   -0.2350  -10.1409 O.3       1 <0>        -0.2783
     21 C19         7.0675   -0.6315  -10.7998 C.3       1 <0>        -0.0071
     22 C20         6.9242   -0.4116  -12.2837 C.2       1 <0>         0.5006
     23 O2          5.8868    0.0427  -12.7353 O.co2     1 <0>        -0.6686
     24 O3          7.8457   -0.6879  -13.0328 O.co2     1 <0>        -0.6893
     25 S1          1.2953   -1.1039   -6.9287 S.o2      1 <0>         2.6846
     26 O4          1.7416   -0.5305   -8.1499 O.2       1 <0>        -0.9291
     27 O5          0.8858   -2.4610   -6.8292 O.2       1 <0>        -0.9524
     28 C21        -0.0641   -0.1261   -6.3804 C.ar      1 <0>        -0.7316
     29 C22        -1.0136   -0.6617   -5.5232 C.ar      1 <0>         0.0276
     30 C23        -2.0660    0.1445   -5.1179 C.ar      1 <0>        -0.1926
     31 C24        -2.1334    1.4461   -5.5784 C.ar      1 <0>         0.1504
     32 N2         -1.2125    1.9218   -6.3933 N.ar      1 <0>        -0.4931
     33 C25        -0.1944    1.1857   -6.7945 C.ar      1 <0>         0.2020
     34 H1          1.0039    1.9031    0.0027 H         1 <0>         0.0570
     35 H2         -0.5459    1.8868   -0.8726 H         1 <0>         0.0556
     36 H3         -0.5289    1.8773    0.9072 H         1 <0>         0.0578
     37 H4          0.2319   -0.1594    2.1383 H         1 <0>         0.0577
     38 H5          0.7568   -1.6008    1.2356 H         1 <0>         0.0566
     39 H6          1.7647   -0.1336    1.2338 H         1 <0>         0.0571
     40 H7         -1.9605   -0.1726   -0.8702 H         1 <0>         0.0582
     41 H8         -1.4185   -1.6235    0.0069 H         1 <0>         0.0590
     42 H9         -1.9435   -0.1821    0.9097 H         1 <0>         0.0577
     43 H10        -0.9938   -1.5568   -1.9713 H         1 <0>         0.1256
     44 H11         0.1588   -2.3512   -3.9970 H         1 <0>         0.1231
     45 H12         3.7024   -0.3141   -2.7796 H         1 <0>         0.1239
     46 H13         2.5473    0.4872   -0.7580 H         1 <0>         0.1203
     47 H14         3.7711   -1.9799   -4.5441 H         1 <0>         0.0996
     48 H15         2.2923   -2.8305   -5.0520 H         1 <0>         0.1038
     49 H16         2.9071    1.0621   -6.4728 H         1 <0>         0.0888
     50 H17         3.6999    0.5942   -4.9494 H         1 <0>         0.0923
     51 H18         5.7216   -0.7512   -4.9631 H         1 <0>         0.1156
     52 H19         7.7423   -1.4023   -6.2080 H         1 <0>         0.1190
     53 H20         7.8135   -1.1588   -8.6566 H         1 <0>         0.1270
     54 H21         3.8261    0.3785   -8.6120 H         1 <0>         0.1460
     55 H22         7.9002   -0.0375  -10.4232 H         1 <0>         0.0587
     56 H23         7.2572   -1.6872  -10.6056 H         1 <0>         0.0586
     57 H24        -0.9352   -1.6826   -5.1799 H         1 <0>         0.1484
     58 H25        -2.8237   -0.2396   -4.4511 H         1 <0>         0.1434
     59 H26        -2.9501    2.0806   -5.2673 H         1 <0>         0.1626
     60 H27         0.5435    1.6117   -7.4582 H         1 <0>         0.1736
@<TRIPOS>BOND
     1    1    2 1
     2    1   34 1
     3    1   35 1
     4    1   36 1
     5    2    3 1
     6    2    4 1
     7    2    5 1
     8    3   37 1
     9    3   38 1
    10    3   39 1
    11    4   40 1
    12    4   41 1
    13    4   42 1
    14    5   10 ar
    15    5    6 ar
    16    6    7 ar
    17    6   43 1
    18    7    8 ar
    19    7   44 1
    20    8    9 ar
    21    8   11 1
    22    9   10 ar
    23    9   45 1
    24   10   46 1
    25   11   12 1
    26   11   47 1
    27   11   48 1
    28   12   13 1
    29   12   25 1
    30   13   14 1
    31   13   49 1
    32   13   50 1
    33   14   19 ar
    34   14   15 ar
    35   15   16 ar
    36   15   51 1
    37   16   17 ar
    38   16   52 1
    39   17   18 ar
    40   17   53 1
    41   18   19 ar
    42   18   20 1
    43   19   54 1
    44   20   21 1
    45   21   22 1
    46   21   55 1
    47   21   56 1
    48   22   23 2
    49   22   24 1
    50   25   26 2
    51   25   27 2
    52   25   28 1
    53   28   33 ar
    54   28   29 ar
    55   29   30 ar
    56   29   57 1
    57   30   31 ar
    58   30   58 1
    59   31   32 ar
    60   31   59 1
    61   32   33 ar
    62   33   60 1
