@<TRIPOS>MOLECULE
ZINC00146104
   30    33     0     0     0
SMALL
USER_CHARGES
3-benzothiazol-2-yl-7-hydroxy-chromen-2-one
@<TRIPOS>ATOM
      1 C1          8.0149   -6.3596   -0.1045 C.ar      1 <0>        -0.1127
      2 C2          9.0514   -5.4365   -0.1091 C.ar      1 <0>        -0.0864
      3 C3          8.7560   -4.0858   -0.0993 C.ar      1 <0>        -0.0708
      4 C4          7.4436   -3.6820   -0.0851 C.ar      1 <0>        -0.1349
      5 C5          6.3651   -4.5982   -0.0800 C.ar      1 <0>         0.0745
      6 C6          6.7122   -5.9704   -0.0905 C.ar      1 <0>        -0.0524
      7 N1          5.1338   -4.0513   -0.0663 N.2       1 <0>        -0.4659
      8 C7          4.9384   -2.7492   -0.0580 C.2       1 <0>         0.2017
      9 S1          6.6090   -2.1138   -0.0776 S.3       1 <0>        -0.0021
     10 C8          3.6655   -2.0047   -0.0428 C.2       1 <0>        -0.1429
     11 C9          3.6594   -0.6220   -0.0358 C.2       1 <0>         0.0393
     12 C10         2.4142    0.0540   -0.0208 C.ar      1 <0>        -0.1711
     13 C11         2.3746    1.4575   -0.0129 C.ar      1 <0>        -0.0256
     14 C12         1.1749    2.1044    0.0021 C.ar      1 <0>        -0.1680
     15 C13        -0.0167    1.3807    0.0096 C.ar      1 <0>         0.1825
     16 C14         0.0021   -0.0041    0.0020 C.ar      1 <0>        -0.1704
     17 C15         1.2139   -0.6808   -0.0132 C.ar      1 <0>         0.1786
     18 O1          1.2295   -2.0314   -0.0202 O.3       1 <0>        -0.2586
     19 C16         2.3842   -2.7180   -0.0344 C.2       1 <0>         0.5208
     20 O2          2.3668   -3.9349   -0.0400 O.2       1 <0>        -0.4114
     21 O3         -1.2040    2.0382    0.0188 O.3       1 <0>        -0.4895
     22 H1          8.2491   -7.4139   -0.1119 H         1 <0>         0.1373
     23 H2         10.0786   -5.7700   -0.1200 H         1 <0>         0.1420
     24 H3          9.5507   -3.3545   -0.1030 H         1 <0>         0.1366
     25 H4          5.9324   -6.7177   -0.0873 H         1 <0>         0.1364
     26 H5          4.5863   -0.0677   -0.0413 H         1 <0>         0.1574
     27 H6          3.2940    2.0241   -0.0183 H         1 <0>         0.1496
     28 H7          1.1473    3.1840    0.0079 H         1 <0>         0.1464
     29 H8         -0.9256   -0.5571    0.0083 H         1 <0>         0.1545
     30 H9         -1.5439    2.2239    0.9049 H         1 <0>         0.4049
@<TRIPOS>BOND
     1    1    6 ar
     2    1    2 ar
     3    1   22 1
     4    2    3 ar
     5    2   23 1
     6    3    4 ar
     7    3   24 1
     8    4    9 1
     9    4    5 ar
    10    5    6 ar
    11    5    7 1
    12    6   25 1
    13    7    8 2
    14    8    9 1
    15    8   10 1
    16   10   19 1
    17   10   11 2
    18   11   12 1
    19   11   26 1
    20   12   17 ar
    21   12   13 ar
    22   13   14 ar
    23   13   27 1
    24   14   15 ar
    25   14   28 1
    26   15   16 ar
    27   15   21 1
    28   16   17 ar
    29   16   29 1
    30   17   18 1
    31   18   19 1
    32   19   20 2
    33   21   30 1
@<TRIPOS>MOLECULE
ZINC05248543
   41    44     0     0     0
SMALL
USER_CHARGES

@<TRIPOS>ATOM
      1 C1         -0.0173    1.4248    0.0099 C.3       1 <0>         0.0250
      2 O1          0.0021   -0.0041    0.0020 O.3       1 <0>        -0.3131
      3 C2         -1.2003   -0.6375    0.0101 C.ar      1 <0>         0.1230
      4 C3         -2.3748    0.1032    0.0195 C.ar      1 <0>        -0.1732
      5 C4         -3.6007   -0.5357    0.0273 C.ar      1 <0>        -0.0846
      6 C5         -3.6652   -1.9143    0.0258 C.ar      1 <0>        -0.0876
      7 C6         -2.4901   -2.6671    0.0164 C.ar      1 <0>        -0.0097
      8 C7         -1.2537   -2.0210    0.0032 C.ar      1 <0>        -0.1059
      9 C8         -2.5553   -4.1442    0.0152 C.2       1 <0>         0.3366
     10 N1         -3.6516   -4.8654    0.0171 N.2       1 <0>        -0.4971
     11 C9         -3.3402   -6.1718    0.0152 C.2       1 <0>         0.3144
     12 N2         -2.0338   -6.2952    0.0120 N.2       1 <0>        -0.3376
     13 O2         -1.5015   -4.9792    0.0061 O.3       1 <0>        -0.0932
     14 C10        -4.3121   -7.2900    0.0170 C.2       1 <0>        -0.1249
     15 C11        -3.8732   -8.5848    0.0204 C.2       1 <0>         0.0385
     16 C12        -4.8220   -9.6382    0.0226 C.ar      1 <0>        -0.1012
     17 C13        -4.3952  -10.9743    0.0267 C.ar      1 <0>        -0.0814
     18 C14        -5.3277  -11.9901    0.0291 C.ar      1 <0>         0.0963
     19 C15        -6.6893  -11.6944    0.0275 C.ar      1 <0>        -0.1327
     20 C16        -7.1221  -10.3875    0.0230 C.ar      1 <0>        -0.1269
     21 C17        -6.1985   -9.3456    0.0210 C.ar      1 <0>         0.1696
     22 N3         -6.6336   -8.0350    0.0170 N.am      1 <0>        -0.6262
     23 C18        -5.7518   -7.0176    0.0211 C.2       1 <0>         0.5482
     24 O3         -6.1521   -5.8670    0.0231 O.2       1 <0>        -0.4889
     25 O4         -4.9167  -13.2860    0.0326 O.3       1 <0>        -0.3134
     26 C19        -5.9342  -14.2894    0.0350 C.3       1 <0>         0.0244
     27 H1          1.0053    1.8021    0.0021 H         1 <0>         0.1040
     28 H2         -0.5445    1.7859   -0.8732 H         1 <0>         0.0583
     29 H3         -0.5275    1.7763    0.9067 H         1 <0>         0.0583
     30 H4         -2.3305    1.1823    0.0211 H         1 <0>         0.1376
     31 H5         -4.5108    0.0457    0.0349 H         1 <0>         0.1400
     32 H6         -4.6245   -2.4103    0.0322 H         1 <0>         0.1479
     33 H7         -0.3409   -2.5982   -0.0086 H         1 <0>         0.1450
     34 H8         -2.8154   -8.8028    0.0212 H         1 <0>         0.1556
     35 H9         -3.3405  -11.2066    0.0276 H         1 <0>         0.1490
     36 H10        -7.4115  -12.4975    0.0294 H         1 <0>         0.1423
     37 H11        -8.1800  -10.1701    0.0211 H         1 <0>         0.1424
     38 H12        -6.5539  -14.1763    0.9245 H         1 <0>         0.0576
     39 H13        -6.5535  -14.1809   -0.8554 H         1 <0>         0.0576
     40 H14        -5.4714  -15.2762    0.0377 H         1 <0>         0.1041
     41 H15        -7.5848   -7.8453    0.0160 H         1 <0>         0.4217
@<TRIPOS>BOND
     1    1    2 1
     2    1   27 1
     3    1   28 1
     4    1   29 1
     5    2    3 1
     6    3    8 ar
     7    3    4 ar
     8    4    5 ar
     9    4   30 1
    10    5    6 ar
    11    5   31 1
    12    6    7 ar
    13    6   32 1
    14    7    8 ar
    15    7    9 1
    16    8   33 1
    17    9   13 1
    18    9   10 2
    19   10   11 1
    20   11   12 2
    21   11   14 1
    22   12   13 1
    23   14   23 1
    24   14   15 2
    25   15   16 1
    26   15   34 1
    27   16   21 ar
    28   16   17 ar
    29   17   18 ar
    30   17   35 1
    31   18   19 ar
    32   18   25 1
    33   19   20 ar
    34   19   36 1
    35   20   21 ar
    36   20   37 1
    37   21   22 1
    38   22   23 am
    39   22   41 1
    40   23   24 2
    41   25   26 1
    42   26   38 1
    43   26   39 1
    44   26   40 1
@<TRIPOS>MOLECULE
ZINC37858693
   41    44     0     0     0
SMALL
USER_CHARGES

@<TRIPOS>ATOM
      1 C1          0.5160    2.1016    0.8389 C.ar      1 <0>        -0.0994
      2 C2          1.7856    2.6500    0.8665 C.ar      1 <0>        -0.1121
      3 C3          2.8922    1.8441    0.6914 C.ar      1 <0>        -0.0943
      4 C4          2.7287    0.4752    0.4869 C.ar      1 <0>        -0.0732
      5 C5          1.4472   -0.0719    0.4605 C.ar      1 <0>        -0.1006
      6 C6          0.3478    0.7436    0.6363 C.ar      1 <0>        -0.1173
      7 C7          3.9141   -0.3959    0.2976 C.ar      1 <0>        -0.0335
      8 C8          4.8973   -0.0477   -0.6237 C.ar      1 <0>        -0.0260
      9 C9          6.0057   -0.8554   -0.8057 C.ar      1 <0>        -0.1150
     10 C10         6.1509   -2.0173   -0.0765 C.ar      1 <0>        -0.0276
     11 C11         5.1749   -2.3827    0.8521 C.ar      1 <0>        -0.1580
     12 C12         4.0513   -1.5679    1.0483 C.ar      1 <0>         0.1530
     13 O1          3.1107   -1.9210    1.9513 O.3       1 <0>        -0.2119
     14 C13         3.2233   -3.0458    2.6842 C.2       1 <0>         0.5161
     15 C14         4.3307   -3.9124    2.5453 C.2       1 <0>        -0.3925
     16 C15         5.3074   -3.6191    1.6424 C.2       1 <0>         0.3444
     17 O2          6.3792   -4.4322    1.4880 O.3       1 <0>        -0.4181
     18 N1          2.2825   -3.3434    3.5479 N.pl3     1 <0>        -0.4926
     19 C16         2.4343   -4.4783    4.4722 C.3       1 <0>         0.0520
     20 C17         2.1323   -3.9883    5.8930 C.3       1 <0>         0.0436
     21 O3          0.8653   -3.3262    5.9032 O.3       1 <0>        -0.3612
     22 C18         0.8098   -2.1560    5.0839 C.3       1 <0>         0.0453
     23 C19         1.0465   -2.5487    3.6254 C.3       1 <0>         0.0388
     24 H1         -0.3469    2.7354    0.9805 H         1 <0>         0.1315
     25 H2          1.9111    3.7109    1.0251 H         1 <0>         0.1335
     26 H3          3.8830    2.2735    0.7124 H         1 <0>         0.1299
     27 H4          1.3146   -1.1320    0.3020 H         1 <0>         0.1182
     28 H5         -0.6458    0.3207    0.6159 H         1 <0>         0.1304
     29 H6          4.7942    0.8593   -1.2010 H         1 <0>         0.1606
     30 H7          6.7620   -0.5746   -1.5237 H         1 <0>         0.1586
     31 H8          7.0184   -2.6435   -0.2242 H         1 <0>         0.1605
     32 H9          4.3974   -4.8082    3.1449 H         1 <0>         0.1871
     33 H10         1.7353   -5.2692    4.2004 H         1 <0>         0.1243
     34 H11         3.4552   -4.8572    4.4238 H         1 <0>         0.1224
     35 H12         2.1038   -4.8394    6.5733 H         1 <0>         0.1345
     36 H13         2.9091   -3.2929    6.2111 H         1 <0>         0.0713
     37 H14        -0.1702   -1.6889    5.1820 H         1 <0>         0.1322
     38 H15         1.5817   -1.4539    5.3990 H         1 <0>         0.0698
     39 H16         1.1488   -1.6504    3.0165 H         1 <0>         0.1219
     40 H17         0.2054   -3.1421    3.2669 H         1 <0>         0.1210
     41 H18         6.3643   -5.2148    2.0559 H         1 <0>         0.4327
@<TRIPOS>BOND
     1    1    6 ar
     2    1    2 ar
     3    1   24 1
     4    2    3 ar
     5    2   25 1
     6    3    4 ar
     7    3   26 1
     8    4    5 ar
     9    4    7 1
    10    5    6 ar
    11    5   27 1
    12    6   28 1
    13    7   12 ar
    14    7    8 ar
    15    8    9 ar
    16    8   29 1
    17    9   10 ar
    18    9   30 1
    19   10   11 ar
    20   10   31 1
    21   11   16 1
    22   11   12 ar
    23   12   13 1
    24   13   14 1
    25   14   15 1
    26   14   18 2
    27   15   16 2
    28   15   32 1
    29   16   17 1
    30   17   41 1
    31   18   23 1
    32   18   19 1
    33   19   20 1
    34   19   33 1
    35   19   34 1
    36   20   21 1
    37   20   35 1
    38   20   36 1
    39   21   22 1
    40   22   23 1
    41   22   37 1
    42   22   38 1
    43   23   39 1
    44   23   40 1
@<TRIPOS>MOLECULE
ZINC37858693
   40    43     0     0     0
SMALL
USER_CHARGES

@<TRIPOS>ATOM
      1 C1          0.2876    1.8369    0.5003 C.ar      1 <0>        -0.1138
      2 C2          1.5256    2.4537    0.5196 C.ar      1 <0>        -0.1178
      3 C3          2.6766    1.7000    0.4106 C.ar      1 <0>        -0.1031
      4 C4          2.5899    0.3150    0.2813 C.ar      1 <0>        -0.0464
      5 C5          1.3398   -0.3010    0.2629 C.ar      1 <0>        -0.0972
      6 C6          0.1955    0.4627    0.3722 C.ar      1 <0>        -0.1190
      7 C7          3.8233   -0.5002    0.1633 C.ar      1 <0>        -0.0659
      8 C8          4.8057   -0.1521   -0.7576 C.ar      1 <0>        -0.0509
      9 C9          5.9596   -0.9073   -0.8735 C.ar      1 <0>        -0.1421
     10 C10         6.1511   -2.0171   -0.0767 C.ar      1 <0>        -0.0303
     11 C11         5.1771   -2.3805    0.8515 C.ar      1 <0>        -0.2132
     12 C12         4.0070   -1.6203    0.9822 C.ar      1 <0>         0.1636
     13 O1          3.0722   -1.9773    1.8869 O.3       1 <0>        -0.2401
     14 C13         3.2188   -3.0440    2.6844 C.2       1 <0>         0.4332
     15 C14         4.3202   -3.8451    2.6409 C.2       1 <0>        -0.4014
     16 C15         5.3485   -3.5630    1.7210 C.2       1 <0>         0.4330
     17 O2          6.3487   -4.2595    1.6546 O.2       1 <0>        -0.4871
     18 N1          2.2228   -3.3404    3.5787 N.pl3     1 <0>        -0.6054
     19 C16         2.5307   -3.9598    4.8776 C.3       1 <0>         0.0933
     20 C17         1.8423   -3.1437    5.9776 C.3       1 <0>         0.0440
     21 O3          0.4569   -2.9961    5.6571 O.3       1 <0>        -0.3749
     22 C18         0.2096   -2.2766    4.4468 C.3       1 <0>         0.0453
     23 C19         0.8149   -3.0430    3.2707 C.3       1 <0>         0.0807
     24 H1         -0.6104    2.4302    0.5900 H         1 <0>         0.1241
     25 H2          1.5916    3.5270    0.6198 H         1 <0>         0.1260
     26 H3          3.6427    2.1826    0.4251 H         1 <0>         0.1253
     27 H4          1.2668   -1.3738    0.1627 H         1 <0>         0.1192
     28 H5         -0.7737   -0.0136    0.3580 H         1 <0>         0.1249
     29 H6          4.6668    0.7142   -1.3874 H         1 <0>         0.1424
     30 H7          6.7148   -0.6263   -1.5926 H         1 <0>         0.1401
     31 H8          7.0533   -2.6030   -0.1722 H         1 <0>         0.1447
     32 H9          4.4000   -4.6957    3.3015 H         1 <0>         0.1539
     33 H10         2.1587   -4.9842    4.8932 H         1 <0>         0.0888
     34 H11         3.6087   -3.9576    5.0390 H         1 <0>         0.1017
     35 H12         1.9421   -3.6615    6.9316 H         1 <0>         0.1144
     36 H13         2.3070   -2.1601    6.0461 H         1 <0>         0.0589
     37 H14        -0.8652   -2.1705    4.2994 H         1 <0>         0.1109
     38 H15         0.6683   -1.2898    4.5097 H         1 <0>         0.0586
     39 H16         0.7573   -2.4341    2.3685 H         1 <0>         0.0961
     40 H17         0.2673   -3.9736    3.1217 H         1 <0>         0.0853
@<TRIPOS>BOND
     1    1    6 ar
     2    1    2 ar
     3    1   24 1
     4    2    3 ar
     5    2   25 1
     6    3    4 ar
     7    3   26 1
     8    4    5 ar
     9    4    7 1
    10    5    6 ar
    11    5   27 1
    12    6   28 1
    13    7   12 ar
    14    7    8 ar
    15    8    9 ar
    16    8   29 1
    17    9   10 ar
    18    9   30 1
    19   10   11 ar
    20   10   31 1
    21   11   16 1
    22   11   12 ar
    23   12   13 1
    24   13   14 1
    25   14   15 2
    26   14   18 1
    27   15   16 1
    28   15   32 1
    29   16   17 2
    30   18   23 1
    31   18   19 1
    32   19   20 1
    33   19   33 1
    34   19   34 1
    35   20   21 1
    36   20   35 1
    37   20   36 1
    38   21   22 1
    39   22   23 1
    40   22   37 1
    41   22   38 1
    42   23   39 1
    43   23   40 1
