@<TRIPOS>MOLECULE
ZINC00210586
   27    29     0     0     0
SMALL
USER_CHARGES

@<TRIPOS>ATOM
      1 C1         -0.0168    1.3883    0.0097 C.ar      1 <0>        -0.1025
      2 C2          1.1576    2.1082    0.0023 C.ar      1 <0>        -0.0924
      3 C3          2.3798    1.4452   -0.0133 C.ar      1 <0>         0.0708
      4 C4          2.4007    0.0405   -0.0182 C.ar      1 <0>        -0.1298
      5 C5          1.2054   -0.6819   -0.0114 C.ar      1 <0>        -0.0869
      6 C6          0.0021   -0.0041    0.0020 C.ar      1 <0>         0.0880
      7 O1         -1.1672   -0.6982    0.0080 O.3       1 <0>        -0.4931
      8 C7          3.8176   -0.3381   -0.0277 C.2       1 <0>        -0.0996
      9 C8          4.5253    0.8161   -0.0201 C.2       1 <0>         0.0027
     10 O2          3.6563    1.8653   -0.0268 O.3       1 <0>        -0.1663
     11 C9          5.9742    0.9958    0.0058 C.2       1 <0>         0.5912
     12 O3          6.3559    2.1509    0.0030 O.2       1 <0>        -0.5390
     13 N1          6.9228    0.0912    0.0322 N.am      1 <0>        -0.6887
     14 C10         6.8151   -1.3408   -0.0459 C.3       1 <0>         0.1014
     15 C11         5.6309   -1.9141    0.6852 C.3       1 <0>        -0.1406
     16 C12         4.3281   -1.7433   -0.0502 C.3       1 <0>        -0.0626
     17 H1         -0.9626    1.9094    0.0261 H         1 <0>         0.1464
     18 H2          1.1291    3.1878    0.0083 H         1 <0>         0.1433
     19 H3          1.2219   -1.7617   -0.0176 H         1 <0>         0.1376
     20 H4         -1.5128   -0.8942   -0.8736 H         1 <0>         0.3926
     21 H5          7.8253    0.4368    0.1159 H         1 <0>         0.4141
     22 H6          6.7451   -1.6259   -1.0956 H         1 <0>         0.0697
     23 H7          7.7230   -1.7793    0.3684 H         1 <0>         0.0947
     24 H8          5.8029   -2.9781    0.8474 H         1 <0>         0.0970
     25 H9          5.5500   -1.4248    1.6559 H         1 <0>         0.0738
     26 H10         3.5815   -2.3943    0.4047 H         1 <0>         0.0895
     27 H11         4.4691   -2.0479   -1.0872 H         1 <0>         0.0884
@<TRIPOS>BOND
     1    1    6 ar
     2    1    2 ar
     3    1   17 1
     4    2    3 ar
     5    2   18 1
     6    3   10 1
     7    3    4 ar
     8    4    5 ar
     9    4    8 1
    10    5    6 ar
    11    5   19 1
    12    6    7 1
    13    7   20 1
    14    8   16 1
    15    8    9 2
    16    9   10 1
    17    9   11 1
    18   11   12 2
    19   11   13 am
    20   13   14 1
    21   13   21 1
    22   14   15 1
    23   14   22 1
    24   14   23 1
    25   15   16 1
    26   15   24 1
    27   15   25 1
    28   16   26 1
    29   16   27 1
