@<TRIPOS>MOLECULE
ZINC01204184
   40    42     0     0     0
SMALL
USER_CHARGES
N-[4-chloro-3-(5-methylbenzooxazol-2-yl)-phenyl]butanamide
@<TRIPOS>ATOM
      1 C1          1.2879    5.9578    1.3390 C.3       1 <0>        -0.1541
      2 C2         -0.0260    5.1739    1.3433 C.3       1 <0>        -0.1118
      3 C3          0.1688    3.8479    0.6052 C.3       1 <0>        -0.1385
      4 C4         -1.1254    3.0758    0.6095 C.2       1 <0>         0.5113
      5 O1         -2.1069    3.5404    1.1497 O.2       1 <0>        -0.5136
      6 N1         -1.1906    1.8666    0.0178 N.am      1 <0>        -0.6756
      7 C5         -2.3615    1.1047    0.1096 C.ar      1 <0>         0.1457
      8 C6         -2.2840   -0.2808    0.1916 C.ar      1 <0>        -0.1079
      9 C7         -3.4361   -1.0377    0.2873 C.ar      1 <0>        -0.0934
     10 C8         -4.6734   -0.4230    0.2914 C.ar      1 <0>        -0.0091
     11 C9         -4.7614    0.9684    0.2040 C.ar      1 <0>        -0.0041
     12 C10        -3.5971    1.7316    0.1129 C.ar      1 <0>        -0.0765
     13 C11        -6.0831    1.6296    0.2086 C.2       1 <0>         0.2840
     14 N2         -7.2327    1.0084    0.2848 N.2       1 <0>        -0.4410
     15 C12        -8.2293    1.9304    0.2656 C.ar      1 <0>         0.0263
     16 C13        -9.6228    1.8459    0.3204 C.ar      1 <0>        -0.0604
     17 C14       -10.3788    2.9954    0.2722 C.ar      1 <0>        -0.0860
     18 C15        -9.7659    4.2356    0.1696 C.ar      1 <0>        -0.0894
     19 C16        -8.3910    4.3347    0.1149 C.ar      1 <0>        -0.0889
     20 C17        -7.6131    3.1881    0.1618 C.ar      1 <0>         0.0081
     21 O2         -6.2815    2.9591    0.1292 O.3       1 <0>        -0.2039
     22 C18       -11.8820    2.9058    0.3307 C.3       1 <0>        -0.1129
     23 Cl1        -6.1179   -1.3792    0.4045 Cl        1 <0>        -0.0208
     24 H1          1.1492    6.9024    1.8648 H         1 <0>         0.0601
     25 H2          2.0610    5.3740    1.8387 H         1 <0>         0.0557
     26 H3          1.5897    6.1554    0.3104 H         1 <0>         0.0557
     27 H4         -0.7990    5.7577    0.8437 H         1 <0>         0.0709
     28 H5         -0.3278    4.9763    2.3719 H         1 <0>         0.0710
     29 H6          0.9418    3.2641    1.1049 H         1 <0>         0.0996
     30 H7          0.4706    4.0456   -0.4233 H         1 <0>         0.0992
     31 H8         -0.4263    1.5243   -0.4716 H         1 <0>         0.4163
     32 H9         -1.3197   -0.7671    0.1847 H         1 <0>         0.1441
     33 H10        -3.3693   -2.1135    0.3549 H         1 <0>         0.1501
     34 H11        -3.6587    2.8078    0.0454 H         1 <0>         0.1577
     35 H12       -10.1049    0.8828    0.4006 H         1 <0>         0.1368
     36 H13       -10.3695    5.1304    0.1326 H         1 <0>         0.1419
     37 H14        -7.9213    5.3039    0.0350 H         1 <0>         0.1371
     38 H15       -12.2085    2.9508    1.3696 H         1 <0>         0.0749
     39 H16       -12.3174    3.7374   -0.2234 H         1 <0>         0.0713
     40 H17       -12.2074    1.9643   -0.1120 H         1 <0>         0.0702
@<TRIPOS>BOND
     1    1    2 1
     2    1   24 1
     3    1   25 1
     4    1   26 1
     5    2    3 1
     6    2   27 1
     7    2   28 1
     8    3    4 1
     9    3   29 1
    10    3   30 1
    11    4    5 2
    12    4    6 am
    13    6    7 1
    14    6   31 1
    15    7   12 ar
    16    7    8 ar
    17    8    9 ar
    18    8   32 1
    19    9   10 ar
    20    9   33 1
    21   10   11 ar
    22   10   23 1
    23   11   12 ar
    24   11   13 1
    25   12   34 1
    26   13   21 1
    27   13   14 2
    28   14   15 1
    29   15   20 ar
    30   15   16 ar
    31   16   17 ar
    32   16   35 1
    33   17   18 ar
    34   17   22 1
    35   18   19 ar
    36   18   36 1
    37   19   20 ar
    38   19   37 1
    39   20   21 1
    40   22   38 1
    41   22   39 1
    42   22   40 1
@<TRIPOS>MOLECULE
ZINC00444715
   37    39     0     0     0
SMALL
USER_CHARGES

@<TRIPOS>ATOM
      1 C1         -1.9034   -3.0880   -0.7513 C.3       1 <0>        -0.1408
      2 C2         -0.8370   -2.0701   -0.3420 C.3       1 <0>        -0.1413
      3 C3         -0.1141   -2.5654    0.8840 C.2       1 <0>         0.5102
      4 O1         -0.4216   -3.6280    1.3815 O.2       1 <0>        -0.5138
      5 N1          0.8741   -1.8277    1.4277 N.am      1 <0>        -0.6756
      6 C4          1.4800   -2.2397    2.6206 C.ar      1 <0>         0.1453
      7 C5          1.8956   -1.2945    3.5513 C.ar      1 <0>        -0.1076
      8 C6          2.4946   -1.6952    4.7302 C.ar      1 <0>        -0.0936
      9 C7          2.6842   -3.0384    4.9921 C.ar      1 <0>        -0.0089
     10 C8          2.2695   -3.9956    4.0631 C.ar      1 <0>        -0.0043
     11 C9          1.6601   -3.5897    2.8755 C.ar      1 <0>        -0.0762
     12 C10         2.4710   -5.4334    4.3394 C.2       1 <0>         0.2840
     13 N2          3.0216   -5.9193    5.4230 N.2       1 <0>        -0.4410
     14 C11         3.0408   -7.2739    5.3331 C.ar      1 <0>         0.0263
     15 C12         3.4990   -8.2902    6.1754 C.ar      1 <0>        -0.0605
     16 C13         3.3725   -9.6056    5.7895 C.ar      1 <0>        -0.0860
     17 C14         2.7936   -9.9276    4.5706 C.ar      1 <0>        -0.0895
     18 C15         2.3371   -8.9349    3.7284 C.ar      1 <0>        -0.0888
     19 C16         2.4554   -7.6047    4.1002 C.ar      1 <0>         0.0080
     20 O2          2.1100   -6.4358    3.5161 O.3       1 <0>        -0.2039
     21 C17         3.8666  -10.7028    6.6967 C.3       1 <0>        -0.1129
     22 Cl1         3.4379   -3.5363    6.4745 Cl        1 <0>        -0.0207
     23 H1         -2.6158   -3.2156    0.0638 H         1 <0>         0.0634
     24 H2         -2.4263   -2.7298   -1.6381 H         1 <0>         0.0659
     25 H3         -1.4280   -4.0439   -0.9712 H         1 <0>         0.0633
     26 H4         -0.1246   -1.9426   -1.1571 H         1 <0>         0.0989
     27 H5         -1.3125   -1.1143   -0.1221 H         1 <0>         0.0993
     28 H6          1.1654   -1.0112    0.9925 H         1 <0>         0.4164
     29 H7          1.7500   -0.2431    3.3520 H         1 <0>         0.1441
     30 H8          2.8160   -0.9560    5.4491 H         1 <0>         0.1501
     31 H9          1.3337   -4.3252    2.1552 H         1 <0>         0.1576
     32 H10         3.9508   -8.0448    7.1252 H         1 <0>         0.1368
     33 H11         2.6998  -10.9632    4.2787 H         1 <0>         0.1420
     34 H12         1.8882   -9.1937    2.7808 H         1 <0>         0.1371
     35 H13         3.0630  -11.0107    7.3656 H         1 <0>         0.0749
     36 H14         4.1859  -11.5546    6.0961 H         1 <0>         0.0713
     37 H15         4.7084  -10.3367    7.2845 H         1 <0>         0.0702
@<TRIPOS>BOND
     1    1    2 1
     2    1   23 1
     3    1   24 1
     4    1   25 1
     5    2    3 1
     6    2   26 1
     7    2   27 1
     8    3    4 2
     9    3    5 am
    10    5    6 1
    11    5   28 1
    12    6   11 ar
    13    6    7 ar
    14    7    8 ar
    15    7   29 1
    16    8    9 ar
    17    8   30 1
    18    9   10 ar
    19    9   22 1
    20   10   11 ar
    21   10   12 1
    22   11   31 1
    23   12   20 1
    24   12   13 2
    25   13   14 1
    26   14   19 ar
    27   14   15 ar
    28   15   16 ar
    29   15   32 1
    30   16   17 ar
    31   16   21 1
    32   17   18 ar
    33   17   33 1
    34   18   19 ar
    35   18   34 1
    36   19   20 1
    37   21   35 1
    38   21   36 1
    39   21   37 1
@<TRIPOS>MOLECULE
ZINC04842503
   34    36     0     0     0
SMALL
USER_CHARGES

@<TRIPOS>ATOM
      1 C1         -1.0404    1.4444    0.0539 C.3       1 <0>        -0.1129
      2 C2         -0.9049   -0.0565    0.0417 C.ar      1 <0>        -0.0860
      3 C3         -1.0009   -0.7473   -1.1575 C.ar      1 <0>        -0.0893
      4 C4         -0.8796   -2.1212   -1.1856 C.ar      1 <0>        -0.0889
      5 C5         -0.6596   -2.8197   -0.0085 C.ar      1 <0>         0.0081
      6 C6         -0.5612   -2.1246    1.2078 C.ar      1 <0>         0.0263
      7 C7         -0.6811   -0.7326    1.2198 C.ar      1 <0>        -0.0603
      8 N1         -0.3483   -3.0556    2.1729 N.2       1 <0>        -0.4405
      9 C8         -0.3146   -4.2394    1.6155 C.2       1 <0>         0.2836
     10 O1         -0.5012   -4.1292    0.2866 O.3       1 <0>        -0.2045
     11 C9         -0.1020   -5.5107    2.3386 C.ar      1 <0>        -0.0021
     12 C10        -0.0792   -6.7181    1.6401 C.ar      1 <0>        -0.0767
     13 C11         0.1205   -7.9060    2.3249 C.ar      1 <0>         0.1475
     14 C12         0.2970   -7.8930    3.7036 C.ar      1 <0>        -0.1087
     15 C13         0.2746   -6.6979    4.3969 C.ar      1 <0>        -0.0919
     16 C14         0.0824   -5.5071    3.7233 C.ar      1 <0>        -0.0098
     17 Cl1         0.0623   -4.0078    4.5982 Cl        1 <0>        -0.0204
     18 N2          0.1442   -9.1199    1.6279 N.am      1 <0>        -0.6743
     19 C15         0.6367   -9.1676    0.3742 C.2       1 <0>         0.5100
     20 O2          1.1465   -8.1818   -0.1150 O.2       1 <0>        -0.5202
     21 C16         0.5539  -10.4459   -0.4197 C.3       1 <0>        -0.1699
     22 H1         -0.0591    1.8989   -0.0826 H         1 <0>         0.0750
     23 H2         -1.7009    1.7561   -0.7551 H         1 <0>         0.0714
     24 H3         -1.4591    1.7636    1.0083 H         1 <0>         0.0703
     25 H4         -1.1722   -0.2055   -2.0759 H         1 <0>         0.1420
     26 H5         -0.9562   -2.6519   -2.1231 H         1 <0>         0.1372
     27 H6         -0.6028   -0.1896    2.1501 H         1 <0>         0.1369
     28 H7         -0.2171   -6.7269    0.5690 H         1 <0>         0.1526
     29 H8          0.4518   -8.8205    4.2350 H         1 <0>         0.1444
     30 H9          0.4123   -6.6943    5.4681 H         1 <0>         0.1504
     31 H10        -0.1938   -9.9266    2.0472 H         1 <0>         0.4166
     32 H11         0.0677  -11.2153    0.1802 H         1 <0>         0.0807
     33 H12        -0.0246  -10.2731   -1.3272 H         1 <0>         0.1020
     34 H13         1.5586  -10.7738   -0.6862 H         1 <0>         0.1014
@<TRIPOS>BOND
     1    1    2 1
     2    1   22 1
     3    1   23 1
     4    1   24 1
     5    2    7 ar
     6    2    3 ar
     7    3    4 ar
     8    3   25 1
     9    4    5 ar
    10    4   26 1
    11    5   10 1
    12    5    6 ar
    13    6    7 ar
    14    6    8 1
    15    7   27 1
    16    8    9 2
    17    9   10 1
    18    9   11 1
    19   11   16 ar
    20   11   12 ar
    21   12   13 ar
    22   12   28 1
    23   13   14 ar
    24   13   18 1
    25   14   15 ar
    26   14   29 1
    27   15   16 ar
    28   15   30 1
    29   16   17 1
    30   18   19 am
    31   18   31 1
    32   19   20 2
    33   19   21 1
    34   21   32 1
    35   21   33 1
    36   21   34 1
