@<TRIPOS>MOLECULE
ZINC34285233
   51    54     0     0     0
SMALL
USER_CHARGES

@<TRIPOS>ATOM
      1 C1         -0.0185    1.4906    0.0243 C.3       1 <0>        -0.0816
      2 C2          0.0046   -0.0161    0.0083 C.2       1 <0>         0.0519
      3 C3         -1.0751   -0.8180    0.0070 C.2       1 <0>        -0.2161
      4 C4         -0.5963   -2.1520   -0.0102 C.2       1 <0>         0.1741
      5 C5          0.7516   -2.0809   -0.0184 C.2       1 <0>        -0.1784
      6 O1          1.1066   -0.7831   -0.0130 O.3       1 <0>        -0.1403
      7 C6          1.6971   -3.2543   -0.0363 C.3       1 <0>         0.5651
      8 F1          1.9810   -3.6043   -1.3607 F         1 <0>        -0.1638
      9 F2          2.8835   -2.9072    0.6189 F         1 <0>        -0.1621
     10 F3          1.1046   -4.3406    0.6164 F         1 <0>        -0.1663
     11 N1         -1.3753   -3.3235   -0.0170 N.am      1 <0>        -0.6551
     12 C7         -2.7203   -3.2385   -0.0072 C.2       1 <0>         0.7069
     13 O2         -3.2606   -2.1492    0.0074 O.2       1 <0>        -0.4982
     14 N2         -3.4666   -4.3608   -0.0137 N.am      1 <0>        -0.6248
     15 C8         -4.8537   -4.2731   -0.0036 C.2       1 <0>         0.2869
     16 N3         -5.6044   -3.1929    0.0065 N.2       1 <0>        -0.5160
     17 C9         -6.9221   -3.2779    0.0146 C.2       1 <0>         0.0786
     18 C10        -7.4592   -4.5224    0.0120 C.2       1 <0>        -0.2213
     19 S1         -5.9807   -5.5230   -0.0089 S.3       1 <0>         0.1336
     20 C11        -8.9057   -4.9449    0.0197 C.3       1 <0>        -0.0331
     21 C12        -9.4051   -5.0807   -1.4202 C.3       1 <0>         0.1239
     22 N4        -10.8113   -5.4915   -1.4127 N.pl3     1 <0>        -0.7062
     23 C13       -11.4847   -5.6798   -2.6096 C.ar      1 <0>         0.4715
     24 C14       -10.8331   -5.4870   -3.8245 C.ar      1 <0>        -0.3308
     25 C15       -11.5529   -5.6893   -4.9974 C.ar      1 <0>         0.4535
     26 N5        -12.8303   -6.0574   -4.9166 N.ar      1 <0>        -0.6253
     27 C16       -13.4117   -6.2297   -3.7473 C.ar      1 <0>         0.3902
     28 N6        -12.7629   -6.0531   -2.6141 N.ar      1 <0>        -0.5932
     29 N7        -10.9486   -5.5096   -6.2345 N.pl3     1 <0>        -0.6052
     30 C17       -11.6403   -5.8178   -7.3947 C.2       1 <0>         0.5099
     31 N8        -11.1545   -5.7891   -8.6169 N.2       1 <0>        -0.5704
     32 C18       -12.1015   -6.1447   -9.4856 C.2       1 <0>         0.2209
     33 N9        -13.2032   -6.4053   -8.8343 N.2       1 <0>        -0.3197
     34 H1        -13.5476   -6.3232   -6.7318 H         1 <0>         0.4523
     35 N10       -12.9306   -6.2066   -7.4712 N.pl3     1 <0>        -0.4685
     36 H2          1.0034    1.8698    0.0164 H         1 <0>         0.0845
     37 H3         -0.5481    1.8552   -0.8559 H         1 <0>         0.0973
     38 H4         -0.5276    1.8366    0.9239 H         1 <0>         0.0974
     39 H5         -2.1088   -0.5054    0.0176 H         1 <0>         0.1863
     40 H6         -0.9443   -4.1924   -0.0286 H         1 <0>         0.4141
     41 H7         -3.0356   -5.2297   -0.0254 H         1 <0>         0.4263
     42 H8         -7.5442   -2.3951    0.0232 H         1 <0>         0.1776
     43 H9         -9.0015   -5.9037    0.5294 H         1 <0>         0.0910
     44 H10        -9.5005   -4.1951    0.5413 H         1 <0>         0.1018
     45 H11        -9.3093   -4.1220   -1.9299 H         1 <0>         0.0762
     46 H12        -8.8103   -5.8305   -1.9418 H         1 <0>         0.0730
     47 H13       -11.2711   -5.6317   -0.5702 H         1 <0>         0.4132
     48 H14        -9.7958   -5.1879   -3.8556 H         1 <0>         0.1469
     49 H15       -14.4491   -6.5282   -3.7165 H         1 <0>         0.2058
     50 H16       -10.0421   -5.1683   -6.2865 H         1 <0>         0.4437
     51 H17       -11.9774   -6.2073  -10.5566 H         1 <0>         0.2219
@<TRIPOS>BOND
     1    1    2 1
     2    1   36 1
     3    1   37 1
     4    1   38 1
     5    2    6 1
     6    2    3 2
     7    3    4 1
     8    3   39 1
     9    4    5 2
    10    4   11 1
    11    5    6 1
    12    5    7 1
    13    7    8 1
    14    7    9 1
    15    7   10 1
    16   11   12 am
    17   11   40 1
    18   12   13 2
    19   12   14 am
    20   14   15 1
    21   14   41 1
    22   15   19 1
    23   15   16 2
    24   16   17 1
    25   17   18 2
    26   17   42 1
    27   18   19 1
    28   18   20 1
    29   20   21 1
    30   20   43 1
    31   20   44 1
    32   21   22 1
    33   21   45 1
    34   21   46 1
    35   22   23 1
    36   22   47 1
    37   23   28 ar
    38   23   24 ar
    39   24   25 ar
    40   24   48 1
    41   25   26 ar
    42   25   29 1
    43   26   27 ar
    44   27   28 ar
    45   27   49 1
    46   29   30 1
    47   29   50 1
    48   30   31 2
    49   30   35 1
    50   31   32 1
    51   32   51 1
    52   32   33 2
    53   33   35 1
    54   34   35 1
@<TRIPOS>MOLECULE
ZINC34285233
   52    55     0     0     0
SMALL
USER_CHARGES

@<TRIPOS>ATOM
      1 C1         -1.7856    3.9906   -0.8096 C.3       1 <0>        -0.0813
      2 C2         -1.4872    2.5221   -0.6494 C.2       1 <0>         0.0493
      3 C3         -2.4017    1.5396   -0.5666 C.2       1 <0>        -0.2182
      4 C4         -1.6870    0.3238   -0.4236 C.2       1 <0>         0.1661
      5 C5         -0.3751    0.6415   -0.4280 C.2       1 <0>        -0.1769
      6 O1         -0.2635    1.9749   -0.5710 O.3       1 <0>        -0.1397
      7 C6          0.7689   -0.3311   -0.3005 C.3       1 <0>         0.5642
      8 F1          1.1519   -0.7699   -1.5725 F         1 <0>        -0.1641
      9 F2          1.8516    0.3011    0.3203 F         1 <0>        -0.1621
     10 F3          0.3653   -1.4275    0.4691 F         1 <0>        -0.1634
     11 N1         -2.2383   -0.9644   -0.3005 N.am      1 <0>        -0.6278
     12 C7         -3.5759   -1.1290   -0.3127 C.2       1 <0>         0.6897
     13 O2         -4.3080   -0.1614   -0.4306 O.2       1 <0>        -0.6045
     14 N2         -4.0996   -2.3527   -0.1958 N.2       1 <0>        -0.6002
     15 C8         -5.4206   -2.5152   -0.2079 C.2       1 <0>         0.3756
     16 N3         -6.3887   -1.5659   -0.3346 N.pl3     1 <0>        -0.6272
     17 C9         -7.6932   -1.9549   -0.3213 C.2       1 <0>         0.0897
     18 C10        -7.9425   -3.2609   -0.1830 C.2       1 <0>        -0.2433
     19 S1         -6.2986   -3.9433   -0.0778 S.3       1 <0>         0.2267
     20 C11        -9.2698   -3.9730   -0.1347 C.3       1 <0>        -0.0310
     21 C12        -9.6269   -4.4814   -1.5328 C.3       1 <0>         0.1008
     22 N4        -10.9172   -5.1737   -1.4859 N.pl3     1 <0>        -0.6536
     23 C13       -11.4511   -5.7238   -2.6409 C.ar      1 <0>         0.4962
     24 C14       -10.7671   -5.6293   -3.8496 C.ar      1 <0>        -0.2861
     25 C15       -11.3451   -6.1981   -4.9797 C.ar      1 <0>         0.4664
     26 N5        -12.5235   -6.8082   -4.8656 N.ar      1 <0>        -0.5634
     27 C16       -13.1397   -6.8767   -3.7035 C.ar      1 <0>         0.4345
     28 N6        -12.6230   -6.3551   -2.6093 N.ar      1 <0>        -0.5328
     29 N7        -10.7031   -6.1304   -6.2090 N.pl3     1 <0>        -0.6105
     30 C17        -9.4161   -5.6241   -6.2915 C.2       1 <0>         0.5019
     31 N8         -8.6536   -5.2777   -5.2770 N.2       1 <0>        -0.5517
     32 C18        -7.4803   -4.8326   -5.7278 C.2       1 <0>         0.2368
     33 N9         -7.4750   -4.8875   -7.0327 N.2       1 <0>        -0.2719
     34 H1         -9.0204   -5.5684   -8.3343 H         1 <0>         0.4508
     35 N10        -8.7198   -5.4042   -7.4267 N.pl3     1 <0>        -0.4757
     36 H2         -0.8504    4.5488   -0.8526 H         1 <0>         0.0855
     37 H3         -2.3459    4.1490   -1.7311 H         1 <0>         0.0957
     38 H4         -2.3763    4.3360    0.0388 H         1 <0>         0.0963
     39 H5         -3.4749    1.6548   -0.6020 H         1 <0>         0.1828
     40 H6         -1.6557   -1.7343   -0.2067 H         1 <0>         0.4233
     41 H7         -8.4944   -1.2372   -0.4183 H         1 <0>         0.1880
     42 H8         -9.2048   -4.8162    0.5530 H         1 <0>         0.1013
     43 H9        -10.0402   -3.2826    0.2087 H         1 <0>         0.1043
     44 H10        -9.6919   -3.6382   -2.2205 H         1 <0>         0.0938
     45 H11        -8.8565   -5.1718   -1.8762 H         1 <0>         0.0990
     46 H12       -11.3979   -5.2471   -0.6466 H         1 <0>         0.4286
     47 H13        -9.8128   -5.1272   -3.9085 H         1 <0>         0.2286
     48 H14       -14.0944   -7.3782   -3.6449 H         1 <0>         0.2508
     49 H15       -11.1557   -6.4377   -7.0101 H         1 <0>         0.4407
     50 H16        -6.6648   -4.4826   -5.1123 H         1 <0>         0.2353
     51 H17        -6.1531   -0.6300   -0.4321 H         1 <0>         0.4368
     52 H18       -12.9336   -7.2072   -5.6489 H         1 <0>         0.4460
@<TRIPOS>BOND
     1    1    2 1
     2    1   36 1
     3    1   37 1
     4    1   38 1
     5    2    6 1
     6    2    3 2
     7    3    4 1
     8    3   39 1
     9    4    5 2
    10    4   11 1
    11    5    6 1
    12    5    7 1
    13    7    8 1
    14    7    9 1
    15    7   10 1
    16   11   12 am
    17   11   40 1
    18   12   13 2
    19   12   14 1
    20   14   15 2
    21   15   19 1
    22   15   16 1
    23   16   17 1
    24   16   51 1
    25   17   18 2
    26   17   41 1
    27   18   19 1
    28   18   20 1
    29   20   21 1
    30   20   42 1
    31   20   43 1
    32   21   22 1
    33   21   44 1
    34   21   45 1
    35   22   23 1
    36   22   46 1
    37   23   28 ar
    38   23   24 ar
    39   24   25 ar
    40   24   47 1
    41   25   26 ar
    42   25   29 1
    43   26   27 ar
    44   26   52 1
    45   27   28 ar
    46   27   48 1
    47   29   30 1
    48   29   49 1
    49   30   31 2
    50   30   35 1
    51   31   32 1
    52   32   50 1
    53   32   33 2
    54   33   35 1
    55   34   35 1
@<TRIPOS>MOLECULE
ZINC49113058
   62    66     0     0     0
SMALL
USER_CHARGES

@<TRIPOS>ATOM
      1 C1          0.0280    1.1038   -0.0577 C.3       1 <0>         0.0862
      2 N1          0.7835   -0.1512   -0.0345 N.pl3     1 <0>        -0.2368
      3 C2          1.2848   -0.7741   -1.1183 C.2       1 <0>         0.0233
      4 C3          1.9409   -1.9003   -0.6679 C.2       1 <0>        -0.1001
      5 C4          1.7732   -1.9052    0.7170 C.2       1 <0>        -0.0127
      6 N2          1.0739   -0.8239    1.0284 N.2       1 <0>        -0.2422
      7 C5          2.2840   -2.9218    1.6595 C.2       1 <0>         0.6112
      8 O1          2.9205   -3.8706    1.2439 O.2       1 <0>        -0.5290
      9 N3          2.0445   -2.7974    2.9799 N.am      1 <0>        -0.8394
     10 C6          2.6653   -2.8356   -1.5916 C.3       1 <0>        -0.0520
     11 C7          1.9706   -2.8582   -2.9533 C.3       1 <0>        -0.0643
     12 C8          1.6241   -1.4832   -3.4453 C.ar      1 <0>        -0.2117
     13 C9          1.2621   -0.4598   -2.5570 C.ar      1 <0>         0.2994
     14 N4          0.9247    0.7321   -3.0254 N.ar      1 <0>        -0.5525
     15 C10         0.9505    0.9653   -4.3312 C.ar      1 <0>         0.5639
     16 N5          1.3106    0.0280   -5.1962 N.ar      1 <0>        -0.5606
     17 C11         1.6470   -1.1890   -4.7955 C.ar      1 <0>         0.1918
     18 N6          0.5923    2.2177   -4.8015 N.pl3     1 <0>        -0.6275
     19 C12         0.6747    2.5016   -6.1704 C.ar      1 <0>         0.1841
     20 C13         0.4057    1.5105   -7.1026 C.ar      1 <0>        -0.1464
     21 C14         0.4877    1.7952   -8.4585 C.ar      1 <0>         0.1793
     22 C15         0.8392    3.0707   -8.8806 C.ar      1 <0>        -0.1627
     23 C16         1.1079    4.0588   -7.9520 C.ar      1 <0>        -0.1427
     24 C17         1.0213    3.7812   -6.5979 C.ar      1 <0>         0.0684
     25 O2          1.2802    4.7569   -5.6851 O.3       1 <0>        -0.3185
     26 C18         1.6295    6.0455   -6.1944 C.3       1 <0>         0.0285
     27 N7          0.2167    0.7966   -9.4005 N.pl3     1 <0>        -0.6423
     28 C19        -0.2961   -0.5176   -8.9834 C.3       1 <0>         0.1029
     29 C20        -1.5309   -0.8477   -9.8284 C.3       1 <0>        -0.0239
     30 N8         -1.1869   -0.7557  -11.2529 N.4       1 <0>        -0.3833
     31 C21        -0.8335    0.6282  -11.5936 C.3       1 <0>        -0.0233
     32 C22         0.4306    1.0333  -10.8366 C.3       1 <0>         0.1008
     33 C23        -2.3384   -1.1783  -12.0612 C.3       1 <0>        -0.0471
     34 H1          0.7164    1.9440    0.0325 H         1 <0>         0.0931
     35 H2         -0.5188    1.1813   -0.9975 H         1 <0>         0.1027
     36 H3         -0.6758    1.1196    0.7745 H         1 <0>         0.1007
     37 H4          1.5366   -2.0404    3.3115 H         1 <0>         0.4084
     38 H5          2.3799   -3.4648    3.5987 H         1 <0>         0.4099
     39 H6          3.6943   -2.4981   -1.7152 H         1 <0>         0.0842
     40 H7          2.6624   -3.8392   -1.1664 H         1 <0>         0.1050
     41 H8          2.6303   -3.3359   -3.6777 H         1 <0>         0.0890
     42 H9          1.0554   -3.4447   -2.8724 H         1 <0>         0.0825
     43 H10         1.9357   -1.9413   -5.5145 H         1 <0>         0.1753
     44 H11         0.2844    2.8983   -4.1827 H         1 <0>         0.4299
     45 H12         0.1331    0.5186   -6.7738 H         1 <0>         0.1534
     46 H13         0.9030    3.2909   -9.9360 H         1 <0>         0.1260
     47 H14         1.3813    5.0499   -8.2828 H         1 <0>         0.1376
     48 H15         2.5320    5.9643   -6.8003 H         1 <0>         0.0569
     49 H16         0.8133    6.4273   -6.8077 H         1 <0>         0.0569
     50 H17         1.8098    6.7278   -5.3637 H         1 <0>         0.1039
     51 H18         0.4698   -1.2768   -9.1419 H         1 <0>         0.0875
     52 H19        -0.5715   -0.4856   -7.9292 H         1 <0>         0.1246
     53 H20        -1.8676   -1.8590   -9.6004 H         1 <0>         0.1398
     54 H21        -2.3274   -0.1393   -9.6003 H         1 <0>         0.1315
     55 H22        -0.6562    0.7044  -12.6664 H         1 <0>         0.1404
     56 H23        -1.6510    1.2919  -11.3121 H         1 <0>         0.1317
     57 H24         0.6353    2.0903  -11.0071 H         1 <0>         0.1260
     58 H25         1.2711    0.4335  -11.1855 H         1 <0>         0.0867
     59 H26        -3.1886   -0.5298  -11.8494 H         1 <0>         0.1211
     60 H27        -2.0843   -1.1104  -13.1190 H         1 <0>         0.1249
     61 H28        -2.5968   -2.2082  -11.8149 H         1 <0>         0.1248
     62 H29        -0.4025   -1.3596  -11.4479 H         1 <0>         0.4247
@<TRIPOS>BOND
     1    1    2 1
     2    1   34 1
     3    1   35 1
     4    1   36 1
     5    2    6 1
     6    2    3 1
     7    3   13 1
     8    3    4 2
     9    4    5 1
    10    4   10 1
    11    5    6 2
    12    5    7 1
    13    7    8 2
    14    7    9 am
    15    9   37 1
    16    9   38 1
    17   10   11 1
    18   10   39 1
    19   10   40 1
    20   11   12 1
    21   11   41 1
    22   11   42 1
    23   12   17 ar
    24   12   13 ar
    25   13   14 ar
    26   14   15 ar
    27   15   16 ar
    28   15   18 1
    29   16   17 ar
    30   17   43 1
    31   18   19 1
    32   18   44 1
    33   19   24 ar
    34   19   20 ar
    35   20   21 ar
    36   20   45 1
    37   21   22 ar
    38   21   27 1
    39   22   23 ar
    40   22   46 1
    41   23   24 ar
    42   23   47 1
    43   24   25 1
    44   25   26 1
    45   26   48 1
    46   26   49 1
    47   26   50 1
    48   27   32 1
    49   27   28 1
    50   28   29 1
    51   28   51 1
    52   28   52 1
    53   29   30 1
    54   29   53 1
    55   29   54 1
    56   30   31 1
    57   30   33 1
    58   30   62 1
    59   31   32 1
    60   31   55 1
    61   31   56 1
    62   32   57 1
    63   32   58 1
    64   33   59 1
    65   33   60 1
    66   33   61 1
@<TRIPOS>MOLECULE
ZINC03814434
   62    69     0     0     0
SMALL
USER_CHARGES

@<TRIPOS>ATOM
      1 C1         -0.1295    1.5952   -0.2973 C.3       1 <0>        -0.1687
      2 C2         -0.0862    0.0696   -0.1900 C.3       1 <0>         0.3342
      3 C3          0.5692   -0.4501   -1.4637 C.3       1 <0>         0.0405
      4 H1          1.4796    0.1159   -1.6612 H         1 <0>         0.1372
      5 C4          0.9167   -1.9328   -1.2889 C.3       1 <0>        -0.0061
      6 H2          1.3963   -2.3075   -2.1932 H         1 <0>         0.1555
      7 C5          1.8785   -2.0596   -0.1021 C.3       1 <0>        -0.1827
      8 C6          1.2061   -1.5198    1.1541 C.3       1 <0>         0.2999
      9 H3          1.9797   -1.4243    1.9161 H         1 <0>         0.1550
     10 O1          0.6555   -0.2442    0.9666 O.3       1 <0>        -0.3234
     11 N1          0.2189   -2.4746    1.6600 N.pl3     1 <0>        -0.5366
     12 C7          0.4705   -3.5508    2.4739 C.ar      1 <0>         0.1469
     13 C8          1.6649   -4.0152    3.0240 C.ar      1 <0>        -0.1522
     14 C9          1.5948   -5.1456    3.8201 C.ar      1 <0>        -0.0582
     15 C10         0.4006   -5.7997    4.0696 C.ar      1 <0>        -0.1457
     16 C11        -0.7984   -5.3597    3.5358 C.ar      1 <0>        -0.0280
     17 C12        -0.7487   -4.2198    2.7307 C.ar      1 <0>        -0.1131
     18 C13        -1.7893   -3.4830    2.0197 C.ar      1 <0>         0.0276
     19 C14        -1.1442   -2.4197    1.3841 C.ar      1 <0>         0.0376
     20 C15        -1.8806   -1.5095    0.6175 C.ar      1 <0>         0.0894
     21 N2         -1.4718   -0.3951   -0.1095 N.pl3     1 <0>        -0.5183
     22 C16        -2.5611    0.1913   -0.7090 C.ar      1 <0>         0.1618
     23 C17        -2.6521    1.3277   -1.5118 C.ar      1 <0>        -0.1305
     24 C18        -3.9109    1.6745   -1.9733 C.ar      1 <0>        -0.0737
     25 C19        -5.0393    0.9368   -1.6616 C.ar      1 <0>        -0.1358
     26 C20        -4.9745   -0.1955   -0.8662 C.ar      1 <0>        -0.0503
     27 C21        -3.7147   -0.5596   -0.3919 C.ar      1 <0>        -0.1042
     28 C22        -3.2693   -1.6660    0.4845 C.ar      1 <0>        -0.0360
     29 C23        -3.9084   -2.7313    1.1102 C.ar      1 <0>        -0.0288
     30 C24        -3.1873   -3.6421    1.8754 C.ar      1 <0>        -0.1255
     31 C25        -4.1221   -4.6480    2.4030 C.2       1 <0>         0.5632
     32 O2         -3.8062   -5.5851    3.1110 O.2       1 <0>        -0.5106
     33 N3         -5.3744   -4.3851    1.9926 N.am      1 <0>        -0.7162
     34 C26        -5.3495   -3.1771    1.1601 C.3       1 <0>         0.1358
     35 N4         -0.3067   -2.7008   -1.0216 N.4       1 <0>        -0.5252
     36 C27         0.0145   -4.1336   -0.9773 C.3       1 <0>        -0.0497
     37 O3         -0.3340   -0.2979   -2.5607 O.3       1 <0>        -0.3614
     38 C28         0.3101   -0.0933   -3.8198 C.3       1 <0>         0.0162
     39 H4          0.8261    2.0094    0.0240 H         1 <0>         0.0984
     40 H5         -0.3202    1.8814   -1.3317 H         1 <0>         0.1036
     41 H6         -0.9255    1.9818    0.3392 H         1 <0>         0.0921
     42 H7          2.1370   -3.1081    0.0458 H         1 <0>         0.1233
     43 H8          2.7835   -1.4869   -0.3048 H         1 <0>         0.1455
     44 H9          2.6036   -3.5149    2.8368 H         1 <0>         0.1365
     45 H10         2.5026   -5.5304    4.2610 H         1 <0>         0.1359
     46 H11         0.4045   -6.6780    4.6980 H         1 <0>         0.1352
     47 H12        -1.7278   -5.8736    3.7323 H         1 <0>         0.1600
     48 H13        -1.7792    1.9122   -1.7624 H         1 <0>         0.1440
     49 H14        -4.0153    2.5500   -2.5970 H         1 <0>         0.1336
     50 H15        -5.9967    1.2527   -2.0488 H         1 <0>         0.1332
     51 H16        -5.8575   -0.7687   -0.6249 H         1 <0>         0.1415
     52 H17        -6.1628   -4.9065    2.2103 H         1 <0>         0.4348
     53 H18        -5.9671   -2.3994    1.6094 H         1 <0>         0.1115
     54 H19        -5.7060   -3.4063    0.1559 H         1 <0>         0.1103
     55 H20        -0.6958   -2.4158   -0.1353 H         1 <0>         0.4186
     56 H21         0.4349   -4.4415   -1.9347 H         1 <0>         0.1256
     57 H22         0.7403   -4.3189   -0.1854 H         1 <0>         0.1191
     58 H23        -0.8932   -4.7035   -0.7789 H         1 <0>         0.1256
     59 H24         0.9168    0.8112   -3.7748 H         1 <0>         0.0633
     60 H25         0.9482   -0.9479   -4.0446 H         1 <0>         0.0514
     61 H26        -0.4433    0.0130   -4.6003 H         1 <0>         0.1100
     62 H27        -0.9785   -2.5293   -1.7546 H         1 <0>         0.4274
@<TRIPOS>BOND
     1    1    2 1
     2    1   39 1
     3    1   40 1
     4    1   41 1
     5    2   10 1
     6    2   21 1
     7    2    3 1
     8    3    4 1
     9    3    5 1
    10    3   37 1
    11    5    6 1
    12    5    7 1
    13    5   35 1
    14    7    8 1
    15    7   42 1
    16    7   43 1
    17    8    9 1
    18    8   10 1
    19    8   11 1
    20   11   19 1
    21   11   12 1
    22   12   17 ar
    23   12   13 ar
    24   13   14 ar
    25   13   44 1
    26   14   15 ar
    27   14   45 1
    28   15   16 ar
    29   15   46 1
    30   16   17 ar
    31   16   47 1
    32   17   18 1
    33   18   30 ar
    34   18   19 ar
    35   19   20 ar
    36   20   28 ar
    37   20   21 1
    38   21   22 1
    39   22   27 ar
    40   22   23 ar
    41   23   24 ar
    42   23   48 1
    43   24   25 ar
    44   24   49 1
    45   25   26 ar
    46   25   50 1
    47   26   27 ar
    48   26   51 1
    49   27   28 1
    50   28   29 ar
    51   29   34 1
    52   29   30 ar
    53   30   31 1
    54   31   32 2
    55   31   33 am
    56   33   34 1
    57   33   52 1
    58   34   53 1
    59   34   54 1
    60   35   36 1
    61   35   55 1
    62   35   62 1
    63   36   56 1
    64   36   57 1
    65   36   58 1
    66   37   38 1
    67   38   59 1
    68   38   60 1
    69   38   61 1
@<TRIPOS>MOLECULE
ZINC03938688
   39    41     0     0     0
SMALL
USER_CHARGES

@<TRIPOS>ATOM
      1 C1         -0.0095    1.3826    0.0704 C.ar      1 <0>        -0.0343
      2 C2          0.5587    1.0580   -1.1482 C.ar      1 <0>        -0.1609
      3 C3          1.7655    0.3862   -1.1955 C.ar      1 <0>         0.1753
      4 C4          2.4129    0.0342   -0.0053 C.ar      1 <0>        -0.1954
      5 C5          1.8304    0.3669    1.2233 C.ar      1 <0>         0.1741
      6 C6          0.6231    1.0388    1.2514 C.ar      1 <0>        -0.1610
      7 F1          2.4463    0.0317    2.3781 F         1 <0>        -0.1212
      8 C7          3.6999   -0.6827   -0.0456 C.2       1 <0>         0.6210
      9 O1          4.7383   -0.0615   -0.1600 O.2       1 <0>        -0.4669
     10 N1          3.7255   -2.0272    0.0446 N.am      1 <0>        -0.3962
     11 C8          4.8314   -2.8210    0.1249 C.2       1 <0>         0.5948
     12 N2          4.4249   -4.0694    0.1979 N.2       1 <0>        -0.5873
     13 C9          3.0869   -4.1118    0.1675 C.2       1 <0>         0.5191
     14 N3          2.6183   -2.8904    0.0808 N.2       1 <0>        -0.3480
     15 N4          2.3148   -5.2702    0.2247 N.pl3     1 <0>        -0.6226
     16 C10         2.9267   -6.5079    0.4407 C.ar      1 <0>         0.2365
     17 C11         4.1432   -6.5760    1.1080 C.ar      1 <0>        -0.1584
     18 C12         4.7450   -7.8008    1.3202 C.ar      1 <0>         0.0098
     19 C13         4.1379   -8.9586    0.8692 C.ar      1 <0>        -0.7033
     20 C14         2.9269   -8.8944    0.2046 C.ar      1 <0>         0.0112
     21 C15         2.3170   -7.6734   -0.0063 C.ar      1 <0>        -0.1777
     22 S1          4.9094  -10.5191    1.1415 S.o2      1 <0>         2.7034
     23 O2          4.4084  -11.3993    0.1448 O.2       1 <0>        -0.9656
     24 O3          6.2977  -10.2630    1.3036 O.2       1 <0>        -0.9650
     25 N5          4.3605  -11.0895    2.5960 N.pl3     1 <0>        -1.2510
     26 N6          6.1422   -2.3912    0.1281 N.pl3     1 <0>        -0.7911
     27 F2          2.3185    0.0697   -2.3868 F         1 <0>        -0.1201
     28 H1         -0.9506    1.9116    0.0998 H         1 <0>         0.1546
     29 H2          0.0576    1.3300   -2.0654 H         1 <0>         0.1549
     30 H3          0.1721    1.2963    2.1984 H         1 <0>         0.1546
     31 H4          1.3525   -5.2176    0.1147 H         1 <0>         0.4325
     32 H5          4.6180   -5.6722    1.4601 H         1 <0>         0.1556
     33 H6          5.6909   -7.8544    1.8385 H         1 <0>         0.1456
     34 H7          2.4556   -9.8005   -0.1466 H         1 <0>         0.1475
     35 H8          1.3691   -7.6243   -0.5215 H         1 <0>         0.1387
     36 H9          3.7284  -10.5673    3.1145 H         1 <0>         0.4165
     37 H10         4.6709  -11.9458    2.9296 H         1 <0>         0.4206
     38 H11         6.3422   -1.4439    0.0694 H         1 <0>         0.4292
     39 H12         6.8640   -3.0364    0.1890 H         1 <0>         0.4303
@<TRIPOS>BOND
     1    1    6 ar
     2    1    2 ar
     3    1   28 1
     4    2    3 ar
     5    2   29 1
     6    3    4 ar
     7    3   27 1
     8    4    5 ar
     9    4    8 1
    10    5    6 ar
    11    5    7 1
    12    6   30 1
    13    8    9 2
    14    8   10 am
    15   10   14 1
    16   10   11 1
    17   11   12 2
    18   11   26 1
    19   12   13 1
    20   13   14 2
    21   13   15 1
    22   15   16 1
    23   15   31 1
    24   16   21 ar
    25   16   17 ar
    26   17   18 ar
    27   17   32 1
    28   18   19 ar
    29   18   33 1
    30   19   20 ar
    31   19   22 1
    32   20   21 ar
    33   20   34 1
    34   21   35 1
    35   22   23 2
    36   22   24 2
    37   22   25 1
    38   25   36 1
    39   25   37 1
    40   26   38 1
    41   26   39 1
@<TRIPOS>MOLECULE
ZINC19795632
   54    57     0     0     0
SMALL
USER_CHARGES
5-(5,6-dimethoxybenzimidazol-1-yl)-3-[(4-methylsulfonylphenyl)methoxy]thiophene-2-carboxamide
@<TRIPOS>ATOM
      1 C1          3.4760    3.5351   -0.0114 C.3       1 <0>         0.0188
      2 O1          3.5596    2.1086   -0.0198 O.3       1 <0>        -0.2994
      3 C2          2.3857    1.4211   -0.0123 C.ar      1 <0>         0.1124
      4 C3          1.1890    2.1072    0.0020 C.ar      1 <0>        -0.1254
      5 C4         -0.0170    1.4004    0.0097 C.ar      1 <0>         0.0598
      6 C5          0.0021   -0.0041    0.0020 C.ar      1 <0>         0.0546
      7 C6          1.2120   -0.6833   -0.0128 C.ar      1 <0>        -0.1737
      8 C7          2.3988    0.0252   -0.0199 C.ar      1 <0>         0.1405
      9 O2          3.5848   -0.6407   -0.0348 O.3       1 <0>        -0.2947
     10 C8          3.5271   -2.0685   -0.0424 C.3       1 <0>         0.0180
     11 N1         -1.3239   -0.4036    0.0125 N.pl3     1 <0>        -0.4129
     12 C9         -2.0861    0.7281    0.0259 C.2       1 <0>         0.2737
     13 N2         -1.3217    1.7804    0.0297 N.2       1 <0>        -0.4666
     14 C10        -1.7916   -1.7143    0.0104 C.2       1 <0>         0.1143
     15 C11        -2.7138   -2.2972    0.8370 C.2       1 <0>        -0.2309
     16 C12        -3.0346   -3.6199    0.6544 C.2       1 <0>         0.1892
     17 C13        -2.3936   -4.3190   -0.3670 C.2       1 <0>        -0.2660
     18 S1         -1.3349   -3.0629   -1.0660 S.3       1 <0>         0.1434
     19 C14        -2.5428   -5.6710   -0.7496 C.2       1 <0>         0.6091
     20 O3         -3.3220   -6.3911   -0.1508 O.2       1 <0>        -0.5216
     21 N3         -1.8231   -6.1639   -1.7770 N.am      1 <0>        -0.8751
     22 O4         -3.9478   -4.2319    1.4512 O.3       1 <0>        -0.2608
     23 C15        -4.5542   -3.4370    2.4722 C.3       1 <0>         0.0828
     24 C16        -5.5327   -4.2791    3.2497 C.ar      1 <0>        -0.0419
     25 C17        -6.8540   -4.3498    2.8499 C.ar      1 <0>        -0.1118
     26 C18        -7.7506   -5.1257    3.5606 C.ar      1 <0>        -0.0255
     27 C19        -7.3278   -5.8237    4.6764 C.ar      1 <0>        -0.6491
     28 C20        -6.0076   -5.7488    5.0792 C.ar      1 <0>        -0.0255
     29 C21        -5.1101   -4.9764    4.3660 C.ar      1 <0>        -0.1120
     30 S2         -8.4716   -6.8092    5.5847 S.o2      1 <0>         2.4990
     31 O5         -9.4729   -7.1649    4.6413 O.2       1 <0>        -0.9349
     32 O6         -7.6752   -7.8080    6.2072 O.2       1 <0>        -0.9350
     33 C22        -9.1606   -5.6903    6.8353 C.3       1 <0>        -0.6524
     34 H1          4.4898    3.9618   -0.0188 H         1 <0>         0.1064
     35 H2          2.9455    3.8660    0.8936 H         1 <0>         0.0594
     36 H3          2.9284    3.8755   -0.9026 H         1 <0>         0.0596
     37 H4          1.1840    3.1872    0.0076 H         1 <0>         0.1506
     38 H5          1.2263   -1.7632   -0.0191 H         1 <0>         0.1402
     39 H6          4.5485   -2.4767   -0.0543 H         1 <0>         0.1086
     40 H7          2.9858   -2.4088   -0.9375 H         1 <0>         0.0589
     41 H8          3.0026   -2.4190    0.8587 H         1 <0>         0.0580
     42 H9         -3.1658    0.7472    0.0362 H         1 <0>         0.2225
     43 H10        -3.1853   -1.7234    1.6211 H         1 <0>         0.1582
     44 H11        -1.9392   -7.2164   -2.0749 H         1 <0>         0.4323
     45 H12        -1.1196   -5.5137   -2.3176 H         1 <0>         0.4132
     46 H13        -3.7767   -3.0571    3.1514 H         1 <0>         0.0816
     47 H14        -5.0842   -2.5903    2.0115 H         1 <0>         0.0823
     48 H15        -7.1852   -3.8015    1.9804 H         1 <0>         0.1361
     49 H16        -8.7820   -5.1844    3.2457 H         1 <0>         0.1469
     50 H17        -5.6773   -6.2942    5.9509 H         1 <0>         0.1467
     51 H18        -4.0786   -4.9179    4.6808 H         1 <0>         0.1356
     52 H19        -9.8918   -6.2345    7.4512 H         1 <0>         0.1360
     53 H20        -9.6578   -4.8450    6.3370 H         1 <0>         0.1333
     54 H21        -8.3500   -5.3129    7.4761 H         1 <0>         0.1332
@<TRIPOS>BOND
     1    1    2 1
     2    1   34 1
     3    1   35 1
     4    1   36 1
     5    2    3 1
     6    3    8 ar
     7    3    4 ar
     8    4    5 ar
     9    4   37 1
    10    5   13 1
    11    5    6 ar
    12    6    7 ar
    13    6   11 1
    14    7    8 ar
    15    7   38 1
    16    8    9 1
    17    9   10 1
    18   10   39 1
    19   10   40 1
    20   10   41 1
    21   11   12 1
    22   11   14 1
    23   12   13 2
    24   12   42 1
    25   14   18 1
    26   14   15 2
    27   15   16 1
    28   15   43 1
    29   16   17 2
    30   16   22 1
    31   17   18 1
    32   17   19 1
    33   19   20 2
    34   19   21 am
    35   21   44 1
    36   21   45 1
    37   22   23 1
    38   23   24 1
    39   23   46 1
    40   23   47 1
    41   24   29 ar
    42   24   25 ar
    43   25   26 ar
    44   25   48 1
    45   26   27 ar
    46   26   49 1
    47   27   28 ar
    48   27   30 1
    49   28   29 ar
    50   28   50 1
    51   29   51 1
    52   30   31 2
    53   30   32 2
    54   30   33 1
    55   33   52 1
    56   33   53 1
    57   33   54 1
@<TRIPOS>MOLECULE
ZINC16052718
   27    29     0     0     0
SMALL
USER_CHARGES
2-(4-pyridyl)-1,5,6,7-tetrahydropyrrolo[3,2-c]pyridin-4-one
@<TRIPOS>ATOM
      1 C1         -1.2211    1.7394    0.0173 C.ar      1 <0>        -0.1847
      2 C2         -0.0126    1.0758    0.0080 C.ar      1 <0>         0.1111
      3 N1          1.1266    1.7422    0.0007 N.ar      1 <0>        -0.4905
      4 C3          1.1665    3.0614    0.0069 C.ar      1 <0>         0.1119
      5 C4          0.0054    3.8049    0.0215 C.ar      1 <0>        -0.1618
      6 C5         -1.2265    3.1395    0.0297 C.ar      1 <0>         0.0379
      7 C6         -2.4974    3.8941    0.0449 C.2       1 <0>         0.0152
      8 C7         -2.6168    5.2527    0.0519 C.2       1 <0>        -0.0780
      9 C8         -3.9881    5.5373    0.0657 C.2       1 <0>        -0.2330
     10 C9         -4.6662    4.3225    0.0683 C.2       1 <0>         0.0775
     11 N2         -3.7609    3.3429    0.0484 N.pl3     1 <0>        -0.5119
     12 H1         -3.9600    2.3935    0.0405 H         1 <0>         0.4194
     13 C10        -6.1725    4.2736    0.0855 C.3       1 <0>        -0.0706
     14 C11        -6.6980    5.5192    0.7998 C.3       1 <0>         0.1242
     15 N3         -6.0502    6.7447    0.3531 N.am      1 <0>        -0.7362
     16 C12        -4.7270    6.8120    0.0741 C.2       1 <0>         0.5975
     17 O1         -4.1760    7.8712   -0.1574 O.2       1 <0>        -0.5324
     18 H2         -2.1495    1.1876    0.0191 H         1 <0>         0.1271
     19 H3          0.0021   -0.0041    0.0020 H         1 <0>         0.1582
     20 H4          2.1216    3.5654    0.0002 H         1 <0>         0.1618
     21 H5          0.0456    4.8841    0.0262 H         1 <0>         0.1422
     22 H6         -1.8098    5.9704    0.0479 H         1 <0>         0.1542
     23 H7         -6.5491    4.2527   -0.9371 H         1 <0>         0.0964
     24 H8         -6.5030    3.3798    0.6148 H         1 <0>         0.0985
     25 H9         -7.7696    5.6022    0.6183 H         1 <0>         0.0948
     26 H10        -6.5315    5.4063    1.8710 H         1 <0>         0.0675
     27 H11        -6.5885    7.5452    0.2514 H         1 <0>         0.4040
@<TRIPOS>BOND
     1    1    6 ar
     2    1    2 ar
     3    1   18 1
     4    2    3 ar
     5    2   19 1
     6    3    4 ar
     7    4    5 ar
     8    4   20 1
     9    5    6 ar
    10    5   21 1
    11    6    7 1
    12    7   11 1
    13    7    8 2
    14    8    9 1
    15    8   22 1
    16    9   16 1
    17    9   10 2
    18   10   11 1
    19   10   13 1
    20   11   12 1
    21   13   14 1
    22   13   23 1
    23   13   24 1
    24   14   15 1
    25   14   25 1
    26   14   26 1
    27   15   16 am
    28   15   27 1
    29   16   17 2
@<TRIPOS>MOLECULE
ZINC06718723
   66    70     0     0     0
SMALL
USER_CHARGES
N-[3-(2-methoxy-2-phenyl-acetyl)-3,6,7-triazabicyclo[3.3.0]octa-7,9-dien-8-yl]-4-(4-methylpiperazin-1-yl)-benzamide
@<TRIPOS>ATOM
      1 C1          1.1558   -2.3183    1.2595 C.3       1 <0>        -0.0410
      2 C2          0.9823   -1.8889   -1.1176 C.3       1 <0>         0.0017
      3 C3          0.2156   -1.0925   -2.1760 C.3       1 <0>         0.0172
      4 N1          0.3983    0.3450   -1.9314 N.pl3     1 <0>        -0.4879
      5 C4         -0.0890    0.7150   -0.5952 C.3       1 <0>         0.0240
      6 C5          0.6778   -0.0814    0.4632 C.3       1 <0>         0.0014
      7 C6         -0.2262    1.1016   -2.9168 C.ar      1 <0>         0.1171
      8 C7         -0.9021    0.4673   -3.9555 C.ar      1 <0>        -0.1703
      9 C8         -1.5254    1.2132   -4.9296 C.ar      1 <0>        -0.0557
     10 C9         -1.4706    2.6093   -4.8809 C.ar      1 <0>        -0.1394
     11 C10        -0.7865    3.2432   -3.8393 C.ar      1 <0>        -0.0271
     12 C11        -0.1695    2.4917   -2.8657 C.ar      1 <0>        -0.1357
     13 C12        -2.1335    3.4119   -5.9259 C.2       1 <0>         0.5511
     14 O1         -2.0854    4.6262   -5.8820 O.2       1 <0>        -0.4789
     15 N2         -2.7926    2.7993   -6.9293 N.am      1 <0>        -0.6348
     16 C13        -3.4223    3.5616   -7.9218 C.2       1 <0>         0.3339
     17 C14        -4.1411    3.0562   -9.0204 C.2       1 <0>        -0.2838
     18 C15        -4.5895    4.1057   -9.7400 C.2       1 <0>         0.0781
     19 N3         -4.1745    5.2373   -9.1268 N.pl3     1 <0>        -0.4408
     20 H1         -4.3540    6.1718   -9.4341 H         1 <0>         0.4547
     21 N4         -3.4495    4.8713   -7.9863 N.2       1 <0>        -0.2469
     22 C16        -5.3666    3.6009  -10.9294 C.3       1 <0>         0.1723
     23 N5         -5.3544    2.1345  -10.8740 N.am      1 <0>        -0.6108
     24 C17        -4.5861    1.7737   -9.6769 C.3       1 <0>         0.1946
     25 C18        -5.9338    1.2878  -11.7480 C.2       1 <0>         0.5509
     26 O2         -5.7715    0.0915  -11.6318 O.2       1 <0>        -0.4985
     27 C19        -6.7834    1.8276  -12.8695 C.3       1 <0>         0.1225
     28 H2         -7.5012    2.5436  -12.4694 H         1 <0>         0.0950
     29 C20        -5.9023    2.5122  -13.8825 C.ar      1 <0>        -0.1245
     30 C21        -5.1414    1.7597  -14.7575 C.ar      1 <0>        -0.0827
     31 C22        -4.3365    2.3877  -15.6895 C.ar      1 <0>        -0.1181
     32 C23        -4.2853    3.7682  -15.7402 C.ar      1 <0>        -0.1071
     33 C24        -5.0426    4.5207  -14.8620 C.ar      1 <0>        -0.1205
     34 C25        -5.8508    3.8927  -13.9329 C.ar      1 <0>        -0.1134
     35 O3         -7.4835    0.7514  -13.4972 O.3       1 <0>        -0.3511
     36 C26        -8.7453    1.1252  -14.0539 C.3       1 <0>         0.0270
     37 H3          2.2318   -2.1485    1.2201 H         1 <0>         0.1249
     38 H4          0.7771   -2.0242    2.2384 H         1 <0>         0.1237
     39 H5          0.9484   -3.3752    1.0921 H         1 <0>         0.1236
     40 H6          0.8246   -2.9552   -1.2798 H         1 <0>         0.1394
     41 H7          2.0461   -1.6632   -1.1925 H         1 <0>         0.1411
     42 H8          0.5953   -1.3440   -3.1663 H         1 <0>         0.1318
     43 H9         -0.8447   -1.3391   -2.1193 H         1 <0>         0.0745
     44 H10         0.0688    1.7813   -0.4330 H         1 <0>         0.1307
     45 H11        -1.1527    0.4893   -0.5207 H         1 <0>         0.0727
     46 H12         1.7380    0.1652    0.4065 H         1 <0>         0.1415
     47 H13         0.2983    0.1704    1.4535 H         1 <0>         0.1395
     48 H14        -0.9409   -0.6113   -3.9946 H         1 <0>         0.1361
     49 H15        -2.0533    0.7206   -5.7327 H         1 <0>         0.1339
     50 H16        -0.7428    4.3215   -3.7987 H         1 <0>         0.1475
     51 H17         0.3591    2.9807   -2.0608 H         1 <0>         0.1377
     52 H18        -2.8310    1.8307   -6.9643 H         1 <0>         0.4200
     53 H19        -4.8943    3.9403  -11.8513 H         1 <0>         0.1019
     54 H20        -6.3933    3.9643  -10.8842 H         1 <0>         0.0943
     55 H21        -3.7159    1.1817   -9.9601 H         1 <0>         0.0792
     56 H22        -5.2131    1.2048   -8.9904 H         1 <0>         0.0792
     57 H23        -5.1783    0.6812  -14.7152 H         1 <0>         0.1304
     58 H24        -3.7451    1.7999  -16.3759 H         1 <0>         0.1272
     59 H25        -3.6539    4.2589  -16.4662 H         1 <0>         0.1260
     60 H26        -5.0026    5.5992  -14.9016 H         1 <0>         0.1273
     61 H27        -6.4422    4.4805  -13.2465 H         1 <0>         0.1243
     62 H28        -9.3904    1.5117  -13.2649 H         1 <0>         0.0465
     63 H29        -8.5949    1.8955  -14.8103 H         1 <0>         0.0480
     64 H30        -9.2132    0.2534  -14.5113 H         1 <0>         0.0967
     65 N6          0.4679   -1.5242    0.2191 N.4       1 <0>        -0.4004
     66 H31        -0.5381   -1.7261    0.2561 H         1 <0>         0.4278
@<TRIPOS>BOND
     1    1   37 1
     2    1   38 1
     3    1   39 1
     4    1   65 1
     5    2    3 1
     6    2   40 1
     7    2   41 1
     8    2   65 1
     9    3    4 1
    10    3   42 1
    11    3   43 1
    12    4    5 1
    13    4    7 1
    14    5    6 1
    15    5   44 1
    16    5   45 1
    17    6   46 1
    18    6   47 1
    19    6   65 1
    20    7   12 ar
    21    7    8 ar
    22    8    9 ar
    23    8   48 1
    24    9   10 ar
    25    9   49 1
    26   10   11 ar
    27   10   13 1
    28   11   12 ar
    29   11   50 1
    30   12   51 1
    31   13   14 2
    32   13   15 am
    33   15   16 1
    34   15   52 1
    35   16   21 2
    36   16   17 1
    37   17   24 1
    38   17   18 2
    39   18   19 1
    40   18   22 1
    41   19   20 1
    42   19   21 1
    43   22   23 1
    44   22   53 1
    45   22   54 1
    46   23   24 1
    47   23   25 am
    48   24   55 1
    49   24   56 1
    50   25   26 2
    51   25   27 1
    52   27   28 1
    53   27   29 1
    54   27   35 1
    55   29   34 ar
    56   29   30 ar
    57   30   31 ar
    58   30   57 1
    59   31   32 ar
    60   31   58 1
    61   32   33 ar
    62   32   59 1
    63   33   34 ar
    64   33   60 1
    65   34   61 1
    66   35   36 1
    67   36   62 1
    68   36   63 1
    69   36   64 1
    70   65   66 1
@<TRIPOS>MOLECULE
ZINC01619592
   55    59     0     0     0
SMALL
USER_CHARGES

@<TRIPOS>ATOM
      1 C1         -0.0184    1.5028    0.0103 C.3       1 <0>        -0.1511
      2 C2          0.0021   -0.0041    0.0020 C.2       1 <0>         0.4597
      3 O1          1.0565   -0.5939   -0.0112 O.2       1 <0>        -0.4999
      4 O2         -1.1511   -0.6910    0.0093 O.3       1 <0>        -0.3474
      5 C3         -1.0568   -2.1201    0.0008 C.3       1 <0>         0.1219
      6 H1         -0.1268   -2.3839    0.5135 H         1 <0>         0.1078
      7 C4         -0.9300   -2.5524   -1.4583 C.3       1 <0>        -0.1184
      8 C5         -1.5070   -3.9418   -1.6157 C.3       1 <0>        -0.1187
      9 C6         -3.0076   -3.8238   -1.2599 C.3       1 <0>        -0.0498
     10 H2         -3.4688   -3.0269   -1.8517 H         1 <0>         0.1063
     11 C7         -3.5424   -5.1804   -1.7235 C.3       1 <0>        -0.1009
     12 C8         -2.7629   -5.4191   -3.0462 C.3       1 <0>        -0.1830
     13 C9         -1.5465   -4.4997   -3.0127 C.2       1 <0>         0.3855
     14 O3         -0.7805   -4.2605   -3.9130 O.2       1 <0>        -0.4254
     15 C10        -3.1349   -3.4967    0.1921 C.2       1 <0>        -0.1113
     16 C11        -2.2157   -2.7096    0.7678 C.2       1 <0>        -0.0220
     17 C12        -2.2470   -2.4186    2.2520 C.3       1 <0>        -0.0027
     18 C13        -3.5419   -2.8944    2.8428 C.2       1 <0>        -0.1255
     19 C14        -4.0137   -2.4591    4.1090 C.2       1 <0>        -0.2743
     20 C15        -5.1338   -3.1850    4.3420 C.2       1 <0>         0.1107
     21 O4         -5.3667   -3.9750    3.2644 O.3       1 <0>        -0.1272
     22 C16        -4.4651   -3.7201    2.3152 C.2       1 <0>        -0.0593
     23 C17        -4.2994   -4.0888    0.9041 C.2       1 <0>         0.4739
     24 O5         -5.0852   -4.8388    0.3501 O.2       1 <0>        -0.4050
     25 C18        -3.2587   -1.3792    4.7707 C.2       1 <0>         0.5710
     26 O6         -3.4416   -1.0831    5.9367 O.2       1 <0>        -0.4406
     27 O7         -2.3673   -0.7035    4.0022 O.3       1 <0>        -0.3342
     28 C19        -2.1782   -0.9381    2.6104 C.3       1 <0>         0.1418
     29 H3         -1.2274   -0.5290    2.3161 H         1 <0>         0.1331
     30 C20        -3.3080   -0.2057    1.8834 C.3       1 <0>         0.0325
     31 O8         -3.1902    1.1997    2.1137 O.3       1 <0>        -0.3752
     32 C21        -4.2027    1.9802    1.4751 C.3       1 <0>         0.0299
     33 C22        -1.0932   -3.1555    2.9462 C.3       1 <0>        -0.1410
     34 C23        -0.7898   -4.9340   -0.7021 C.3       1 <0>        -0.1431
     35 H4          1.0042    1.8801    0.0026 H         1 <0>         0.1053
     36 H5         -0.5455    1.8639   -0.8728 H         1 <0>         0.1024
     37 H6         -0.5286    1.8543    0.9071 H         1 <0>         0.1090
     38 H7         -1.4691   -1.8509   -2.0999 H         1 <0>         0.0889
     39 H8          0.1251   -2.5564   -1.7479 H         1 <0>         0.0943
     40 H9         -3.3312   -5.9617   -0.9953 H         1 <0>         0.0820
     41 H10        -4.6154   -5.1243   -1.9164 H         1 <0>         0.0922
     42 H11        -2.4449   -6.4590   -3.1085 H         1 <0>         0.1059
     43 H12        -3.3960   -5.1755   -3.9005 H         1 <0>         0.1025
     44 H13        -5.7345   -3.1423    5.2384 H         1 <0>         0.2359
     45 H14        -3.2413   -0.4054    0.8139 H         1 <0>         0.0819
     46 H15        -4.2692   -0.5562    2.2593 H         1 <0>         0.0526
     47 H16        -4.0433    3.0351    1.6985 H         1 <0>         0.0920
     48 H17        -4.1546    1.8258    0.3972 H         1 <0>         0.0450
     49 H18        -5.1825    1.6750    1.8425 H         1 <0>         0.0405
     50 H19        -0.1439   -2.8172    2.5309 H         1 <0>         0.0813
     51 H20        -1.1181   -2.9442    4.0152 H         1 <0>         0.0779
     52 H21        -1.1983   -4.2284    2.7854 H         1 <0>         0.0788
     53 H22        -0.9157   -4.6281    0.3365 H         1 <0>         0.0689
     54 H23        -1.2137   -5.9285   -0.8418 H         1 <0>         0.0723
     55 H24         0.2717   -4.9535   -0.9490 H         1 <0>         0.0724
@<TRIPOS>BOND
     1    1    2 1
     2    1   35 1
     3    1   36 1
     4    1   37 1
     5    2    3 2
     6    2    4 1
     7    4    5 1
     8    5    6 1
     9    5   16 1
    10    5    7 1
    11    7    8 1
    12    7   38 1
    13    7   39 1
    14    8   13 1
    15    8    9 1
    16    8   34 1
    17    9   10 1
    18    9   11 1
    19    9   15 1
    20   11   12 1
    21   11   40 1
    22   11   41 1
    23   12   13 1
    24   12   42 1
    25   12   43 1
    26   13   14 2
    27   15   23 1
    28   15   16 2
    29   16   17 1
    30   17   28 1
    31   17   18 1
    32   17   33 1
    33   18   22 2
    34   18   19 1
    35   19   20 2
    36   19   25 1
    37   20   21 1
    38   20   44 1
    39   21   22 1
    40   22   23 1
    41   23   24 2
    42   25   26 2
    43   25   27 1
    44   27   28 1
    45   28   29 1
    46   28   30 1
    47   30   31 1
    48   30   45 1
    49   30   46 1
    50   31   32 1
    51   32   47 1
    52   32   48 1
    53   32   49 1
    54   33   50 1
    55   33   51 1
    56   33   52 1
    57   34   53 1
    58   34   54 1
    59   34   55 1
@<TRIPOS>MOLECULE
ZINC14761282
   30    32     0     0     0
SMALL
USER_CHARGES
2,3,6,8-tetrahydroxy-1-methyl-xanthen-9-one
@<TRIPOS>ATOM
      1 C1         -4.9185    5.5078    0.0779 C.3       1 <0>        -0.1280
      2 C2         -3.5589    6.1577    0.0694 C.ar      1 <0>         0.0027
      3 C3         -2.4048    5.3710    0.0883 C.ar      1 <0>        -0.2276
      4 C4         -1.1351    5.9695    0.0801 C.ar      1 <0>         0.1781
      5 C5         -1.0400    7.3557    0.0535 C.ar      1 <0>        -0.1694
      6 C6         -2.1856    8.1307    0.0344 C.ar      1 <0>         0.1596
      7 C7         -3.4480    7.5321    0.0426 C.ar      1 <0>         0.0442
      8 O1         -4.5676    8.3049    0.0246 O.3       1 <0>        -0.4751
      9 O2         -2.0823    9.4845    0.0080 O.3       1 <0>        -0.4786
     10 O3         -0.0131    5.2197    0.0996 O.3       1 <0>        -0.2248
     11 C8         -0.0194    3.8712    0.1264 C.ar      1 <0>         0.1996
     12 C9          1.1807    3.1742    0.1442 C.ar      1 <0>        -0.1877
     13 C10         1.1827    1.7884    0.1728 C.ar      1 <0>         0.1985
     14 C11        -0.0121    1.0771    0.1840 C.ar      1 <0>        -0.2101
     15 C12        -1.2187    1.7514    0.1609 C.ar      1 <0>         0.2237
     16 C13        -1.2274    3.1533    0.1372 C.ar      1 <0>        -0.2714
     17 C14        -2.4972    3.8983    0.1181 C.2       1 <0>         0.4404
     18 O4         -3.5727    3.3265    0.1261 O.2       1 <0>        -0.4278
     19 O5         -2.3868    1.0612    0.1665 O.3       1 <0>        -0.4737
     20 O6          2.3631    1.1188    0.1904 O.3       1 <0>        -0.4885
     21 H1         -5.1981    5.2636    1.1027 H         1 <0>         0.0812
     22 H2         -5.6520    6.1943   -0.3451 H         1 <0>         0.0771
     23 H3         -4.8888    4.5955   -0.5179 H         1 <0>         0.1005
     24 H4         -0.0693    7.8290    0.0476 H         1 <0>         0.1557
     25 H5         -4.8934    8.5457    0.9026 H         1 <0>         0.3881
     26 H6         -2.0550    9.8940    0.8835 H         1 <0>         0.3991
     27 H7          2.1163    3.7136    0.1362 H         1 <0>         0.1540
     28 H8          0.0026   -0.0026    0.2063 H         1 <0>         0.1507
     29 H9         -2.7320    0.8796    1.0513 H         1 <0>         0.4040
     30 H10         2.7079    0.9062   -0.6877 H         1 <0>         0.4055
@<TRIPOS>BOND
     1    1    2 1
     2    1   21 1
     3    1   22 1
     4    1   23 1
     5    2    7 ar
     6    2    3 ar
     7    3   17 1
     8    3    4 ar
     9    4    5 ar
    10    4   10 1
    11    5    6 ar
    12    5   24 1
    13    6    7 ar
    14    6    9 1
    15    7    8 1
    16    8   25 1
    17    9   26 1
    18   10   11 1
    19   11   16 ar
    20   11   12 ar
    21   12   13 ar
    22   12   27 1
    23   13   14 ar
    24   13   20 1
    25   14   15 ar
    26   14   28 1
    27   15   16 ar
    28   15   19 1
    29   16   17 1
    30   17   18 2
    31   19   29 1
    32   20   30 1
@<TRIPOS>MOLECULE
ZINC11906992
   54    57     0     0     0
SMALL
USER_CHARGES
5-(5,6-dimethoxybenzimidazol-1-yl)-3-[(2-methylsulfonylphenyl)methoxy]thiophene-2-carboxamide
@<TRIPOS>ATOM
      1 C1         -0.9932    1.4718   -0.3968 C.3       1 <0>         0.0222
      2 O1         -1.7739    2.0420    0.6555 O.3       1 <0>        -0.2999
      3 C2         -1.6839    3.3880    0.8317 C.ar      1 <0>         0.1124
      4 C3         -0.8643    4.1339    0.0103 C.ar      1 <0>        -0.1250
      5 C4         -0.7724    5.5170    0.1913 C.ar      1 <0>         0.0608
      6 C5         -1.5171    6.1342    1.2099 C.ar      1 <0>         0.0534
      7 C6         -2.3381    5.3735    2.0299 C.ar      1 <0>        -0.1736
      8 C7         -2.4258    4.0072    1.8390 C.ar      1 <0>         0.1398
      9 O2         -3.2346    3.2622    2.6396 O.3       1 <0>        -0.2950
     10 C8         -3.9661    3.9584    3.6507 C.3       1 <0>         0.0215
     11 N1         -1.2178    7.4844    1.1365 N.pl3     1 <0>        -0.4141
     12 C9         -0.3311    7.6459    0.1121 C.2       1 <0>         0.2759
     13 N2         -0.0720    6.4966   -0.4388 N.2       1 <0>        -0.4657
     14 C10        -1.7262    8.4887    1.9549 C.2       1 <0>         0.1208
     15 C11        -1.0493    9.4606    2.6411 C.2       1 <0>        -0.2355
     16 C12        -1.7573   10.3635    3.3954 C.2       1 <0>         0.1962
     17 C13        -3.1453   10.2428    3.4375 C.2       1 <0>        -0.2737
     18 S1         -3.4252    8.8306    2.3817 S.3       1 <0>         0.1500
     19 C14        -4.0865   11.0329    4.1350 C.2       1 <0>         0.6126
     20 O3         -3.7095   11.9694    4.8169 O.2       1 <0>        -0.5180
     21 N3         -5.4013   10.7505    4.0458 N.am      1 <0>        -0.8522
     22 O4         -1.1219   11.3448    4.0858 O.3       1 <0>        -0.2574
     23 C15         0.3027   11.3918    3.9838 C.3       1 <0>         0.0461
     24 C16         0.8280   12.5371    4.8104 C.ar      1 <0>        -0.0031
     25 C17        -0.0370   13.2772    5.5950 C.ar      1 <0>        -0.1114
     26 C18         0.4457   14.3245    6.3569 C.ar      1 <0>        -0.0605
     27 C19         1.7917   14.6387    6.3264 C.ar      1 <0>        -0.1338
     28 C20         2.6556   13.9021    5.5380 C.ar      1 <0>        -0.0202
     29 C21         2.1737   12.8512    4.7799 C.ar      1 <0>        -0.6533
     30 S2          3.2748   11.9125    3.7744 S.o2      1 <0>         2.4915
     31 O5          2.6507   11.8663    2.4986 O.2       1 <0>        -0.9344
     32 O6          4.5397   12.5386    3.9398 O.2       1 <0>        -0.9303
     33 C22         3.2935   10.2595    4.5211 C.3       1 <0>        -0.6589
     34 H1         -1.1570    0.3947   -0.4282 H         1 <0>         0.1048
     35 H2          0.0627    1.6736   -0.2163 H         1 <0>         0.0586
     36 H3         -1.2896    1.9123   -1.3488 H         1 <0>         0.0588
     37 H4         -0.2950    3.6508   -0.7701 H         1 <0>         0.1508
     38 H5         -2.9105    5.8483    2.8130 H         1 <0>         0.1401
     39 H6         -4.5699    3.2486    4.2161 H         1 <0>         0.1067
     40 H7         -3.2697    4.4596    4.3230 H         1 <0>         0.0570
     41 H8         -4.6167    4.6981    3.1841 H         1 <0>         0.0579
     42 H9          0.0934    8.5900   -0.1962 H         1 <0>         0.2252
     43 H10         0.0279    9.5183    2.5877 H         1 <0>         0.1607
     44 H11        -5.7015   10.0049    3.5028 H         1 <0>         0.3978
     45 H12        -6.0474   11.2929    4.5246 H         1 <0>         0.4107
     46 H13         0.7242   10.4558    4.3503 H         1 <0>         0.0837
     47 H14         0.5878   11.5352    2.9416 H         1 <0>         0.1206
     48 H15        -1.0891   13.0345    5.6154 H         1 <0>         0.1511
     49 H16        -0.2294   14.9003    6.9727 H         1 <0>         0.1359
     50 H17         2.1681   15.4599    6.9183 H         1 <0>         0.1370
     51 H18         3.7070   14.1478    5.5138 H         1 <0>         0.1501
     52 H19         2.3128    9.7979    4.4064 H         1 <0>         0.1270
     53 H20         4.0446    9.6450    4.0247 H         1 <0>         0.1403
     54 H21         3.5345   10.3422    5.5809 H         1 <0>         0.1384
@<TRIPOS>BOND
     1    1    2 1
     2    1   34 1
     3    1   35 1
     4    1   36 1
     5    2    3 1
     6    3    8 ar
     7    3    4 ar
     8    4    5 ar
     9    4   37 1
    10    5   13 1
    11    5    6 ar
    12    6    7 ar
    13    6   11 1
    14    7    8 ar
    15    7   38 1
    16    8    9 1
    17    9   10 1
    18   10   39 1
    19   10   40 1
    20   10   41 1
    21   11   12 1
    22   11   14 1
    23   12   13 2
    24   12   42 1
    25   14   18 1
    26   14   15 2
    27   15   16 1
    28   15   43 1
    29   16   17 2
    30   16   22 1
    31   17   18 1
    32   17   19 1
    33   19   20 2
    34   19   21 am
    35   21   44 1
    36   21   45 1
    37   22   23 1
    38   23   24 1
    39   23   46 1
    40   23   47 1
    41   24   29 ar
    42   24   25 ar
    43   25   26 ar
    44   25   48 1
    45   26   27 ar
    46   26   49 1
    47   27   28 ar
    48   27   50 1
    49   28   29 ar
    50   28   51 1
    51   29   30 1
    52   30   31 2
    53   30   32 2
    54   30   33 1
    55   33   52 1
    56   33   53 1
    57   33   54 1
@<TRIPOS>MOLECULE
ZINC02577648
   24    25     0     0     0
SMALL
USER_CHARGES
7-nitro-3-oxido-5-(trifluoromethyl)benzothiazole-2-carboxamide
@<TRIPOS>ATOM
      1 C1         -6.1268    0.8878    0.0365 C.ar      1 <0>         0.0799
      2 C2         -7.0990   -0.0606    0.0364 C.ar      1 <0>        -0.1829
      3 C3         -6.7976   -1.4169    0.0279 C.ar      1 <0>         0.0568
      4 C4         -5.4758   -1.8178    0.0195 C.ar      1 <0>        -0.0002
      5 C5         -4.4820   -0.8682    0.0194 C.ar      1 <0>        -0.0772
      6 C6         -4.7568    0.5232    0.0279 C.ar      1 <0>         0.0414
      7 N1         -3.6869    1.3266    0.0321 N.pl3     1 <0>        -0.1048
      8 C7         -2.4536    0.8696    0.0184 C.2       1 <0>         0.0158
      9 S1         -2.7058   -0.9003    0.0106 S.3       1 <0>         0.2824
     10 C8         -1.1873    1.6238    0.0165 C.2       1 <0>         0.6059
     11 O1         -1.2038    2.8396    0.0232 O.2       1 <0>        -0.4535
     12 N2         -0.0111    0.9658    0.0074 N.am      1 <0>        -0.8300
     13 O2         -3.8909    2.7277    0.0476 O.3       1 <0>        -0.4527
     14 N3         -5.1326   -3.2577    0.0104 N.pl3     1 <0>         0.0277
     15 O3         -6.0174   -4.0947    0.0104 O.2       1 <0>        -0.1159
     16 O4         -3.9653   -3.6055    0.0029 O.3       1 <0>        -0.1423
     17 C9         -8.5432    0.3697    0.0451 C.3       1 <0>         0.5211
     18 F1         -8.9962    0.5092   -1.2711 F         1 <0>        -0.1606
     19 F2         -9.3132   -0.5951    0.7035 F         1 <0>        -0.1622
     20 F3         -8.6609    1.5944    0.7111 F         1 <0>        -0.1613
     21 H1         -6.4007    1.9325    0.0428 H         1 <0>         0.1866
     22 H2         -7.5897   -2.1511    0.0284 H         1 <0>         0.1947
     23 H3          0.0021   -0.0041    0.0020 H         1 <0>         0.4045
     24 H4          0.8223    1.4622    0.0021 H         1 <0>         0.4269
@<TRIPOS>BOND
     1    1    6 ar
     2    1    2 ar
     3    1   21 1
     4    2    3 ar
     5    2   17 1
     6    3    4 ar
     7    3   22 1
     8    4    5 ar
     9    4   14 1
    10    5    9 1
    11    5    6 ar
    12    6    7 1
    13    7    8 2
    14    7   13 1
    15    8    9 1
    16    8   10 1
    17   10   11 2
    18   10   12 am
    19   12   23 1
    20   12   24 1
    21   14   15 2
    22   14   16 1
    23   17   18 1
    24   17   19 1
    25   17   20 1
@<TRIPOS>MOLECULE
ZINC35212821
   22    23     0     0     0
SMALL
USER_CHARGES

@<TRIPOS>ATOM
      1 C1         -0.0171    1.4103    0.0098 C.ar      1 <0>         0.0755
      2 C2          1.1664    2.1272    0.0023 C.ar      1 <0>        -0.0049
      3 C3          2.4104    1.4783   -0.0134 C.ar      1 <0>         0.0504
      4 C4          2.4551    0.1118   -0.0211 C.ar      1 <0>        -0.0013
      5 C5          1.2845   -0.6131   -0.0134 C.ar      1 <0>        -0.0809
      6 C6          0.0021   -0.0041    0.0020 C.ar      1 <0>         0.0438
      7 N1         -1.0401   -0.8444    0.0070 N.pl3     1 <0>        -0.1054
      8 O1         -2.3482   -0.3025    0.0223 O.3       1 <0>        -0.4553
      9 C7         -0.9000   -2.1516   -0.0022 C.2       1 <0>         0.0160
     10 S1          0.8773   -2.3430   -0.0186 S.3       1 <0>         0.2781
     11 C8         -1.9425   -3.1936    0.0011 C.2       1 <0>         0.6054
     12 O2         -3.1169   -2.8787    0.0138 O.2       1 <0>        -0.4546
     13 N2         -1.5940   -4.4955   -0.0099 N.am      1 <0>        -0.8305
     14 N3          3.7598   -0.5871   -0.0383 N.pl3     1 <0>         0.0323
     15 O3          4.7871    0.0504   -0.0455 O.2       1 <0>        -0.1180
     16 O4          3.7982   -1.7955   -0.0451 O.3       1 <0>        -0.1421
     17 C9          1.1208    3.5584    0.0104 C.1       1 <0>         0.2387
     18 N4          1.0845    4.6939    0.0168 N.1       1 <0>        -0.3540
     19 H1         -0.9615    1.9339    0.0261 H         1 <0>         0.1841
     20 H2          3.3247    2.0532   -0.0198 H         1 <0>         0.1917
     21 H3         -0.6572   -4.7468   -0.0201 H         1 <0>         0.4045
     22 H4         -2.2801   -5.1813   -0.0078 H         1 <0>         0.4264
@<TRIPOS>BOND
     1    1    6 ar
     2    1    2 ar
     3    1   19 1
     4    2    3 ar
     5    2   17 1
     6    3    4 ar
     7    3   20 1
     8    4    5 ar
     9    4   14 1
    10    5   10 1
    11    5    6 ar
    12    6    7 1
    13    7    8 1
    14    7    9 2
    15    9   10 1
    16    9   11 1
    17   11   12 2
    18   11   13 am
    19   13   21 1
    20   13   22 1
    21   14   15 2
    22   14   16 1
    23   17   18 3
@<TRIPOS>MOLECULE
ZINC13986815
   78    82     0     0     0
SMALL
USER_CHARGES
4-[[(7R)-8-cyclopentyl-7-ethyl-5-methyl-6-oxo-7H-pteridin-2-yl]amino]-3-methoxy-N-(1-methyl-4-piperidyl)benzamide
@<TRIPOS>ATOM
      1 C1         -2.2125    1.7614    2.3560 C.3       1 <0>        -0.1514
      2 C2         -1.6666    2.8989    1.4905 C.3       1 <0>        -0.1510
      3 C3         -1.2671    2.3500    0.1194 C.3       1 <0>         0.0722
      4 H1         -2.1182    1.8305   -0.3208 H         1 <0>         0.1432
      5 C4         -0.1228    1.3835    0.2830 C.2       1 <0>         0.5283
      6 O1         -0.3357    0.1932    0.3793 O.2       1 <0>        -0.4992
      7 N1          1.1446    1.8552    0.3157 N.am      1 <0>        -0.5433
      8 C5          1.3434    3.2365    0.1726 C.ar      1 <0>        -0.0217
      9 C6          2.5329    3.8338    0.5450 C.ar      1 <0>         0.1745
     10 N2          2.6656    5.1455    0.3902 N.ar      1 <0>        -0.5526
     11 C7          1.6807    5.8749   -0.1109 C.ar      1 <0>         0.5633
     12 N3          0.5263    5.3388   -0.4805 N.ar      1 <0>        -0.5540
     13 C8          0.3213    4.0328   -0.3568 C.ar      1 <0>         0.3893
     14 N4         -0.8765    3.4622   -0.7466 N.pl3     1 <0>        -0.4576
     15 C9         -1.9408    4.4719   -0.8220 C.3       1 <0>         0.0939
     16 C10        -3.3044    3.7866   -1.0472 C.3       1 <0>        -0.1324
     17 C11        -4.0583    4.7469   -2.0016 C.3       1 <0>        -0.1215
     18 C12        -2.9361    5.2388   -2.9492 C.3       1 <0>        -0.1280
     19 C13        -1.7068    5.3952   -2.0305 C.3       1 <0>        -0.0955
     20 N5          1.8630    7.2426   -0.2538 N.pl3     1 <0>        -0.6217
     21 C14         3.0210    7.8464    0.2346 C.ar      1 <0>         0.1870
     22 C15         3.7252    7.2550    1.2774 C.ar      1 <0>        -0.1069
     23 C16         4.8697    7.8478    1.7623 C.ar      1 <0>        -0.0923
     24 C17         5.3258    9.0462    1.2066 C.ar      1 <0>        -0.1402
     25 C18         4.6185    9.6416    0.1580 C.ar      1 <0>        -0.1207
     26 C19         3.4746    9.0406   -0.3282 C.ar      1 <0>         0.0865
     27 O2          2.7873    9.6143   -1.3519 O.3       1 <0>        -0.3157
     28 C20         3.3089   10.8357   -1.8795 C.3       1 <0>         0.0271
     29 C21         6.5522    9.6817    1.7253 C.2       1 <0>         0.5727
     30 O3          6.9482   10.7244    1.2409 O.2       1 <0>        -0.5312
     31 N6          7.2336    9.1065    2.7359 N.am      1 <0>        -0.7287
     32 C22         8.4513    9.7376    3.2509 C.3       1 <0>         0.1371
     33 C23         9.6500    9.3053    2.4019 C.3       1 <0>        -0.1635
     34 C24        10.9268    9.9187    2.9811 C.3       1 <0>         0.0020
     35 C25         9.9843    9.9154    5.2136 C.3       1 <0>         0.0037
     36 C26         8.6793    9.3020    4.7010 C.3       1 <0>        -0.1586
     37 C27        12.3863    9.9283    4.9125 C.3       1 <0>        -0.0425
     38 C28         2.2800    0.9473    0.4964 C.3       1 <0>         0.0738
     39 H2         -3.0287    1.2651    1.8311 H         1 <0>         0.0666
     40 H3         -1.4178    1.0424    2.5546 H         1 <0>         0.0597
     41 H4         -2.5800    2.1664    3.2989 H         1 <0>         0.0651
     42 H5         -0.7940    3.3373    1.9748 H         1 <0>         0.0652
     43 H6         -2.4350    3.6620    1.3666 H         1 <0>         0.0900
     44 H7          3.3396    3.2442    0.9549 H         1 <0>         0.1771
     45 H8         -1.9647    5.0581    0.0966 H         1 <0>         0.0712
     46 H9         -3.1688    2.8119   -1.5159 H         1 <0>         0.0805
     47 H10        -3.8412    3.6860   -0.1039 H         1 <0>         0.0736
     48 H11        -4.4896    5.5809   -1.4480 H         1 <0>         0.0698
     49 H12        -4.8294    4.2154   -2.5593 H         1 <0>         0.0723
     50 H13        -3.2048    6.1972   -3.3934 H         1 <0>         0.0676
     51 H14        -2.7399    4.5006   -3.7268 H         1 <0>         0.0665
     52 H15        -1.6179    6.4296   -1.6985 H         1 <0>         0.0721
     53 H16        -0.8030    5.0945   -2.5606 H         1 <0>         0.0718
     54 H17         1.1848    7.7789   -0.6934 H         1 <0>         0.4316
     55 H18         3.3742    6.3287    1.7077 H         1 <0>         0.1658
     56 H19         5.4148    7.3867    2.5727 H         1 <0>         0.1262
     57 H20         4.9684   10.5676   -0.2736 H         1 <0>         0.1458
     58 H21         2.6675   11.1853   -2.6885 H         1 <0>         0.1064
     59 H22         3.3415   11.5875   -1.0909 H         1 <0>         0.0590
     60 H23         4.3156   10.6659   -2.2614 H         1 <0>         0.0585
     61 H24         6.9177    8.2748    3.1222 H         1 <0>         0.4066
     62 H25         8.3457   10.8216    3.2085 H         1 <0>         0.1059
     63 H26         9.7309    8.2184    2.4131 H         1 <0>         0.0912
     64 H27         9.5132    9.6501    1.3769 H         1 <0>         0.1176
     65 H28        10.8509   11.0058    2.9568 H         1 <0>         0.1334
     66 H29        11.7840    9.6013    2.3873 H         1 <0>         0.1326
     67 H30         9.9128   11.0025    5.1788 H         1 <0>         0.1340
     68 H31        10.1569    9.5956    6.2412 H         1 <0>         0.1349
     69 H32         7.8490    9.6443    5.3187 H         1 <0>         0.1201
     70 H33         8.7442    8.2149    4.7485 H         1 <0>         0.0950
     71 H34        12.5226    9.5211    5.9143 H         1 <0>         0.1225
     72 H35        13.1957    9.5856    4.2678 H         1 <0>         0.1227
     73 H36        12.3948   11.0173    4.9587 H         1 <0>         0.1238
     74 H37         1.9159   -0.0760    0.5880 H         1 <0>         0.0991
     75 H38         2.9446    1.0208   -0.3645 H         1 <0>         0.0723
     76 H39         2.8243    1.2215    1.4001 H         1 <0>         0.0703
     77 N7         11.1015    9.4412    4.3692 N.4       1 <0>        -0.3976
     78 H40        11.1071    8.4145    4.3700 H         1 <0>         0.4290
@<TRIPOS>BOND
     1    1    2 1
     2    1   39 1
     3    1   40 1
     4    1   41 1
     5    2    3 1
     6    2   42 1
     7    2   43 1
     8    3    4 1
     9    3   14 1
    10    3    5 1
    11    5    6 2
    12    5    7 am
    13    7    8 1
    14    7   38 1
    15    8   13 ar
    16    8    9 ar
    17    9   10 ar
    18    9   44 1
    19   10   11 ar
    20   11   12 ar
    21   11   20 1
    22   12   13 ar
    23   13   14 1
    24   14   15 1
    25   15   19 1
    26   15   16 1
    27   15   45 1
    28   16   17 1
    29   16   46 1
    30   16   47 1
    31   17   18 1
    32   17   48 1
    33   17   49 1
    34   18   19 1
    35   18   50 1
    36   18   51 1
    37   19   52 1
    38   19   53 1
    39   20   21 1
    40   20   54 1
    41   21   26 ar
    42   21   22 ar
    43   22   23 ar
    44   22   55 1
    45   23   24 ar
    46   23   56 1
    47   24   25 ar
    48   24   29 1
    49   25   26 ar
    50   25   57 1
    51   26   27 1
    52   27   28 1
    53   28   58 1
    54   28   59 1
    55   28   60 1
    56   29   30 2
    57   29   31 am
    58   31   32 1
    59   31   61 1
    60   32   36 1
    61   32   33 1
    62   32   62 1
    63   33   34 1
    64   33   63 1
    65   33   64 1
    66   34   65 1
    67   34   66 1
    68   34   77 1
    69   35   36 1
    70   35   67 1
    71   35   68 1
    72   35   77 1
    73   36   69 1
    74   36   70 1
    75   37   71 1
    76   37   72 1
    77   37   73 1
    78   37   77 1
    79   38   74 1
    80   38   75 1
    81   38   76 1
    82   77   78 1
@<TRIPOS>MOLECULE
ZINC03939511
   51    54     0     0     0
SMALL
USER_CHARGES
5-(5,6-dimethoxybenzoimidazol-1-yl)-3-[[2-(trifluoromethyl)phenyl]methoxy]thiophene-2-carboxamide
@<TRIPOS>ATOM
      1 C1         -0.0127    1.0858    0.0080 C.3       1 <0>         0.0222
      2 O1         -0.6816    1.5467    1.1837 O.3       1 <0>        -0.2998
      3 C2         -0.7875    2.8932    1.3463 C.ar      1 <0>         0.1125
      4 C3         -0.2596    3.7424    0.3960 C.ar      1 <0>        -0.1249
      5 C4         -0.3691    5.1259    0.5632 C.ar      1 <0>         0.0605
      6 C5         -1.0167    5.6383    1.6995 C.ar      1 <0>         0.0543
      7 C6         -1.5438    4.7741    2.6486 C.ar      1 <0>        -0.1734
      8 C7         -1.4348    3.4076    2.4710 C.ar      1 <0>         0.1403
      9 O2         -1.9560    2.5606    3.3989 O.3       1 <0>        -0.2950
     10 C8         -2.6053    3.1527    4.5258 C.3       1 <0>         0.0214
     11 N1         -0.9639    7.0169    1.5796 N.pl3     1 <0>        -0.4137
     12 C9         -0.3090    7.2957    0.4154 C.2       1 <0>         0.2752
     13 N2          0.0376    6.1909   -0.1768 N.2       1 <0>        -0.4657
     14 C10        -1.4815    7.9446    2.4786 C.2       1 <0>         0.1204
     15 C11        -0.8665    9.0319    3.0383 C.2       1 <0>        -0.2335
     16 C12        -1.5723    9.8251    3.9091 C.2       1 <0>         0.1982
     17 C13        -2.8919    9.4789    4.1948 C.2       1 <0>        -0.2745
     18 S1         -3.1128    8.0133    3.1997 S.3       1 <0>         0.1482
     19 C14        -3.8151   10.1211    5.0504 C.2       1 <0>         0.6130
     20 O3         -3.4860   11.1240    5.6587 O.2       1 <0>        -0.5182
     21 N3         -5.0597    9.6241    5.1934 N.am      1 <0>        -0.8524
     22 O4         -0.9985   10.9150    4.4803 O.3       1 <0>        -0.2616
     23 C15         0.3584   11.1930    4.1287 C.3       1 <0>         0.0759
     24 C16         0.8219   12.4300    4.8541 C.ar      1 <0>        -0.0454
     25 C17        -0.0429   13.1011    5.6986 C.ar      1 <0>        -0.0945
     26 C18         0.3837   14.2328    6.3675 C.ar      1 <0>        -0.0830
     27 C19         1.6720   14.6998    6.1841 C.ar      1 <0>        -0.1160
     28 C20         2.5349   14.0319    5.3358 C.ar      1 <0>        -0.0710
     29 C21         2.1098   12.8968    4.6707 C.ar      1 <0>        -0.1786
     30 C22         3.0506   12.1689    3.7454 C.3       1 <0>         0.5060
     31 F1          4.2855   12.8260    3.7246 F         1 <0>        -0.1717
     32 F2          3.2278   10.8571    4.1981 F         1 <0>        -0.1763
     33 F3          2.5117   12.1480    2.4545 F         1 <0>        -0.1763
     34 H1          0.0021   -0.0041    0.0020 H         1 <0>         0.1048
     35 H2          1.0099    1.4631    0.0003 H         1 <0>         0.0586
     36 H3         -0.5399    1.4469   -0.8751 H         1 <0>         0.0587
     37 H4          0.2370    3.3396   -0.4743 H         1 <0>         0.1508
     38 H5         -2.0417    5.1683    3.5222 H         1 <0>         0.1402
     39 H6         -1.8955    3.7787    5.0666 H         1 <0>         0.0573
     40 H7         -3.4413    3.7630    4.1841 H         1 <0>         0.0579
     41 H8         -2.9744    2.3680    5.1862 H         1 <0>         0.1068
     42 H9         -0.1079    8.2885    0.0407 H         1 <0>         0.2232
     43 H10         0.1599    9.2646    2.7959 H         1 <0>         0.1588
     44 H11        -5.3217    8.8255    4.7091 H         1 <0>         0.3977
     45 H12        -5.6934   10.0649    5.7808 H         1 <0>         0.4106
     46 H13         0.9873   10.3489    4.4116 H         1 <0>         0.0901
     47 H14         0.4293   11.3545    3.0531 H         1 <0>         0.0906
     48 H15        -1.0507   12.7388    5.8384 H         1 <0>         0.1533
     49 H16        -0.2907   14.7549    7.0301 H         1 <0>         0.1374
     50 H17         2.0040   15.5866    6.7034 H         1 <0>         0.1383
     51 H18         3.5412   14.3969    5.1923 H         1 <0>         0.1425
@<TRIPOS>BOND
     1    1    2 1
     2    1   34 1
     3    1   35 1
     4    1   36 1
     5    2    3 1
     6    3    8 ar
     7    3    4 ar
     8    4    5 ar
     9    4   37 1
    10    5   13 1
    11    5    6 ar
    12    6    7 ar
    13    6   11 1
    14    7    8 ar
    15    7   38 1
    16    8    9 1
    17    9   10 1
    18   10   39 1
    19   10   40 1
    20   10   41 1
    21   11   12 1
    22   11   14 1
    23   12   13 2
    24   12   42 1
    25   14   18 1
    26   14   15 2
    27   15   16 1
    28   15   43 1
    29   16   17 2
    30   16   22 1
    31   17   18 1
    32   17   19 1
    33   19   20 2
    34   19   21 am
    35   21   44 1
    36   21   45 1
    37   22   23 1
    38   23   24 1
    39   23   46 1
    40   23   47 1
    41   24   29 ar
    42   24   25 ar
    43   25   26 ar
    44   25   48 1
    45   26   27 ar
    46   26   49 1
    47   27   28 ar
    48   27   50 1
    49   28   29 ar
    50   28   51 1
    51   29   30 1
    52   30   31 1
    53   30   32 1
    54   30   33 1
@<TRIPOS>MOLECULE
ZINC13643145
   59    63     0     0     0
SMALL
USER_CHARGES
4-(4-methylpiperazin-1-yl)-N-[5-[2-(2-thienyl)acetyl]-4,6-dihydro-1H-pyrrolo[3,4-d]pyrazol-3-yl]benzamide
@<TRIPOS>ATOM
      1 C1         -0.0625    1.0307    2.4286 C.3       1 <0>        -0.0411
      2 C2         -0.0127    1.0858    0.0080 C.3       1 <0>         0.0017
      3 C3         -0.7538    1.5933   -1.2312 C.3       1 <0>         0.0172
      4 N1         -0.8062    3.0616   -1.2005 N.pl3     1 <0>        -0.4879
      5 C4         -1.4953    3.5359    0.0077 C.3       1 <0>         0.0240
      6 C5         -0.7542    3.0285    1.2469 C.3       1 <0>         0.0014
      7 C6         -1.4105    3.5628   -2.3481 C.ar      1 <0>         0.1172
      8 C7         -1.8625    2.6891   -3.3333 C.ar      1 <0>        -0.1703
      9 C8         -2.4653    3.1818   -4.4680 C.ar      1 <0>        -0.0557
     10 C9         -2.6145    4.5617   -4.6355 C.ar      1 <0>        -0.1394
     11 C10        -2.1548    5.4366   -3.6467 C.ar      1 <0>        -0.0270
     12 C11        -1.5572    4.9375   -2.5121 C.ar      1 <0>        -0.1357
     13 C12        -3.2560    5.0933   -5.8526 C.2       1 <0>         0.5510
     14 O1         -3.3855    6.2939   -5.9968 O.2       1 <0>        -0.4789
     15 N2         -3.6986    4.2486   -6.8050 N.am      1 <0>        -0.6349
     16 C13        -4.3079    4.7536   -7.9610 C.2       1 <0>         0.3332
     17 C14        -4.8132    3.9906   -9.0294 C.2       1 <0>        -0.2847
     18 C15        -5.3172    4.8436   -9.9453 C.2       1 <0>         0.0768
     19 N3         -5.1416    6.1018   -9.4819 N.pl3     1 <0>        -0.4409
     20 H1         -5.4137    6.9432   -9.9488 H         1 <0>         0.4552
     21 N4         -4.5121    6.0201   -8.2339 N.2       1 <0>        -0.2476
     22 C16        -5.8691    4.0591  -11.1087 C.3       1 <0>         0.1780
     23 N5         -5.6564    2.6358  -10.8213 N.am      1 <0>        -0.6167
     24 C17        -4.9919    2.5741   -9.5145 C.3       1 <0>         0.1936
     25 C18        -6.0019    1.5932  -11.6024 C.2       1 <0>         0.5428
     26 O2         -5.7646    0.4601  -11.2411 O.2       1 <0>        -0.5098
     27 C19        -6.6829    1.8355  -12.9248 C.3       1 <0>        -0.0495
     28 C20        -6.9597    0.5152  -13.5965 C.2       1 <0>        -0.1408
     29 C21        -8.0550   -0.2776  -13.5019 C.2       1 <0>        -0.1384
     30 C22        -8.0909   -1.4595  -14.2179 C.2       1 <0>        -0.1587
     31 C23        -7.0297   -1.7907  -14.9934 C.2       1 <0>        -0.1668
     32 S1         -5.9333   -0.4067  -14.7296 S.3       1 <0>         0.0490
     33 H2          0.9757    1.3605    2.4658 H         1 <0>         0.1249
     34 H3         -0.5919    1.3972    3.3081 H         1 <0>         0.1238
     35 H4         -0.0972   -0.0587    2.4114 H         1 <0>         0.1237
     36 H5          0.0021   -0.0041    0.0020 H         1 <0>         0.1394
     37 H6          1.0098    1.4634    0.0003 H         1 <0>         0.1411
     38 H7         -0.2280    1.2668   -2.1285 H         1 <0>         0.1317
     39 H8         -1.7678    1.1933   -1.2378 H         1 <0>         0.0745
     40 H9         -1.5101    4.6258    0.0137 H         1 <0>         0.1308
     41 H10        -2.5178    3.1583    0.0150 H         1 <0>         0.0727
     42 H11         0.2597    3.4285    1.2535 H         1 <0>         0.1415
     43 H12        -1.2798    3.3552    2.1442 H         1 <0>         0.1396
     44 H13        -1.7435    1.6234   -3.2050 H         1 <0>         0.1361
     45 H14        -2.8197    2.5033   -5.2299 H         1 <0>         0.1338
     46 H15        -2.2689    6.5031   -3.7730 H         1 <0>         0.1476
     47 H16        -1.2019    5.6129   -1.7479 H         1 <0>         0.1378
     48 H17        -3.5954    3.2910   -6.6899 H         1 <0>         0.4199
     49 H18        -5.3439    4.3345  -12.0232 H         1 <0>         0.0979
     50 H19        -6.9349    4.2590  -11.2196 H         1 <0>         0.0981
     51 H20        -4.0194    2.0924   -9.6162 H         1 <0>         0.0779
     52 H21        -5.6105    2.0172   -8.8107 H         1 <0>         0.0775
     53 H22        -7.6224    2.3625  -12.7584 H         1 <0>         0.1197
     54 H23        -6.0358    2.4386  -13.5616 H         1 <0>         0.1130
     55 H24        -8.8874    0.0100  -12.8768 H         1 <0>         0.1312
     56 H25        -8.9518   -2.1091  -14.1604 H         1 <0>         0.1351
     57 H26        -6.8864   -2.6635  -15.6132 H         1 <0>         0.1871
     58 N6         -0.7278    1.5508    1.2149 N.4       1 <0>        -0.4004
     59 H27        -1.6925    1.2003    1.1871 H         1 <0>         0.4278
@<TRIPOS>BOND
     1    1   33 1
     2    1   34 1
     3    1   35 1
     4    1   58 1
     5    2    3 1
     6    2   36 1
     7    2   37 1
     8    2   58 1
     9    3    4 1
    10    3   38 1
    11    3   39 1
    12    4    5 1
    13    4    7 1
    14    5    6 1
    15    5   40 1
    16    5   41 1
    17    6   42 1
    18    6   43 1
    19    6   58 1
    20    7   12 ar
    21    7    8 ar
    22    8    9 ar
    23    8   44 1
    24    9   10 ar
    25    9   45 1
    26   10   11 ar
    27   10   13 1
    28   11   12 ar
    29   11   46 1
    30   12   47 1
    31   13   14 2
    32   13   15 am
    33   15   16 1
    34   15   48 1
    35   16   21 2
    36   16   17 1
    37   17   24 1
    38   17   18 2
    39   18   19 1
    40   18   22 1
    41   19   20 1
    42   19   21 1
    43   22   23 1
    44   22   49 1
    45   22   50 1
    46   23   24 1
    47   23   25 am
    48   24   51 1
    49   24   52 1
    50   25   26 2
    51   25   27 1
    52   27   28 1
    53   27   53 1
    54   27   54 1
    55   28   32 1
    56   28   29 2
    57   29   30 1
    58   29   55 1
    59   30   31 2
    60   30   56 1
    61   31   32 1
    62   31   57 1
    63   58   59 1
@<TRIPOS>MOLECULE
ZINC37858693
   41    44     0     0     0
SMALL
USER_CHARGES

@<TRIPOS>ATOM
      1 C1          0.5160    2.1016    0.8389 C.ar      1 <0>        -0.0994
      2 C2          1.7856    2.6500    0.8665 C.ar      1 <0>        -0.1121
      3 C3          2.8922    1.8441    0.6914 C.ar      1 <0>        -0.0943
      4 C4          2.7287    0.4752    0.4869 C.ar      1 <0>        -0.0732
      5 C5          1.4472   -0.0719    0.4605 C.ar      1 <0>        -0.1006
      6 C6          0.3478    0.7436    0.6363 C.ar      1 <0>        -0.1173
      7 C7          3.9141   -0.3959    0.2976 C.ar      1 <0>        -0.0335
      8 C8          4.8973   -0.0477   -0.6237 C.ar      1 <0>        -0.0260
      9 C9          6.0057   -0.8554   -0.8057 C.ar      1 <0>        -0.1150
     10 C10         6.1509   -2.0173   -0.0765 C.ar      1 <0>        -0.0276
     11 C11         5.1749   -2.3827    0.8521 C.ar      1 <0>        -0.1580
     12 C12         4.0513   -1.5679    1.0483 C.ar      1 <0>         0.1530
     13 O1          3.1107   -1.9210    1.9513 O.3       1 <0>        -0.2119
     14 C13         3.2233   -3.0458    2.6842 C.2       1 <0>         0.5161
     15 C14         4.3307   -3.9124    2.5453 C.2       1 <0>        -0.3925
     16 C15         5.3074   -3.6191    1.6424 C.2       1 <0>         0.3444
     17 O2          6.3792   -4.4322    1.4880 O.3       1 <0>        -0.4181
     18 N1          2.2825   -3.3434    3.5479 N.pl3     1 <0>        -0.4926
     19 C16         2.4343   -4.4783    4.4722 C.3       1 <0>         0.0520
     20 C17         2.1323   -3.9883    5.8930 C.3       1 <0>         0.0436
     21 O3          0.8653   -3.3262    5.9032 O.3       1 <0>        -0.3612
     22 C18         0.8098   -2.1560    5.0839 C.3       1 <0>         0.0453
     23 C19         1.0465   -2.5487    3.6254 C.3       1 <0>         0.0388
     24 H1         -0.3469    2.7354    0.9805 H         1 <0>         0.1315
     25 H2          1.9111    3.7109    1.0251 H         1 <0>         0.1335
     26 H3          3.8830    2.2735    0.7124 H         1 <0>         0.1299
     27 H4          1.3146   -1.1320    0.3020 H         1 <0>         0.1182
     28 H5         -0.6458    0.3207    0.6159 H         1 <0>         0.1304
     29 H6          4.7942    0.8593   -1.2010 H         1 <0>         0.1606
     30 H7          6.7620   -0.5746   -1.5237 H         1 <0>         0.1586
     31 H8          7.0184   -2.6435   -0.2242 H         1 <0>         0.1605
     32 H9          4.3974   -4.8082    3.1449 H         1 <0>         0.1871
     33 H10         1.7353   -5.2692    4.2004 H         1 <0>         0.1243
     34 H11         3.4552   -4.8572    4.4238 H         1 <0>         0.1224
     35 H12         2.1038   -4.8394    6.5733 H         1 <0>         0.1345
     36 H13         2.9091   -3.2929    6.2111 H         1 <0>         0.0713
     37 H14        -0.1702   -1.6889    5.1820 H         1 <0>         0.1322
     38 H15         1.5817   -1.4539    5.3990 H         1 <0>         0.0698
     39 H16         1.1488   -1.6504    3.0165 H         1 <0>         0.1219
     40 H17         0.2054   -3.1421    3.2669 H         1 <0>         0.1210
     41 H18         6.3643   -5.2148    2.0559 H         1 <0>         0.4327
@<TRIPOS>BOND
     1    1    6 ar
     2    1    2 ar
     3    1   24 1
     4    2    3 ar
     5    2   25 1
     6    3    4 ar
     7    3   26 1
     8    4    5 ar
     9    4    7 1
    10    5    6 ar
    11    5   27 1
    12    6   28 1
    13    7   12 ar
    14    7    8 ar
    15    8    9 ar
    16    8   29 1
    17    9   10 ar
    18    9   30 1
    19   10   11 ar
    20   10   31 1
    21   11   16 1
    22   11   12 ar
    23   12   13 1
    24   13   14 1
    25   14   15 1
    26   14   18 2
    27   15   16 2
    28   15   32 1
    29   16   17 1
    30   17   41 1
    31   18   23 1
    32   18   19 1
    33   19   20 1
    34   19   33 1
    35   19   34 1
    36   20   21 1
    37   20   35 1
    38   20   36 1
    39   21   22 1
    40   22   23 1
    41   22   37 1
    42   22   38 1
    43   23   39 1
    44   23   40 1
@<TRIPOS>MOLECULE
ZINC37858693
   40    43     0     0     0
SMALL
USER_CHARGES

@<TRIPOS>ATOM
      1 C1          0.2876    1.8369    0.5003 C.ar      1 <0>        -0.1138
      2 C2          1.5256    2.4537    0.5196 C.ar      1 <0>        -0.1178
      3 C3          2.6766    1.7000    0.4106 C.ar      1 <0>        -0.1031
      4 C4          2.5899    0.3150    0.2813 C.ar      1 <0>        -0.0464
      5 C5          1.3398   -0.3010    0.2629 C.ar      1 <0>        -0.0972
      6 C6          0.1955    0.4627    0.3722 C.ar      1 <0>        -0.1190
      7 C7          3.8233   -0.5002    0.1633 C.ar      1 <0>        -0.0659
      8 C8          4.8057   -0.1521   -0.7576 C.ar      1 <0>        -0.0509
      9 C9          5.9596   -0.9073   -0.8735 C.ar      1 <0>        -0.1421
     10 C10         6.1511   -2.0171   -0.0767 C.ar      1 <0>        -0.0303
     11 C11         5.1771   -2.3805    0.8515 C.ar      1 <0>        -0.2132
     12 C12         4.0070   -1.6203    0.9822 C.ar      1 <0>         0.1636
     13 O1          3.0722   -1.9773    1.8869 O.3       1 <0>        -0.2401
     14 C13         3.2188   -3.0440    2.6844 C.2       1 <0>         0.4332
     15 C14         4.3202   -3.8451    2.6409 C.2       1 <0>        -0.4014
     16 C15         5.3485   -3.5630    1.7210 C.2       1 <0>         0.4330
     17 O2          6.3487   -4.2595    1.6546 O.2       1 <0>        -0.4871
     18 N1          2.2228   -3.3404    3.5787 N.pl3     1 <0>        -0.6054
     19 C16         2.5307   -3.9598    4.8776 C.3       1 <0>         0.0933
     20 C17         1.8423   -3.1437    5.9776 C.3       1 <0>         0.0440
     21 O3          0.4569   -2.9961    5.6571 O.3       1 <0>        -0.3749
     22 C18         0.2096   -2.2766    4.4468 C.3       1 <0>         0.0453
     23 C19         0.8149   -3.0430    3.2707 C.3       1 <0>         0.0807
     24 H1         -0.6104    2.4302    0.5900 H         1 <0>         0.1241
     25 H2          1.5916    3.5270    0.6198 H         1 <0>         0.1260
     26 H3          3.6427    2.1826    0.4251 H         1 <0>         0.1253
     27 H4          1.2668   -1.3738    0.1627 H         1 <0>         0.1192
     28 H5         -0.7737   -0.0136    0.3580 H         1 <0>         0.1249
     29 H6          4.6668    0.7142   -1.3874 H         1 <0>         0.1424
     30 H7          6.7148   -0.6263   -1.5926 H         1 <0>         0.1401
     31 H8          7.0533   -2.6030   -0.1722 H         1 <0>         0.1447
     32 H9          4.4000   -4.6957    3.3015 H         1 <0>         0.1539
     33 H10         2.1587   -4.9842    4.8932 H         1 <0>         0.0888
     34 H11         3.6087   -3.9576    5.0390 H         1 <0>         0.1017
     35 H12         1.9421   -3.6615    6.9316 H         1 <0>         0.1144
     36 H13         2.3070   -2.1601    6.0461 H         1 <0>         0.0589
     37 H14        -0.8652   -2.1705    4.2994 H         1 <0>         0.1109
     38 H15         0.6683   -1.2898    4.5097 H         1 <0>         0.0586
     39 H16         0.7573   -2.4341    2.3685 H         1 <0>         0.0961
     40 H17         0.2673   -3.9736    3.1217 H         1 <0>         0.0853
@<TRIPOS>BOND
     1    1    6 ar
     2    1    2 ar
     3    1   24 1
     4    2    3 ar
     5    2   25 1
     6    3    4 ar
     7    3   26 1
     8    4    5 ar
     9    4    7 1
    10    5    6 ar
    11    5   27 1
    12    6   28 1
    13    7   12 ar
    14    7    8 ar
    15    8    9 ar
    16    8   29 1
    17    9   10 ar
    18    9   30 1
    19   10   11 ar
    20   10   31 1
    21   11   16 1
    22   11   12 ar
    23   12   13 1
    24   13   14 1
    25   14   15 2
    26   14   18 1
    27   15   16 1
    28   15   32 1
    29   16   17 2
    30   18   23 1
    31   18   19 1
    32   19   20 1
    33   19   33 1
    34   19   34 1
    35   20   21 1
    36   20   35 1
    37   20   36 1
    38   21   22 1
    39   22   23 1
    40   22   37 1
    41   22   38 1
    42   23   39 1
    43   23   40 1
