@<TRIPOS>MOLECULE
ZINC14977914
   31    33     0     0     0
SMALL
USER_CHARGES
7-[[3-(hydroxymethyl)azetidin-1-yl]methyl]-3,5-dihydropyrrolo[3,2-d]pyrimidin-4-one
@<TRIPOS>ATOM
      1 C1          2.7773    3.5213   -0.0055 C.2       1 <0>         0.0602
      2 C2          1.4351    3.3894    0.0066 C.2       1 <0>        -0.2732
      3 C3          1.1361    2.0103    0.0020 C.ar      1 <0>         0.1369
      4 C4          2.3618    1.3356   -0.0133 C.ar      1 <0>        -0.1328
      5 N1          3.3537    2.2882   -0.0178 N.pl3     1 <0>        -0.5274
      6 H1          4.4496    2.1934   -0.0290 H         1 <0>         0.4455
      7 C5          2.3540   -0.0745   -0.0204 C.ar      1 <0>         0.5204
      8 O1          3.3981   -0.7047   -0.0329 O.3       1 <0>        -0.6041
      9 N2          1.1620   -0.7106   -0.0124 N.ar      1 <0>        -0.6675
     10 C6          0.0021   -0.0041    0.0020 C.ar      1 <0>         0.3408
     11 N3         -0.0156    1.2973    0.0092 N.ar      1 <0>        -0.6303
     12 C7          0.4329    4.5148    0.0226 C.3       1 <0>         0.0792
     13 N4         -0.0589    4.7130    1.3926 N.4       1 <0>        -0.4400
     14 C8          0.9623    5.3682    2.2310 C.3       1 <0>         0.0337
     15 C9         -0.1617    6.2204    2.8368 C.3       1 <0>        -0.1214
     16 C10        -0.8555    5.9500    1.4944 C.3       1 <0>         0.0298
     17 C11         0.2157    7.6857    3.0630 C.3       1 <0>         0.0827
     18 O2          0.7450    7.8433    4.3810 O.3       1 <0>        -0.6035
     19 H2          3.3119    4.4597   -0.0056 H         1 <0>         0.1646
     20 H3         -0.9359   -0.5394    0.0081 H         1 <0>         0.1671
     21 H4          0.9134    5.4387   -0.3318 H         1 <0>         0.1108
     22 H5         -0.4108    4.2639   -0.6372 H         1 <0>         0.1264
     23 H6          1.4571    4.6151    2.8618 H         1 <0>         0.1233
     24 H7          1.7093    5.8544    1.5863 H         1 <0>         0.1396
     25 H8         -0.6214    6.0253    3.8169 H         1 <0>         0.1544
     26 H9         -0.6297    6.6030    0.6385 H         1 <0>         0.1428
     27 H10        -1.9262    5.6980    1.4908 H         1 <0>         0.1282
     28 H11         0.9736    7.9872    2.3250 H         1 <0>         0.0498
     29 H12        -0.6783    8.3164    2.9491 H         1 <0>         0.0614
     30 H13         1.0732    8.8345    4.7270 H         1 <0>         0.4273
     31 H14        -0.4761    3.7265    1.6429 H         1 <0>         0.4755
@<TRIPOS>BOND
     1    1    5 1
     2    1    2 2
     3    1   19 1
     4    2    3 1
     5    2   12 1
     6    3   11 ar
     7    3    4 ar
     8    4    5 1
     9    4    7 ar
    10    5    6 1
    11    7    8 1
    12    7    9 ar
    13    9   10 ar
    14   10   11 ar
    15   10   20 1
    16   12   13 1
    17   12   21 1
    18   12   22 1
    19   13   16 1
    20   13   14 1
    21   13   31 1
    22   14   15 1
    23   14   23 1
    24   14   24 1
    25   15   16 1
    26   15   17 1
    27   15   25 1
    28   16   26 1
    29   16   27 1
    30   17   18 1
    31   17   28 1
    32   17   29 1
    33   18   30 1
@<TRIPOS>MOLECULE
ZINC14977914
   31    33     0     0     0
SMALL
USER_CHARGES
7-[[3-(hydroxymethyl)azetidin-1-yl]methyl]-3,5-dihydropyrrolo[3,2-d]pyrimidin-4-one
@<TRIPOS>ATOM
      1 C1          2.7773    3.5213   -0.0055 C.2       1 <0>         0.0577
      2 C2          1.4351    3.3894    0.0066 C.2       1 <0>        -0.1515
      3 C3          1.1361    2.0103    0.0020 C.2       1 <0>         0.1243
      4 C4          2.3618    1.3356   -0.0133 C.2       1 <0>        -0.0910
      5 N1          3.3537    2.2882   -0.0178 N.pl3     1 <0>        -0.5307
      6 H1          4.4496    2.1934   -0.0290 H         1 <0>         0.4552
      7 C5          2.3540   -0.0745   -0.0204 C.2       1 <0>         0.5637
      8 O1          3.3981   -0.7047   -0.0329 O.2       1 <0>        -0.5492
      9 N2          1.1620   -0.7106   -0.0124 N.am      1 <0>        -0.6548
     10 C6          0.0021   -0.0041    0.0020 C.2       1 <0>         0.3439
     11 N3         -0.0156    1.2973    0.0092 N.2       1 <0>        -0.4847
     12 C7          0.4329    4.5148    0.0226 C.3       1 <0>         0.0955
     13 N4         -0.0589    4.7130    1.3926 N.3       1 <0>        -0.4754
     14 C8          0.9623    5.3682    2.2310 C.3       1 <0>         0.0141
     15 C9         -0.1617    6.2204    2.8368 C.3       1 <0>        -0.0916
     16 C10        -0.8555    5.9500    1.4944 C.3       1 <0>         0.0107
     17 C11         0.2157    7.6857    3.0630 C.3       1 <0>         0.0781
     18 O2          0.7450    7.8433    4.3810 O.3       1 <0>        -0.6026
     19 H2          3.3119    4.4597   -0.0056 H         1 <0>         0.1788
     20 H3         -0.9359   -0.5394    0.0081 H         1 <0>         0.2057
     21 H4          0.9134    5.4387   -0.3318 H         1 <0>         0.0466
     22 H5         -0.4108    4.2639   -0.6372 H         1 <0>         0.0890
     23 H6          1.4571    4.6151    2.8618 H         1 <0>         0.0788
     24 H7          1.7093    5.8544    1.5863 H         1 <0>         0.0665
     25 H8         -0.6214    6.0253    3.8169 H         1 <0>         0.1213
     26 H9         -0.6297    6.6030    0.6385 H         1 <0>         0.0706
     27 H10        -1.9262    5.6980    1.4908 H         1 <0>         0.0877
     28 H11         0.9736    7.9872    2.3250 H         1 <0>         0.0362
     29 H12        -0.6783    8.3164    2.9491 H         1 <0>         0.0466
     30 H13         1.0732    8.8345    4.7270 H         1 <0>         0.4103
     31 H14         1.1252   -1.8100   -0.0175 H         1 <0>         0.4503
@<TRIPOS>BOND
     1    1    5 1
     2    1    2 2
     3    1   19 1
     4    2    3 1
     5    2   12 1
     6    3   11 1
     7    3    4 2
     8    4    5 1
     9    4    7 1
    10    5    6 1
    11    7    8 2
    12    7    9 am
    13    9   10 1
    14    9   31 1
    15   10   11 2
    16   10   20 1
    17   12   13 1
    18   12   21 1
    19   12   22 1
    20   13   16 1
    21   13   14 1
    22   14   15 1
    23   14   23 1
    24   14   24 1
    25   15   16 1
    26   15   17 1
    27   15   25 1
    28   16   26 1
    29   16   27 1
    30   17   18 1
    31   17   28 1
    32   17   29 1
    33   18   30 1
@<TRIPOS>MOLECULE
ZINC14977914
   30    32     0     0     0
SMALL
USER_CHARGES
7-[[3-(hydroxymethyl)azetidin-1-yl]methyl]-3,5-dihydropyrrolo[3,2-d]pyrimidin-4-one
@<TRIPOS>ATOM
      1 C1          2.7773    3.5213   -0.0055 C.2       1 <0>         0.0180
      2 C2          1.4351    3.3894    0.0066 C.2       1 <0>        -0.1868
      3 C3          1.1361    2.0103    0.0020 C.ar      1 <0>         0.1391
      4 C4          2.3618    1.3356   -0.0133 C.ar      1 <0>        -0.1348
      5 N1          3.3537    2.2882   -0.0178 N.pl3     1 <0>        -0.5499
      6 H1          4.4496    2.1934   -0.0290 H         1 <0>         0.4297
      7 C5          2.3540   -0.0745   -0.0204 C.ar      1 <0>         0.5190
      8 O1          3.3981   -0.7047   -0.0329 O.3       1 <0>        -0.6331
      9 N2          1.1620   -0.7106   -0.0124 N.ar      1 <0>        -0.6847
     10 C6          0.0021   -0.0041    0.0020 C.ar      1 <0>         0.3164
     11 N3         -0.0156    1.2973    0.0092 N.ar      1 <0>        -0.5968
     12 C7          0.4329    4.5148    0.0226 C.3       1 <0>         0.1120
     13 N4         -0.0589    4.7130    1.3926 N.3       1 <0>        -0.4680
     14 C8          0.9623    5.3682    2.2310 C.3       1 <0>         0.0144
     15 C9         -0.1617    6.2204    2.8368 C.3       1 <0>        -0.0894
     16 C10        -0.8555    5.9500    1.4944 C.3       1 <0>         0.0061
     17 C11         0.2157    7.6857    3.0630 C.3       1 <0>         0.0786
     18 O2          0.7450    7.8433    4.3810 O.3       1 <0>        -0.6007
     19 H2          3.3119    4.4597   -0.0056 H         1 <0>         0.1520
     20 H3         -0.9359   -0.5394    0.0081 H         1 <0>         0.1574
     21 H4          0.9134    5.4387   -0.3318 H         1 <0>         0.0306
     22 H5         -0.4108    4.2639   -0.6372 H         1 <0>         0.0793
     23 H6          1.4571    4.6151    2.8618 H         1 <0>         0.0787
     24 H7          1.7093    5.8544    1.5863 H         1 <0>         0.0645
     25 H8         -0.6214    6.0253    3.8169 H         1 <0>         0.1162
     26 H9         -0.6297    6.6030    0.6385 H         1 <0>         0.0656
     27 H10        -1.9262    5.6980    1.4908 H         1 <0>         0.0833
     28 H11         0.9736    7.9872    2.3250 H         1 <0>         0.0358
     29 H12        -0.6783    8.3164    2.9491 H         1 <0>         0.0433
     30 H13         1.0732    8.8345    4.7270 H         1 <0>         0.4039
@<TRIPOS>BOND
     1    1    5 1
     2    1    2 2
     3    1   19 1
     4    2    3 1
     5    2   12 1
     6    3   11 ar
     7    3    4 ar
     8    4    5 1
     9    4    7 ar
    10    5    6 1
    11    7    8 1
    12    7    9 ar
    13    9   10 ar
    14   10   11 ar
    15   10   20 1
    16   12   13 1
    17   12   21 1
    18   12   22 1
    19   13   16 1
    20   13   14 1
    21   14   15 1
    22   14   23 1
    23   14   24 1
    24   15   16 1
    25   15   17 1
    26   15   25 1
    27   16   26 1
    28   16   27 1
    29   17   18 1
    30   17   28 1
    31   17   29 1
    32   18   30 1
@<TRIPOS>MOLECULE
ZINC14977914
   32    34     0     0     0
SMALL
USER_CHARGES

@<TRIPOS>ATOM
      1 C1         -0.0164    1.3570    0.0095 C.2       1 <0>         0.1159
      2 C2          1.2492    1.8233   -0.0001 C.2       1 <0>        -0.2358
      3 C3          2.1192    0.7123   -0.0144 C.2       1 <0>         0.1270
      4 C4          1.3100   -0.4292   -0.0128 C.2       1 <0>        -0.0915
      5 N1          0.0021   -0.0041    0.0020 N.pl3     1 <0>        -0.5036
      6 H1         -0.7788   -0.5795    0.0064 H         1 <0>         0.4386
      7 C5          1.9314   -1.6949   -0.0259 C.2       1 <0>         0.5594
      8 O1          1.2663   -2.7172   -0.0254 O.2       1 <0>        -0.5175
      9 N2          3.2814   -1.7479   -0.0394 N.am      1 <0>        -0.6364
     10 H2          3.7287   -2.6085   -0.0489 H         1 <0>         0.4333
     11 C6          4.0176   -0.6064   -0.0403 C.2       1 <0>         0.3823
     12 N3          3.4665    0.5725   -0.0276 N.2       1 <0>        -0.5187
     13 C7          1.6609    3.2730    0.0038 C.3       1 <0>         0.0890
     14 N4          2.0124    3.6858   -1.3615 N.4       1 <0>        -0.4068
     15 C8          0.8550    4.1453   -2.1516 C.3       1 <0>         0.0040
     16 C9          1.7659    5.2233   -2.7556 C.3       1 <0>        -0.1267
     17 C10         2.5412    5.0602   -1.4407 C.3       1 <0>         0.0043
     18 C11         1.0955    6.5885   -2.9223 C.3       1 <0>         0.0854
     19 O2          1.9882    7.4786   -3.5951 O.3       1 <0>        -0.5696
     20 H3         -0.9064    1.9686    0.0254 H         1 <0>         0.1948
     21 H4          5.0951   -0.6795   -0.0513 H         1 <0>         0.2179
     22 H5          0.8347    3.8843    0.3669 H         1 <0>         0.1338
     23 H6          2.5240    3.4038    0.6565 H         1 <0>         0.1384
     24 H7          0.5077    3.4124   -2.8798 H         1 <0>         0.1361
     25 H8          0.0470    4.5509   -1.5426 H         1 <0>         0.1508
     26 H9          2.3143    4.8998   -3.6402 H         1 <0>         0.1378
     27 H10         2.1833    5.7099   -0.6421 H         1 <0>         0.1508
     28 H11         3.6231    5.1026   -1.5665 H         1 <0>         0.1393
     29 H12         0.1837    6.4763   -3.5089 H         1 <0>         0.0684
     30 H13         0.8487    6.9943   -1.9412 H         1 <0>         0.0618
     31 H14         1.6283    8.3651   -3.7353 H         1 <0>         0.3988
     32 H15         2.5839    3.0076   -1.8426 H         1 <0>         0.4387
@<TRIPOS>BOND
     1    1    5 1
     2    1    2 2
     3    1   20 1
     4    2    3 1
     5    2   13 1
     6    3   12 1
     7    3    4 2
     8    4    5 1
     9    4    7 1
    10    5    6 1
    11    7    8 2
    12    7    9 am
    13    9   10 1
    14    9   11 1
    15   11   12 2
    16   11   21 1
    17   13   14 1
    18   13   22 1
    19   13   23 1
    20   14   17 1
    21   14   15 1
    22   14   32 1
    23   15   16 1
    24   15   24 1
    25   15   25 1
    26   16   17 1
    27   16   18 1
    28   16   26 1
    29   17   27 1
    30   17   28 1
    31   18   19 1
    32   18   29 1
    33   18   30 1
    34   19   31 1
@<TRIPOS>MOLECULE
ZINC14977914
   31    33     0     0     0
SMALL
USER_CHARGES

@<TRIPOS>ATOM
      1 C1         -0.0164    1.3570    0.0095 C.2       1 <0>         0.0841
      2 C2          1.2529    1.8194   -0.0001 C.2       1 <0>        -0.1724
      3 C3          2.1145    0.7110   -0.0143 C.2       1 <0>         0.1099
      4 C4          1.3105   -0.4266   -0.0127 C.2       1 <0>        -0.0978
      5 N1          0.0021   -0.0041    0.0020 N.pl3     1 <0>        -0.5148
      6 H1         -0.7782   -0.5803    0.0067 H         1 <0>         0.4316
      7 C5          1.9397   -1.6940   -0.0256 C.2       1 <0>         0.5462
      8 O1          1.2718   -2.7165   -0.0251 O.2       1 <0>        -0.5133
      9 N2          3.2842   -1.7574   -0.0387 N.2       1 <0>        -0.5862
     10 C6          4.0204   -0.6802   -0.0400 C.2       1 <0>         0.4159
     11 N3          3.4841    0.5549   -0.0282 N.pl3     1 <0>        -0.5984
     12 C7          1.6698    3.2676    0.0029 C.3       1 <0>         0.0907
     13 N4          2.0231    3.6783   -1.3625 N.3       1 <0>        -0.4630
     14 C8          3.4724    3.5397   -1.5978 C.3       1 <0>        -0.0005
     15 C9          3.4232    4.8807   -2.3435 C.3       1 <0>        -0.1134
     16 C10         2.2062    5.1394   -1.4443 C.3       1 <0>         0.0030
     17 C11         4.6155    5.7976   -2.0631 C.3       1 <0>         0.0851
     18 O2          4.5281    6.9591   -2.8909 O.3       1 <0>        -0.5711
     19 H2         -0.9052    1.9703    0.0253 H         1 <0>         0.1852
     20 H3          5.0955   -0.7826   -0.0504 H         1 <0>         0.2113
     21 H4          0.8458    3.8821    0.3655 H         1 <0>         0.0892
     22 H5          2.5332    3.3957    0.6557 H         1 <0>         0.0526
     23 H6          4.0657    3.5725   -0.6841 H         1 <0>         0.0684
     24 H7          3.7296    2.6960   -2.2382 H         1 <0>         0.0879
     25 H8          3.1844    4.7934   -3.4035 H         1 <0>         0.1119
     26 H9          1.3903    5.6513   -1.9545 H         1 <0>         0.0908
     27 H10         2.4616    5.5991   -0.4896 H         1 <0>         0.0713
     28 H11         4.6052    6.0967   -1.0150 H         1 <0>         0.0466
     29 H12         5.5418    5.2656   -2.2801 H         1 <0>         0.0504
     30 H13         5.2534    7.5864   -2.7661 H         1 <0>         0.3822
     31 H14         4.0613    1.3345   -0.0296 H         1 <0>         0.4167
@<TRIPOS>BOND
     1    1    5 1
     2    1    2 2
     3    1   19 1
     4    2    3 1
     5    2   12 1
     6    3   11 1
     7    3    4 2
     8    4    5 1
     9    4    7 1
    10    5    6 1
    11    7    8 2
    12    7    9 1
    13    9   10 2
    14   10   11 1
    15   10   20 1
    16   11   31 1
    17   12   13 1
    18   12   21 1
    19   12   22 1
    20   13   16 1
    21   13   14 1
    22   14   15 1
    23   14   23 1
    24   14   24 1
    25   15   16 1
    26   15   17 1
    27   15   25 1
    28   16   26 1
    29   16   27 1
    30   17   18 1
    31   17   28 1
    32   17   29 1
    33   18   30 1
@<TRIPOS>MOLECULE
ZINC14977914
   32    34     0     0     0
SMALL
USER_CHARGES

@<TRIPOS>ATOM
      1 C1         -0.0164    1.3570    0.0095 C.2       1 <0>         0.1161
      2 C2          1.2529    1.8194   -0.0001 C.2       1 <0>        -0.2617
      3 C3          2.1145    0.7110   -0.0143 C.2       1 <0>         0.1172
      4 C4          1.3105   -0.4266   -0.0127 C.2       1 <0>        -0.0822
      5 N1          0.0021   -0.0041    0.0020 N.pl3     1 <0>        -0.4968
      6 H1         -0.7782   -0.5803    0.0067 H         1 <0>         0.4433
      7 C5          1.9397   -1.6940   -0.0256 C.2       1 <0>         0.5406
      8 O1          1.2718   -2.7165   -0.0251 O.2       1 <0>        -0.4829
      9 N2          3.2842   -1.7574   -0.0387 N.2       1 <0>        -0.5672
     10 C6          4.0204   -0.6802   -0.0400 C.2       1 <0>         0.4228
     11 N3          3.4841    0.5549   -0.0282 N.pl3     1 <0>        -0.6117
     12 C7          1.6698    3.2676    0.0029 C.3       1 <0>         0.0828
     13 N4          2.0231    3.6783   -1.3625 N.4       1 <0>        -0.4091
     14 C8          3.4291    3.4030   -1.7125 C.3       1 <0>        -0.0043
     15 C9          3.4431    4.7371   -2.4719 C.3       1 <0>        -0.1224
     16 C10         2.3333    5.1152   -1.4810 C.3       1 <0>         0.0026
     17 C11         4.7342    5.5405   -2.3031 C.3       1 <0>         0.0845
     18 O2          4.6870    6.6989   -3.1385 O.3       1 <0>        -0.5689
     19 H2         -0.9052    1.9703    0.0253 H         1 <0>         0.1967
     20 H3          5.0955   -0.7826   -0.0504 H         1 <0>         0.2202
     21 H4          0.8458    3.8821    0.3655 H         1 <0>         0.1426
     22 H5          2.5332    3.3957    0.6557 H         1 <0>         0.1319
     23 H6          4.0960    3.3871   -0.8504 H         1 <0>         0.1469
     24 H7          3.5536    2.5342   -2.3587 H         1 <0>         0.1384
     25 H8          3.1110    4.6646   -3.5076 H         1 <0>         0.1405
     26 H9          1.5292    5.6974   -1.9311 H         1 <0>         0.1417
     27 H10         2.7078    5.5562   -0.5572 H         1 <0>         0.1522
     28 H11         4.8378    5.8472   -1.2622 H         1 <0>         0.0621
     29 H12         5.5863    4.9227   -2.5863 H         1 <0>         0.0696
     30 H13         5.4750    7.2566   -3.0825 H         1 <0>         0.4003
     31 H14         1.3652    3.3515   -2.0543 H         1 <0>         0.4394
     32 H15         4.0613    1.3345   -0.0296 H         1 <0>         0.4147
@<TRIPOS>BOND
     1    1    5 1
     2    1    2 2
     3    1   19 1
     4    2    3 1
     5    2   12 1
     6    3   11 1
     7    3    4 2
     8    4    5 1
     9    4    7 1
    10    5    6 1
    11    7    8 2
    12    7    9 1
    13    9   10 2
    14   10   11 1
    15   10   20 1
    16   11   32 1
    17   12   13 1
    18   12   21 1
    19   12   22 1
    20   13   16 1
    21   13   14 1
    22   13   31 1
    23   14   15 1
    24   14   23 1
    25   14   24 1
    26   15   16 1
    27   15   17 1
    28   15   25 1
    29   16   26 1
    30   16   27 1
    31   17   18 1
    32   17   28 1
    33   17   29 1
    34   18   30 1
@<TRIPOS>MOLECULE
ZINC21290085
   35    37     0     0     0
SMALL
USER_CHARGES
(3S)-3-(2-amino-4-oxo-3,5-dihydropyrrolo[4,5-d]pyrimidin-7-yl)-3-(3-chlorophenyl)propanoic acid
@<TRIPOS>ATOM
      1 C1         -3.2763    8.3860    2.6376 C.ar      1 <0>        -0.1148
      2 C2         -3.0916    7.6192    1.5020 C.ar      1 <0>        -0.1214
      3 C3         -1.8786    6.9953    1.2785 C.ar      1 <0>        -0.0159
      4 C4         -0.8460    7.1462    2.1851 C.ar      1 <0>        -0.0673
      5 C5         -1.0286    7.9176    3.3188 C.ar      1 <0>        -0.0336
      6 C6         -2.2448    8.5377    3.5446 C.ar      1 <0>        -0.1289
      7 Cl1         0.2679    8.1081    4.4575 Cl        1 <0>        -0.0893
      8 C7         -1.6798    6.1554    0.0432 C.3       1 <0>         0.0395
      9 H1         -0.6609    5.7408    0.0510 H         1 <0>         0.0952
     10 C8         -1.8914    7.0203   -1.2011 C.3       1 <0>        -0.1446
     11 C9         -0.8223    8.0806   -1.2635 C.2       1 <0>         0.4605
     12 O1          0.0222    8.1386   -0.4014 O.co2     1 <0>        -0.6292
     13 O2         -0.8083    8.9606   -2.2770 O.co2     1 <0>        -0.7802
     14 C10        -2.6724    5.0215    0.0415 C.2       1 <0>        -0.1500
     15 C11        -4.0153    5.1426    0.0478 C.2       1 <0>         0.0652
     16 N1         -4.5829    3.9052    0.0438 N.pl3     1 <0>        -0.5392
     17 H2         -5.6781    3.8024    0.0479 H         1 <0>         0.4466
     18 C12        -3.5807    2.9582    0.0347 C.2       1 <0>        -0.1358
     19 C13        -2.3607    3.6443    0.0331 C.2       1 <0>         0.1683
     20 N2         -1.2066    2.9482    0.0292 N.2       1 <0>        -0.5534
     21 C14        -1.2100    1.6365    0.0167 C.2       1 <0>         0.6143
     22 N3         -2.3706    0.9195    0.0183 N.am      1 <0>        -0.6674
     23 C15        -3.5649    1.5510    0.0269 C.2       1 <0>         0.5838
     24 O3         -4.6062    0.9156    0.0276 O.2       1 <0>        -0.5602
     25 N4         -0.0111    0.9658    0.0074 N.pl3     1 <0>        -0.8582
     26 H3         -4.2257    8.8699    2.8137 H         1 <0>         0.1230
     27 H4         -3.8966    7.5046    0.7911 H         1 <0>         0.1195
     28 H5          0.1029    6.6618    2.0085 H         1 <0>         0.1307
     29 H6         -2.3878    9.1403    4.4293 H         1 <0>         0.1227
     30 H7         -1.8349    6.3892   -2.1003 H         1 <0>         0.0677
     31 H8         -2.8804    7.4992   -1.1509 H         1 <0>         0.0626
     32 H9         -4.5569    6.0769    0.0552 H         1 <0>         0.1780
     33 H10         0.0038   -0.1340   -0.0031 H         1 <0>         0.4266
     34 H11         0.9340    1.5286    0.0105 H         1 <0>         0.4515
     35 H12        -2.3378   -0.1800    0.0126 H         1 <0>         0.4338
@<TRIPOS>BOND
     1    1    6 ar
     2    1    2 ar
     3    1   26 1
     4    2    3 ar
     5    2   27 1
     6    3    4 ar
     7    3    8 1
     8    4    5 ar
     9    4   28 1
    10    5    6 ar
    11    5    7 1
    12    6   29 1
    13    8    9 1
    14    8   10 1
    15    8   14 1
    16   10   11 1
    17   10   30 1
    18   10   31 1
    19   11   12 2
    20   11   13 1
    21   14   19 1
    22   14   15 2
    23   15   16 1
    24   15   32 1
    25   16   17 1
    26   16   18 1
    27   18   23 1
    28   18   19 2
    29   19   20 1
    30   20   21 2
    31   21   22 1
    32   21   25 1
    33   22   23 am
    34   22   35 1
    35   23   24 2
    36   25   33 1
    37   25   34 1
@<TRIPOS>MOLECULE
ZINC21290085
   34    36     0     0     0
SMALL
USER_CHARGES
(3S)-3-(2-amino-4-oxo-3,5-dihydropyrrolo[4,5-d]pyrimidin-7-yl)-3-(3-chlorophenyl)propanoic acid
@<TRIPOS>ATOM
      1 C1         -3.2763    8.3860    2.6376 C.ar      1 <0>        -0.1190
      2 C2         -3.0916    7.6192    1.5020 C.ar      1 <0>        -0.1185
      3 C3         -1.8786    6.9953    1.2785 C.ar      1 <0>        -0.0002
      4 C4         -0.8460    7.1462    2.1851 C.ar      1 <0>        -0.0687
      5 C5         -1.0286    7.9176    3.3188 C.ar      1 <0>        -0.0346
      6 C6         -2.2448    8.5377    3.5446 C.ar      1 <0>        -0.1376
      7 Cl1         0.2679    8.1081    4.4575 Cl        1 <0>        -0.0995
      8 C7         -1.6798    6.1554    0.0432 C.3       1 <0>         0.0454
      9 H1         -0.6609    5.7408    0.0510 H         1 <0>         0.0889
     10 C8         -1.8914    7.0203   -1.2011 C.3       1 <0>        -0.1403
     11 C9         -0.8223    8.0806   -1.2635 C.2       1 <0>         0.4622
     12 O1          0.0222    8.1386   -0.4014 O.co2     1 <0>        -0.6311
     13 O2         -0.8083    8.9606   -2.2770 O.co2     1 <0>        -0.7912
     14 C10        -2.6724    5.0215    0.0415 C.2       1 <0>        -0.1767
     15 C11        -4.0153    5.1426    0.0478 C.2       1 <0>         0.0191
     16 N1         -4.5829    3.9052    0.0438 N.pl3     1 <0>        -0.5550
     17 H2         -5.6781    3.8024    0.0479 H         1 <0>         0.4220
     18 C12        -3.5807    2.9582    0.0347 C.ar      1 <0>        -0.1669
     19 C13        -2.3607    3.6443    0.0331 C.ar      1 <0>         0.1691
     20 N2         -1.2066    2.9482    0.0292 N.ar      1 <0>        -0.6501
     21 C14        -1.2100    1.6365    0.0167 C.ar      1 <0>         0.5807
     22 N3         -2.3706    0.9195    0.0183 N.ar      1 <0>        -0.7166
     23 C15        -3.5649    1.5510    0.0269 C.ar      1 <0>         0.5409
     24 O3         -4.6062    0.9156    0.0276 O.3       1 <0>        -0.6452
     25 N4         -0.0111    0.9658    0.0074 N.pl3     1 <0>        -0.8626
     26 H3         -4.2257    8.8699    2.8137 H         1 <0>         0.1187
     27 H4         -3.8966    7.5046    0.7911 H         1 <0>         0.1206
     28 H5          0.1029    6.6618    2.0085 H         1 <0>         0.1296
     29 H6         -2.3878    9.1403    4.4293 H         1 <0>         0.1177
     30 H7         -1.8349    6.3892   -2.1003 H         1 <0>         0.0663
     31 H8         -2.8804    7.4992   -1.1509 H         1 <0>         0.0578
     32 H9         -4.5569    6.0769    0.0552 H         1 <0>         0.1526
     33 H10         0.0038   -0.1340   -0.0031 H         1 <0>         0.4104
     34 H11         0.9340    1.5286    0.0105 H         1 <0>         0.4118
@<TRIPOS>BOND
     1    1    6 ar
     2    1    2 ar
     3    1   26 1
     4    2    3 ar
     5    2   27 1
     6    3    4 ar
     7    3    8 1
     8    4    5 ar
     9    4   28 1
    10    5    6 ar
    11    5    7 1
    12    6   29 1
    13    8    9 1
    14    8   10 1
    15    8   14 1
    16   10   11 1
    17   10   30 1
    18   10   31 1
    19   11   12 2
    20   11   13 1
    21   14   19 1
    22   14   15 2
    23   15   16 1
    24   15   32 1
    25   16   17 1
    26   16   18 1
    27   18   23 ar
    28   18   19 ar
    29   19   20 ar
    30   20   21 ar
    31   21   22 ar
    32   21   25 1
    33   22   23 ar
    34   23   24 1
    35   25   33 1
    36   25   34 1
@<TRIPOS>MOLECULE
ZINC05420970
   29    31     0     0     0
SMALL
USER_CHARGES
2-amino-7-(3-pyridylmethyl)-3,5-dihydropyrrolo[2,3-e]pyrimidin-4-one
@<TRIPOS>ATOM
      1 C1         -0.0837    3.7947    0.0223 C.ar      1 <0>        -0.1737
      2 C2          1.1498    3.1612    0.0076 C.ar      1 <0>        -0.0618
      3 C3          1.1797    1.7752    0.0003 C.ar      1 <0>        -0.1209
      4 C4         -0.0126    1.0758    0.0080 C.ar      1 <0>         0.0983
      5 N1         -1.1675    1.7118    0.0169 N.ar      1 <0>        -0.4867
      6 C5         -1.2339    3.0290    0.0292 C.ar      1 <0>         0.0877
      7 C6          2.4953    1.0405   -0.0162 C.3       1 <0>         0.0024
      8 C7          2.9203    0.8032   -1.4424 C.2       1 <0>        -0.1755
      9 C8          2.6925   -0.3136   -2.1628 C.2       1 <0>         0.0720
     10 N2          3.2208   -0.1660   -3.4087 N.pl3     1 <0>        -0.5363
     11 H1          3.1328   -0.9799   -4.1434 H         1 <0>         0.4518
     12 C9          3.8059    1.0795   -3.4971 C.2       1 <0>        -0.1349
     13 C10         3.6220    1.7134   -2.2627 C.2       1 <0>         0.1714
     14 N3          4.1100    2.9555   -2.0742 N.2       1 <0>        -0.5668
     15 C11         4.7453    3.5837   -3.0348 C.2       1 <0>         0.6242
     16 N4          4.9462    3.0138   -4.2578 N.am      1 <0>        -0.6682
     17 C12         4.4899    1.7687   -4.5158 C.2       1 <0>         0.5820
     18 O1          4.6670    1.2532   -5.6071 O.2       1 <0>        -0.5491
     19 N5          5.2220    4.8510   -2.8024 N.pl3     1 <0>        -0.8555
     20 H2         -0.1446    4.8730    0.0280 H         1 <0>         0.1314
     21 H3          2.0654    3.7339    0.0016 H         1 <0>         0.1366
     22 H4          0.0021   -0.0041    0.0020 H         1 <0>         0.1513
     23 H5         -2.1984    3.5147    0.0407 H         1 <0>         0.1518
     24 H6          3.2583    1.6431    0.4983 H         1 <0>         0.0854
     25 H7          2.3825    0.0748    0.4983 H         1 <0>         0.0816
     26 H8          2.1713   -1.1898   -1.8065 H         1 <0>         0.1796
     27 H9          5.7569    5.3917   -3.5971 H         1 <0>         0.4320
     28 H10         5.0688    5.3250   -1.8217 H         1 <0>         0.4506
     29 H11         5.4828    3.5685   -5.0416 H         1 <0>         0.4393
@<TRIPOS>BOND
     1    1    6 ar
     2    1    2 ar
     3    1   20 1
     4    2    3 ar
     5    2   21 1
     6    3    4 ar
     7    3    7 1
     8    4    5 ar
     9    4   22 1
    10    5    6 ar
    11    6   23 1
    12    7    8 1
    13    7   24 1
    14    7   25 1
    15    8   13 1
    16    8    9 2
    17    9   10 1
    18    9   26 1
    19   10   11 1
    20   10   12 1
    21   12   17 1
    22   12   13 2
    23   13   14 1
    24   14   15 2
    25   15   16 1
    26   15   19 1
    27   16   17 am
    28   16   29 1
    29   17   18 2
    30   19   27 1
    31   19   28 1
@<TRIPOS>MOLECULE
ZINC05420970
   28    30     0     0     0
SMALL
USER_CHARGES
2-amino-7-(3-pyridylmethyl)-3,5-dihydropyrrolo[2,3-e]pyrimidin-4-one
@<TRIPOS>ATOM
      1 C1         -0.0837    3.7947    0.0223 C.ar      1 <0>        -0.1747
      2 C2          1.1498    3.1612    0.0076 C.ar      1 <0>        -0.0590
      3 C3          1.1797    1.7752    0.0003 C.ar      1 <0>        -0.1038
      4 C4         -0.0126    1.0758    0.0080 C.ar      1 <0>         0.0917
      5 N1         -1.1675    1.7118    0.0169 N.ar      1 <0>        -0.4916
      6 C5         -1.2339    3.0290    0.0292 C.ar      1 <0>         0.0757
      7 C6          2.4953    1.0405   -0.0162 C.3       1 <0>         0.0121
      8 C7          2.9203    0.8032   -1.4424 C.2       1 <0>        -0.2037
      9 C8          2.6925   -0.3136   -2.1628 C.2       1 <0>         0.0251
     10 N2          3.2208   -0.1660   -3.4087 N.pl3     1 <0>        -0.5492
     11 H1          3.1328   -0.9799   -4.1434 H         1 <0>         0.4279
     12 C9          3.8059    1.0795   -3.4971 C.ar      1 <0>        -0.1682
     13 C10         3.6220    1.7134   -2.2627 C.ar      1 <0>         0.1722
     14 N3          4.1100    2.9555   -2.0742 N.ar      1 <0>        -0.6597
     15 C11         4.7453    3.5837   -3.0348 C.ar      1 <0>         0.5872
     16 N4          4.9462    3.0138   -4.2578 N.ar      1 <0>        -0.7124
     17 C12         4.4899    1.7687   -4.5158 C.ar      1 <0>         0.5403
     18 O1          4.6670    1.2532   -5.6071 O.3       1 <0>        -0.6337
     19 N5          5.2220    4.8510   -2.8024 N.pl3     1 <0>        -0.8612
     20 H2         -0.1446    4.8730    0.0280 H         1 <0>         0.1275
     21 H3          2.0654    3.7339    0.0016 H         1 <0>         0.1390
     22 H4          0.0021   -0.0041    0.0020 H         1 <0>         0.1485
     23 H5         -2.1984    3.5147    0.0407 H         1 <0>         0.1465
     24 H6          3.2583    1.6431    0.4983 H         1 <0>         0.0767
     25 H7          2.3825    0.0748    0.4983 H         1 <0>         0.0667
     26 H8          2.1713   -1.1898   -1.8065 H         1 <0>         0.1539
     27 H9          5.7569    5.3917   -3.5971 H         1 <0>         0.4156
     28 H10         5.0688    5.3250   -1.8217 H         1 <0>         0.4106
@<TRIPOS>BOND
     1    1    6 ar
     2    1    2 ar
     3    1   20 1
     4    2    3 ar
     5    2   21 1
     6    3    4 ar
     7    3    7 1
     8    4    5 ar
     9    4   22 1
    10    5    6 ar
    11    6   23 1
    12    7    8 1
    13    7   24 1
    14    7   25 1
    15    8   13 1
    16    8    9 2
    17    9   10 1
    18    9   26 1
    19   10   11 1
    20   10   12 1
    21   12   17 ar
    22   12   13 ar
    23   13   14 ar
    24   14   15 ar
    25   15   16 ar
    26   15   19 1
    27   16   17 ar
    28   17   18 1
    29   19   27 1
    30   19   28 1
@<TRIPOS>MOLECULE
ZINC13798500
   35    37     0     0     0
SMALL
USER_CHARGES

@<TRIPOS>ATOM
      1 C1         -0.0167    1.3777    0.0096 C.ar      1 <0>        -0.1072
      2 C2          1.1710    2.0855    0.0021 C.ar      1 <0>        -0.1113
      3 C3          2.3777    1.4116   -0.0130 C.ar      1 <0>        -0.0400
      4 C4          2.3977    0.0294   -0.0210 C.ar      1 <0>        -0.1088
      5 C5          1.2098   -0.6793   -0.0135 C.ar      1 <0>        -0.0319
      6 C6          0.0021   -0.0041    0.0020 C.ar      1 <0>        -0.1278
      7 Cl1         1.2341   -2.4151   -0.0242 Cl        1 <0>        -0.0840
      8 C7          3.6718    2.1839   -0.0212 C.3       1 <0>         0.0419
      9 H1          3.4573    3.2525   -0.0135 H         1 <0>         0.0979
     10 C8          4.4912    1.8192    1.2183 C.3       1 <0>        -0.1728
     11 C9          5.7270    2.6798    1.2746 C.2       1 <0>         0.4894
     12 O1          5.9333    3.5080    0.4040 O.co2     1 <0>        -0.6720
     13 O2          6.5206    2.5478    2.1908 O.co2     1 <0>        -0.7152
     14 C10         4.4554    1.8378   -1.2611 C.2       1 <0>        -0.1066
     15 C11         4.8901    0.6095   -1.6078 C.2       1 <0>         0.0576
     16 N1          5.5608    0.6821   -2.7903 N.pl3     1 <0>        -0.5309
     17 H2          5.9711   -0.0645   -3.2540 H         1 <0>         0.4179
     18 C12         5.5601    1.9923   -3.2202 C.2       1 <0>        -0.1495
     19 C13         4.8590    2.7416   -2.2682 C.2       1 <0>         0.2032
     20 N2          4.7033    4.0680   -2.4494 N.2       1 <0>        -0.5164
     21 C14         5.1966    4.6668   -3.5072 C.2       1 <0>         0.5964
     22 N3          5.8843    3.9828   -4.4666 N.am      1 <0>        -0.6521
     23 C15         6.0862    2.6524   -4.3463 C.2       1 <0>         0.5833
     24 O3          6.6992    2.0349   -5.2012 O.2       1 <0>        -0.5630
     25 N4          5.0152    6.0207   -3.6532 N.pl3     1 <0>        -0.8346
     26 H3         -0.9592    1.9048    0.0259 H         1 <0>         0.1272
     27 H4          1.1559    3.1654    0.0076 H         1 <0>         0.1295
     28 H5          3.3407   -0.4970   -0.0336 H         1 <0>         0.1300
     29 H6         -0.9257   -0.5568    0.0079 H         1 <0>         0.1260
     30 H7          3.8910    1.9863    2.1127 H         1 <0>         0.0583
     31 H8          4.7813    0.7698    1.1663 H         1 <0>         0.0543
     32 H9          4.7312   -0.2926   -1.0357 H         1 <0>         0.1717
     33 H10         4.5281    6.5202   -2.9794 H         1 <0>         0.4251
     34 H11         5.3742    6.4771   -4.4302 H         1 <0>         0.4053
     35 H12         6.2356    4.4558   -5.2371 H         1 <0>         0.4089
@<TRIPOS>BOND
     1    1    6 ar
     2    1    2 ar
     3    1   26 1
     4    2    3 ar
     5    2   27 1
     6    3    4 ar
     7    3    8 1
     8    4    5 ar
     9    4   28 1
    10    5    6 ar
    11    5    7 1
    12    6   29 1
    13    8    9 1
    14    8   10 1
    15    8   14 1
    16   10   11 1
    17   10   30 1
    18   10   31 1
    19   11   12 2
    20   11   13 1
    21   14   19 1
    22   14   15 2
    23   15   16 1
    24   15   32 1
    25   16   17 1
    26   16   18 1
    27   18   23 1
    28   18   19 2
    29   19   20 1
    30   20   21 2
    31   21   22 1
    32   21   25 1
    33   22   23 am
    34   22   35 1
    35   23   24 2
    36   25   33 1
    37   25   34 1
@<TRIPOS>MOLECULE
ZINC00005543
   27    29     0     0     0
SMALL
USER_CHARGES

@<TRIPOS>ATOM
      1 C1         -0.0167    1.3781    0.0096 C.2       1 <0>        -0.1486
      2 C2          1.1597    2.0514    0.0020 C.2       1 <0>        -0.1772
      3 S1          2.3478    0.7191   -0.0165 S.3       1 <0>         0.0119
      4 C3          1.1962   -0.6452   -0.0128 C.2       1 <0>        -0.1522
      5 C4          0.0021   -0.0041    0.0020 C.2       1 <0>        -0.1166
      6 C5         -1.2859   -0.7864    0.0106 C.3       1 <0>         0.0155
      7 C6         -1.7293   -1.0396   -1.4073 C.2       1 <0>        -0.1623
      8 C7         -2.5984   -0.2881   -2.1129 C.2       1 <0>         0.0805
      9 N1         -2.7562   -0.8221   -3.3552 N.pl3     1 <0>        -0.5242
     10 H1         -3.3281   -0.4681   -4.0540 H         1 <0>         0.4246
     11 C8         -1.9683   -1.9493   -3.4561 C.2       1 <0>        -0.1424
     12 C9         -1.3036   -2.1023   -2.2338 C.2       1 <0>         0.1728
     13 N2         -0.4554   -3.1357   -2.0632 N.2       1 <0>        -0.5535
     14 C10        -0.2410   -3.9988   -3.0277 C.2       1 <0>         0.6170
     15 N3         -0.8598   -3.8933   -4.2389 N.am      1 <0>        -0.6525
     16 C11        -1.7295   -2.8874   -4.4776 C.2       1 <0>         0.5821
     17 O1         -2.2851   -2.7869   -5.5589 O.2       1 <0>        -0.5429
     18 N4          0.6315   -5.0378   -2.8120 N.pl3     1 <0>        -0.8286
     19 H2         -0.9545    1.9134    0.0259 H         1 <0>         0.1313
     20 H3          1.3332    3.1174    0.0058 H         1 <0>         0.1823
     21 H4          1.3986   -1.7060   -0.0210 H         1 <0>         0.1854
     22 H5         -1.1294   -1.7384    0.5178 H         1 <0>         0.0837
     23 H6         -2.0533   -0.2172    0.5351 H         1 <0>         0.0771
     24 H7         -3.0931    0.6002   -1.7488 H         1 <0>         0.1811
     25 H8          1.0791   -5.1255   -1.9559 H         1 <0>         0.4272
     26 H9          0.8000   -5.6837   -3.5158 H         1 <0>         0.4122
     27 H10        -0.6787   -4.5482   -4.9311 H         1 <0>         0.4163
@<TRIPOS>BOND
     1    1    5 1
     2    1    2 2
     3    1   19 1
     4    2    3 1
     5    2   20 1
     6    3    4 1
     7    4    5 2
     8    4   21 1
     9    5    6 1
    10    6    7 1
    11    6   22 1
    12    6   23 1
    13    7   12 1
    14    7    8 2
    15    8    9 1
    16    8   24 1
    17    9   10 1
    18    9   11 1
    19   11   16 1
    20   11   12 2
    21   12   13 1
    22   13   14 2
    23   14   15 1
    24   14   18 1
    25   15   16 am
    26   15   27 1
    27   16   17 2
    28   18   25 1
    29   18   26 1
@<TRIPOS>MOLECULE
ZINC13514984
   18    19     0     0     0
SMALL
USER_CHARGES

@<TRIPOS>ATOM
      1 C1         -0.0164    1.3551    0.0095 C.2       1 <0>        -0.1160
      2 C2         -1.3560    1.7543    0.0177 C.2       1 <0>         0.2980
      3 N1         -2.1006    0.6013    0.0148 N.pl3     1 <0>        -0.5807
      4 H1         -3.0689    0.5438    0.0183 H         1 <0>         0.4252
      5 C3         -1.2273   -0.4522    0.0051 C.2       1 <0>         0.5025
      6 N2          0.0021   -0.0041    0.0020 N.2       1 <0>        -0.4735
      7 N3         -1.5890   -1.7869   -0.0001 N.pl3     1 <0>        -0.8323
      8 N4         -1.6595    3.0578    0.0257 N.2       1 <0>        -0.5771
      9 C4         -0.7178    3.9744    0.0261 C.2       1 <0>         0.6477
     10 N5          0.6052    3.6466    0.0179 N.am      1 <0>        -0.6536
     11 H2          1.2761    4.3471    0.0185 H         1 <0>         0.4194
     12 C5          0.9865    2.3502    0.0053 C.2       1 <0>         0.5899
     13 O1          2.1677    2.0466   -0.0077 O.2       1 <0>        -0.5106
     14 N6         -1.0767    5.2999    0.0346 N.pl3     1 <0>        -0.8206
     15 H3         -2.5266   -2.0354    0.0031 H         1 <0>         0.4099
     16 H4         -0.9050   -2.4747   -0.0070 H         1 <0>         0.4262
     17 H5         -2.0143    5.5484    0.0401 H         1 <0>         0.4286
     18 H6         -0.3927    5.9876    0.0349 H         1 <0>         0.4171
@<TRIPOS>BOND
     1    1    6 1
     2    1   12 1
     3    1    2 2
     4    2    3 1
     5    2    8 1
     6    3    4 1
     7    3    5 1
     8    5    6 2
     9    5    7 1
    10    7   15 1
    11    7   16 1
    12    8    9 2
    13    9   10 1
    14    9   14 1
    15   10   11 1
    16   10   12 am
    17   12   13 2
    18   14   17 1
    19   14   18 1
@<TRIPOS>MOLECULE
ZINC13514984
   18    19     0     0     0
SMALL
USER_CHARGES

@<TRIPOS>ATOM
      1 C1         -0.0169    1.3964    0.0097 C.2       1 <0>        -0.2071
      2 C2         -1.2487    2.0609    0.0182 C.2       1 <0>         0.3751
      3 N1         -2.3857    1.3381    0.0191 N.2       1 <0>        -0.5555
      4 C3         -2.3522    0.0261    0.0121 C.2       1 <0>         0.6432
      5 N2         -1.1769   -0.6648    0.0037 N.am      1 <0>        -0.6526
      6 C4          0.0021   -0.0041    0.0020 C.2       1 <0>         0.5896
      7 O1          1.0592   -0.6138   -0.0109 O.2       1 <0>        -0.5447
      8 N3         -3.5352   -0.6709    0.0137 N.pl3     1 <0>        -0.8211
      9 N4         -0.9896    3.3782    0.0236 N.2       1 <0>        -0.5317
     10 C5          0.3097    3.5800    0.0191 C.2       1 <0>         0.5608
     11 N5          0.9587    2.3840    0.0057 N.pl3     1 <0>        -0.5678
     12 H1          1.9190    2.2476   -0.0037 H         1 <0>         0.4261
     13 N6          0.9204    4.8135    0.0219 N.pl3     1 <0>        -0.8220
     14 H2         -4.3795   -0.1934    0.0200 H         1 <0>         0.4302
     15 H3         -3.5266   -1.6408    0.0086 H         1 <0>         0.4154
     16 H4          0.3828    5.6208    0.0280 H         1 <0>         0.4288
     17 H5          1.8884    4.8754    0.0178 H         1 <0>         0.4144
     18 H6         -1.1870   -1.6348   -0.0014 H         1 <0>         0.4189
@<TRIPOS>BOND
     1    1    6 1
     2    1   11 1
     3    1    2 2
     4    2    3 1
     5    2    9 1
     6    3    4 2
     7    4    5 1
     8    4    8 1
     9    5    6 am
    10    5   18 1
    11    6    7 2
    12    8   14 1
    13    8   15 1
    14    9   10 2
    15   10   11 1
    16   10   13 1
    17   11   12 1
    18   13   16 1
    19   13   17 1
