@<TRIPOS>MOLECULE
ZINC00031235
   40    41     0     0     0
SMALL
USER_CHARGES

@<TRIPOS>ATOM
      1 C1          2.2891    1.3159    1.1054 C.ar      1 <0>        -0.0873
      2 C2          1.2155    2.0695    0.6753 C.ar      1 <0>        -0.0708
      3 C3          0.1275    1.4474    0.0623 C.ar      1 <0>        -0.1375
      4 C4          0.1293    0.0642   -0.1140 C.ar      1 <0>        -0.0685
      5 C5          1.2121   -0.6839    0.3207 C.ar      1 <0>         0.1642
      6 C6          2.2911   -0.0550    0.9306 C.ar      1 <0>        -0.0792
      7 N1          1.2188   -2.0725    0.1460 N.am      1 <0>        -0.6774
      8 C7          0.0717   -2.7713    0.2580 C.2       1 <0>         0.7129
      9 O1         -0.9815   -2.1879    0.4270 O.2       1 <0>        -0.5573
     10 N2          0.0923   -4.1168    0.1827 N.am      1 <0>        -0.6790
     11 C8         -1.1081   -4.8366    0.1910 C.ar      1 <0>         0.1731
     12 C9         -2.2447   -4.2991   -0.4013 C.ar      1 <0>        -0.0624
     13 C10        -3.4324   -5.0058   -0.3952 C.ar      1 <0>        -0.0886
     14 C11        -3.4973   -6.2502    0.1987 C.ar      1 <0>        -0.0714
     15 C12        -2.3617   -6.7983    0.7959 C.ar      1 <0>        -0.1308
     16 C13        -1.1619   -6.0878    0.7848 C.ar      1 <0>        -0.0940
     17 C14        -2.4288   -8.1319    1.4337 C.cat     1 <0>         0.6018
     18 N3         -3.5689   -8.5535    1.9768 N.pl3     1 <0>        -0.7537
     19 N4         -1.3489   -8.9102    1.4644 N.pl3     1 <0>        -0.7570
     20 C15        -1.0251    2.2530   -0.3987 C.cat     1 <0>         0.6040
     21 N5         -1.3463    3.3790    0.2349 N.pl3     1 <0>        -0.7546
     22 N6         -1.7409    1.8516   -1.4472 N.pl3     1 <0>        -0.7569
     23 H1          3.1322    1.7997    1.5760 H         1 <0>         0.1566
     24 H2          1.2176    3.1406    0.8136 H         1 <0>         0.1450
     25 H3         -0.7104   -0.4226   -0.5876 H         1 <0>         0.1547
     26 H4          3.1338   -0.6396    1.2691 H         1 <0>         0.1500
     27 H5          2.0489   -2.5320   -0.0557 H         1 <0>         0.4219
     28 H6          0.9389   -4.5864    0.1228 H         1 <0>         0.4196
     29 H7         -2.1999   -3.3260   -0.8674 H         1 <0>         0.1523
     30 H8         -4.3127   -4.5830   -0.8563 H         1 <0>         0.1535
     31 H9         -4.4272   -6.7994    0.2015 H         1 <0>         0.1451
     32 H10        -0.2785   -6.5092    1.2414 H         1 <0>         0.1444
     33 H11        -4.3556   -7.9865    1.9544 H         1 <0>         0.4475
     34 H12        -0.5183   -8.6031    1.0688 H         1 <0>         0.4453
     35 H13        -1.3929   -9.7844    1.8825 H         1 <0>         0.4360
     36 H14        -0.8249    3.6714    0.9988 H         1 <0>         0.4475
     37 H15        -1.5069    1.0313   -1.9089 H         1 <0>         0.4450
     38 H16        -2.4964    2.3796   -1.7494 H         1 <0>         0.4347
     39 H17        -3.6129   -9.4277    2.3949 H         1 <0>         0.4363
     40 H18        -2.1018    3.9070   -0.0673 H         1 <0>         0.4353
@<TRIPOS>BOND
     1    1    6 ar
     2    1    2 ar
     3    1   23 1
     4    2    3 ar
     5    2   24 1
     6    3    4 ar
     7    3   20 1
     8    4    5 ar
     9    4   25 1
    10    5    6 ar
    11    5    7 1
    12    6   26 1
    13    7    8 am
    14    7   27 1
    15    8    9 2
    16    8   10 am
    17   10   11 1
    18   10   28 1
    19   11   16 ar
    20   11   12 ar
    21   12   13 ar
    22   12   29 1
    23   13   14 ar
    24   13   30 1
    25   14   15 ar
    26   14   31 1
    27   15   16 ar
    28   15   17 1
    29   16   32 1
    30   17   18 2
    31   17   19 1
    32   18   33 1
    33   18   39 1
    34   19   34 1
    35   19   35 1
    36   20   21 2
    37   20   22 1
    38   21   36 1
    39   21   40 1
    40   22   37 1
    41   22   38 1
@<TRIPOS>MOLECULE
ZINC04100450
   38    40     0     0     0
SMALL
USER_CHARGES

@<TRIPOS>ATOM
      1 C1         -0.0173    1.4248    0.0099 C.3       1 <0>         0.0205
      2 O1          0.0021   -0.0041    0.0020 O.3       1 <0>        -0.3070
      3 C2         -1.2003   -0.6375    0.0101 C.ar      1 <0>         0.1931
      4 C3         -2.3746    0.1011    0.0195 C.ar      1 <0>        -0.2283
      5 C4         -3.5956   -0.5451    0.0272 C.ar      1 <0>         0.0226
      6 C5         -3.6478   -1.9268    0.0260 C.ar      1 <0>        -0.7167
      7 C6         -2.4788   -2.6651    0.0172 C.ar      1 <0>         0.0326
      8 C7         -1.2554   -2.0237    0.0032 C.ar      1 <0>        -0.1691
      9 S1         -5.2067   -2.7480    0.0365 S.o2      1 <0>         2.6981
     10 O2         -4.9816   -4.0397    0.5843 O.2       1 <0>        -0.9035
     11 O3         -6.1424   -1.8361    0.5952 O.2       1 <0>        -0.9345
     12 N1         -5.6514   -2.9744   -1.5425 N.pl3     1 <0>        -0.7443
     13 C8         -6.3732   -2.1097   -2.3013 C.2       1 <0>         0.4031
     14 C9         -6.5199   -2.6686   -3.5338 C.2       1 <0>        -0.3056
     15 C10        -5.8677   -3.9093   -3.5223 C.2       1 <0>         0.3099
     16 N2         -5.3445   -4.0889   -2.3334 N.2       1 <0>        -0.2592
     17 O4         -5.7874   -4.7762   -4.5667 O.3       1 <0>        -0.2521
     18 C11        -5.1173   -5.9320   -4.3804 C.2       1 <0>         0.5432
     19 O5         -4.6072   -6.1723   -3.3025 O.2       1 <0>        -0.4339
     20 C12        -5.0037   -6.8970   -5.4753 C.2       1 <0>        -0.2584
     21 C13        -4.3709   -8.1319   -5.4908 C.2       1 <0>        -0.0466
     22 C14        -4.4336   -8.8193   -6.6785 C.2       1 <0>        -0.1908
     23 C15        -5.0897   -8.2642   -7.7279 C.2       1 <0>        -0.2167
     24 S2         -5.6491   -6.7956   -7.1340 S.3       1 <0>         0.2615
     25 N3         -6.8725   -0.8763   -1.8928 N.pl3     1 <0>        -0.8415
     26 H1          1.0053    1.8021    0.0021 H         1 <0>         0.1082
     27 H2         -0.5445    1.7859   -0.8732 H         1 <0>         0.0619
     28 H3         -0.5275    1.7763    0.9067 H         1 <0>         0.0625
     29 H4         -2.3343    1.1803    0.0211 H         1 <0>         0.1432
     30 H5         -4.5101    0.0294    0.0345 H         1 <0>         0.1420
     31 H6         -2.5223   -3.7443    0.0166 H         1 <0>         0.1542
     32 H7         -0.3427   -2.6008   -0.0082 H         1 <0>         0.1474
     33 H8         -7.0454   -2.2337   -4.3711 H         1 <0>         0.1693
     34 H9         -3.8614   -8.5272   -4.6244 H         1 <0>         0.1551
     35 H10        -3.9665   -9.7882   -6.7755 H         1 <0>         0.1444
     36 H11        -5.2257   -8.6747   -8.7175 H         1 <0>         0.1942
     37 H12        -6.7139   -0.5644   -0.9881 H         1 <0>         0.4153
     38 H13        -7.3792   -0.3288   -2.5128 H         1 <0>         0.4259
@<TRIPOS>BOND
     1    1    2 1
     2    1   26 1
     3    1   27 1
     4    1   28 1
     5    2    3 1
     6    3    8 ar
     7    3    4 ar
     8    4    5 ar
     9    4   29 1
    10    5    6 ar
    11    5   30 1
    12    6    7 ar
    13    6    9 1
    14    7    8 ar
    15    7   31 1
    16    8   32 1
    17    9   10 2
    18    9   11 2
    19    9   12 1
    20   12   16 1
    21   12   13 1
    22   13   14 2
    23   13   25 1
    24   14   15 1
    25   14   33 1
    26   15   16 2
    27   15   17 1
    28   17   18 1
    29   18   19 2
    30   18   20 1
    31   20   24 1
    32   20   21 2
    33   21   22 1
    34   21   34 1
    35   22   23 2
    36   22   35 1
    37   23   24 1
    38   23   36 1
    39   25   37 1
    40   25   38 1
@<TRIPOS>MOLECULE
ZINC06441556
   41    43     0     0     0
SMALL
USER_CHARGES

@<TRIPOS>ATOM
      1 C1         -0.0173    1.4248    0.0099 C.3       1 <0>         0.0205
      2 O1          0.0021   -0.0041    0.0020 O.3       1 <0>        -0.3070
      3 C2         -1.2003   -0.6375    0.0101 C.ar      1 <0>         0.1931
      4 C3         -2.3746    0.1011    0.0195 C.ar      1 <0>        -0.2283
      5 C4         -3.5956   -0.5451    0.0272 C.ar      1 <0>         0.0226
      6 C5         -3.6478   -1.9268    0.0260 C.ar      1 <0>        -0.7167
      7 C6         -2.4788   -2.6651    0.0172 C.ar      1 <0>         0.0325
      8 C7         -1.2554   -2.0237    0.0032 C.ar      1 <0>        -0.1691
      9 S1         -5.2067   -2.7480    0.0365 S.o2      1 <0>         2.6983
     10 O2         -4.9816   -4.0397    0.5843 O.2       1 <0>        -0.9038
     11 O3         -6.1424   -1.8361    0.5952 O.2       1 <0>        -0.9348
     12 N1         -5.6514   -2.9744   -1.5425 N.pl3     1 <0>        -0.7448
     13 C8         -6.3732   -2.1097   -2.3013 C.2       1 <0>         0.4025
     14 C9         -6.5206   -2.6689   -3.5335 C.2       1 <0>        -0.3069
     15 C10        -5.8689   -3.9099   -3.5219 C.2       1 <0>         0.3081
     16 N2         -5.3445   -4.0889   -2.3334 N.2       1 <0>        -0.2594
     17 O4         -5.7887   -4.7769   -4.5663 O.3       1 <0>        -0.2530
     18 C11        -5.1199   -5.9313   -4.3800 C.2       1 <0>         0.4961
     19 O5         -4.6107   -6.1714   -3.3035 O.2       1 <0>        -0.4425
     20 C12        -5.0055   -6.9051   -5.4848 C.ar      1 <0>        -0.1225
     21 C13        -5.5846   -6.6297   -6.7252 C.ar      1 <0>        -0.0626
     22 C14        -5.4736   -7.5434   -7.7527 C.ar      1 <0>        -0.1318
     23 C15        -4.7907   -8.7307   -7.5562 C.ar      1 <0>        -0.0802
     24 C16        -4.2145   -9.0100   -6.3296 C.ar      1 <0>        -0.1296
     25 C17        -4.3129   -8.1027   -5.2952 C.ar      1 <0>        -0.0511
     26 N3         -6.8722   -0.8762   -1.8929 N.pl3     1 <0>        -0.8418
     27 H1          1.0053    1.8021    0.0021 H         1 <0>         0.1083
     28 H2         -0.5445    1.7859   -0.8732 H         1 <0>         0.0618
     29 H3         -0.5275    1.7763    0.9067 H         1 <0>         0.0625
     30 H4         -2.3343    1.1803    0.0211 H         1 <0>         0.1432
     31 H5         -4.5101    0.0294    0.0345 H         1 <0>         0.1419
     32 H6         -2.5223   -3.7443    0.0166 H         1 <0>         0.1541
     33 H7         -0.3427   -2.6008   -0.0082 H         1 <0>         0.1474
     34 H8         -7.0464   -2.2342   -4.3708 H         1 <0>         0.1685
     35 H9         -6.1184   -5.7037   -6.8797 H         1 <0>         0.1403
     36 H10        -5.9209   -7.3317   -8.7126 H         1 <0>         0.1346
     37 H11        -4.7074   -9.4429   -8.3638 H         1 <0>         0.1320
     38 H12        -3.6829   -9.9386   -6.1830 H         1 <0>         0.1360
     39 H13        -3.8589   -8.3199   -4.3396 H         1 <0>         0.1408
     40 H14        -6.7133   -0.5641   -0.9883 H         1 <0>         0.4152
     41 H15        -7.3789   -0.3286   -2.5129 H         1 <0>         0.4258
@<TRIPOS>BOND
     1    1    2 1
     2    1   27 1
     3    1   28 1
     4    1   29 1
     5    2    3 1
     6    3    8 ar
     7    3    4 ar
     8    4    5 ar
     9    4   30 1
    10    5    6 ar
    11    5   31 1
    12    6    7 ar
    13    6    9 1
    14    7    8 ar
    15    7   32 1
    16    8   33 1
    17    9   10 2
    18    9   11 2
    19    9   12 1
    20   12   16 1
    21   12   13 1
    22   13   14 2
    23   13   26 1
    24   14   15 1
    25   14   34 1
    26   15   16 2
    27   15   17 1
    28   17   18 1
    29   18   19 2
    30   18   20 1
    31   20   25 ar
    32   20   21 ar
    33   21   22 ar
    34   21   35 1
    35   22   23 ar
    36   22   36 1
    37   23   24 ar
    38   23   37 1
    39   24   25 ar
    40   24   38 1
    41   25   39 1
    42   26   40 1
    43   26   41 1
@<TRIPOS>MOLECULE
ZINC04562873
   44    46     0     0     0
SMALL
USER_CHARGES
[5-amino-1-(4-methoxyphenyl)sulfonyl-pyrazol-3-yl] 2-methylbenzoate
@<TRIPOS>ATOM
      1 C1         -0.4999    1.4546    0.0805 C.3       1 <0>        -0.1298
      2 C2         -0.2290   -0.0272    0.0357 C.ar      1 <0>        -0.0119
      3 C3         -0.3392   -0.7145   -1.1555 C.ar      1 <0>        -0.1340
      4 C4         -0.0863   -2.0740   -1.1993 C.ar      1 <0>        -0.0750
      5 C5          0.2684   -2.7557   -0.0483 C.ar      1 <0>        -0.1397
      6 C6          0.3771   -2.0819    1.1502 C.ar      1 <0>        -0.0583
      7 C7          0.1283   -0.7087    1.2006 C.ar      1 <0>        -0.1292
      8 C8          0.2423    0.0195    2.4808 C.2       1 <0>         0.4927
      9 O1          0.1353    1.2294    2.5030 O.2       1 <0>        -0.4364
     10 O2          0.4650   -0.6581    3.6236 O.3       1 <0>        -0.2508
     11 C9          0.5594    0.0728    4.7663 C.2       1 <0>         0.3060
     12 C10         0.7869   -0.4388    6.0514 C.2       1 <0>        -0.3075
     13 C11         0.8143    0.6103    6.9183 C.2       1 <0>         0.4022
     14 N1          0.6102    1.7430    6.1973 N.pl3     1 <0>        -0.7454
     15 N2          0.4587    1.3773    4.8538 N.2       1 <0>        -0.2567
     16 S1          0.5558    3.2847    6.7995 S.o2      1 <0>         2.6986
     17 O3         -0.2026    4.0546    5.8767 O.2       1 <0>        -0.9041
     18 O4          0.2009    3.1727    8.1709 O.2       1 <0>        -0.9353
     19 C12         2.1987    3.9198    6.7547 C.ar      1 <0>        -0.7168
     20 C13         3.0344    3.7493    7.8429 C.ar      1 <0>         0.0225
     21 C14         4.3248    4.2414    7.8081 C.ar      1 <0>        -0.2285
     22 C15         4.7784    4.9166    6.6842 C.ar      1 <0>         0.1931
     23 C16         3.9360    5.0913    5.5958 C.ar      1 <0>        -0.1693
     24 C17         2.6482    4.5928    5.6336 C.ar      1 <0>         0.0327
     25 O5          6.0455    5.4064    6.6497 O.3       1 <0>        -0.3070
     26 C18         6.8567    5.1894    7.8060 C.3       1 <0>         0.0205
     27 N3          1.0151    0.5357    8.2936 N.pl3     1 <0>        -0.8421
     28 H1          0.4428    1.9983    0.0179 H         1 <0>         0.0812
     29 H2         -1.1364    1.7332   -0.7593 H         1 <0>         0.0659
     30 H3         -1.0019    1.7041    1.0153 H         1 <0>         0.0946
     31 H4         -0.6199   -0.1894   -2.0565 H         1 <0>         0.1349
     32 H5         -0.1700   -2.6064   -2.1351 H         1 <0>         0.1317
     33 H6          0.4601   -3.8178   -0.0887 H         1 <0>         0.1337
     34 H7          0.6536   -2.6152    2.0478 H         1 <0>         0.1396
     35 H8          0.9175   -1.4797    6.3079 H         1 <0>         0.1679
     36 H9          2.6794    3.2274    8.7193 H         1 <0>         0.1419
     37 H10         4.9788    4.1037    8.6565 H         1 <0>         0.1431
     38 H11         4.2868    5.6162    4.7197 H         1 <0>         0.1473
     39 H12         1.9920    4.7285    4.7866 H         1 <0>         0.1541
     40 H13         6.3863    5.6547    8.6722 H         1 <0>         0.0625
     41 H14         6.9613    4.1186    7.9807 H         1 <0>         0.0618
     42 H15         7.8411    5.6295    7.6470 H         1 <0>         0.1082
     43 H16         1.1525   -0.3258    8.7176 H         1 <0>         0.4256
     44 H17         1.0176    1.3452    8.8279 H         1 <0>         0.4152
@<TRIPOS>BOND
     1    1    2 1
     2    1   28 1
     3    1   29 1
     4    1   30 1
     5    2    7 ar
     6    2    3 ar
     7    3    4 ar
     8    3   31 1
     9    4    5 ar
    10    4   32 1
    11    5    6 ar
    12    5   33 1
    13    6    7 ar
    14    6   34 1
    15    7    8 1
    16    8    9 2
    17    8   10 1
    18   10   11 1
    19   11   15 2
    20   11   12 1
    21   12   13 2
    22   12   35 1
    23   13   14 1
    24   13   27 1
    25   14   15 1
    26   14   16 1
    27   16   17 2
    28   16   18 2
    29   16   19 1
    30   19   24 ar
    31   19   20 ar
    32   20   21 ar
    33   20   36 1
    34   21   22 ar
    35   21   37 1
    36   22   23 ar
    37   22   25 1
    38   23   24 ar
    39   23   38 1
    40   24   39 1
    41   25   26 1
    42   26   40 1
    43   26   41 1
    44   26   42 1
    45   27   43 1
    46   27   44 1
@<TRIPOS>MOLECULE
ZINC03249673
   32    33     0     0     0
SMALL
USER_CHARGES

@<TRIPOS>ATOM
      1 C1         -0.0256    1.5032    0.0245 C.3       1 <0>        -0.0755
      2 C2         -0.0093   -0.0036    0.0101 C.2       1 <0>         0.0917
      3 C3          0.0086   -0.8114   -1.1307 C.2       1 <0>        -0.2902
      4 C4          0.0191   -2.1082   -0.7228 C.2       1 <0>         0.2542
      5 N1          0.0082   -2.1117    0.6289 N.pl3     1 <0>        -0.3669
      6 N2         -0.0039   -0.7801    1.0632 N.2       1 <0>        -0.2708
      7 C5          0.0132   -3.2985    1.4878 C.3       1 <0>         0.1401
      8 C6          1.4502   -3.6233    1.9006 C.3       1 <0>        -0.0415
      9 C7          1.4552   -4.8157    2.7637 C.1       1 <0>         0.2048
     10 N3          1.4591   -5.7359    3.4297 N.1       1 <0>        -0.4165
     11 O1          0.0369   -3.2017   -1.5272 O.3       1 <0>        -0.2747
     12 C8         -0.0762   -3.0111   -2.8561 C.2       1 <0>         0.5221
     13 O2         -0.0917   -1.8839   -3.3090 O.2       1 <0>        -0.4662
     14 C9         -0.1815   -4.1727   -3.7624 C.ar      1 <0>        -0.1242
     15 C10        -0.1699   -5.4695   -3.2448 C.ar      1 <0>        -0.0620
     16 C11        -0.2686   -6.5498   -4.0969 C.ar      1 <0>        -0.1312
     17 C12        -0.3789   -6.3506   -5.4617 C.ar      1 <0>        -0.0765
     18 C13        -0.3911   -5.0682   -5.9814 C.ar      1 <0>        -0.1287
     19 C14        -0.2990   -3.9788   -5.1403 C.ar      1 <0>        -0.0485
     20 H1          0.9981    1.8775    0.0313 H         1 <0>         0.0815
     21 H2         -0.5405    1.8695   -0.8636 H         1 <0>         0.0816
     22 H3         -0.5460    1.8524    0.9163 H         1 <0>         0.0760
     23 H4          0.0129   -0.4666   -2.1542 H         1 <0>         0.1837
     24 H5         -0.5857   -3.1054    2.3778 H         1 <0>         0.1096
     25 H6         -0.4080   -4.1433    0.9428 H         1 <0>         0.1055
     26 H7          2.0491   -3.8164    1.0106 H         1 <0>         0.1146
     27 H8          1.8713   -2.7785    2.4457 H         1 <0>         0.1216
     28 H9         -0.0835   -5.6264   -2.1797 H         1 <0>         0.1377
     29 H10        -0.2593   -7.5533   -3.6979 H         1 <0>         0.1353
     30 H11        -0.4555   -7.1999   -6.1244 H         1 <0>         0.1336
     31 H12        -0.4771   -4.9199   -7.0477 H         1 <0>         0.1378
     32 H13        -0.3131   -2.9784   -5.5468 H         1 <0>         0.1420
@<TRIPOS>BOND
     1    1    2 1
     2    1   20 1
     3    1   21 1
     4    1   22 1
     5    2    6 2
     6    2    3 1
     7    3    4 2
     8    3   23 1
     9    4    5 1
    10    4   11 1
    11    5    6 1
    12    5    7 1
    13    7    8 1
    14    7   24 1
    15    7   25 1
    16    8    9 1
    17    8   26 1
    18    8   27 1
    19    9   10 3
    20   11   12 1
    21   12   13 2
    22   12   14 1
    23   14   19 ar
    24   14   15 ar
    25   15   16 ar
    26   15   28 1
    27   16   17 ar
    28   16   29 1
    29   17   18 ar
    30   17   30 1
    31   18   19 ar
    32   18   31 1
    33   19   32 1
