@<TRIPOS>MOLECULE
ZINC03596259
   48    51     0     0     0
SMALL
USER_CHARGES

@<TRIPOS>ATOM
      1 C1         -0.0187    1.5258    0.0104 C.3       1 <0>        -0.1433
      2 C2          0.0021   -0.0041    0.0020 C.3       1 <0>        -0.0941
      3 C3          0.7421   -0.5109    1.2415 C.3       1 <0>        -0.1469
      4 C4         -1.4333   -0.5336    0.0129 C.3       1 <0>        -0.1281
      5 C5         -1.4157   -2.0577   -0.1212 C.3       1 <0>         0.1082
      6 N1         -2.7901   -2.5647   -0.1108 N.pl3     1 <0>        -0.5245
      7 C6         -3.3736   -2.8968    1.0956 C.ar      1 <0>         0.2178
      8 C7         -2.6704   -2.7532    2.2876 C.ar      1 <0>        -0.1981
      9 C8         -3.2678   -3.0889    3.4831 C.ar      1 <0>        -0.0820
     10 C9         -4.5685   -3.5713    3.5131 C.ar      1 <0>        -0.1930
     11 C10        -5.2821   -3.7210    2.3447 C.ar      1 <0>        -0.0371
     12 C11        -4.6901   -3.3846    1.1269 C.ar      1 <0>        -0.1845
     13 C12        -5.4246   -3.5322   -0.1431 C.2       1 <0>         0.4185
     14 C13        -4.7563   -3.1700   -1.3429 C.2       1 <0>        -0.4057
     15 C14        -3.4543   -2.6894   -1.2839 C.2       1 <0>         0.4996
     16 O1         -2.8318   -2.3433   -2.4285 O.3       1 <0>        -0.6107
     17 C15        -5.4415   -3.2968   -2.6403 C.2       1 <0>         0.5474
     18 N2         -4.7764   -2.9550   -3.6997 N.2       1 <0>        -0.9483
     19 S1         -5.4644   -3.0520   -5.2051 S.o2      1 <0>         2.5895
     20 O2         -5.2831   -1.7845   -5.8214 O.2       1 <0>        -1.0195
     21 O3         -5.0006   -4.2607   -5.7909 O.2       1 <0>        -1.0289
     22 C16        -7.1968   -3.2434   -4.9347 C.ar      1 <0>        -0.7950
     23 C17        -8.0952   -3.0649   -5.9630 C.ar      1 <0>         0.0095
     24 C18        -9.4505   -3.2180   -5.7272 C.ar      1 <0>        -0.2487
     25 C19        -9.8995   -3.5490   -4.4615 C.ar      1 <0>        -0.0677
     26 C20        -9.0014   -3.7290   -3.4285 C.ar      1 <0>        -0.1749
     27 C21        -7.6391   -3.5784   -3.6597 C.ar      1 <0>         0.2809
     28 N3         -6.7222   -3.7696   -2.6281 N.2       1 <0>        -0.6833
     29 O4         -6.5693   -3.9522   -0.1628 O.2       1 <0>        -0.5035
     30 H1          1.0039    1.9031    0.0027 H         1 <0>         0.0476
     31 H2         -0.5459    1.8868   -0.8726 H         1 <0>         0.0558
     32 H3         -0.5289    1.8773    0.9072 H         1 <0>         0.0506
     33 H4          0.5123   -0.3556   -0.8948 H         1 <0>         0.0721
     34 H5          0.2319   -0.1594    2.1383 H         1 <0>         0.0522
     35 H6          0.7568   -1.6008    1.2356 H         1 <0>         0.0563
     36 H7          1.7647   -0.1336    1.2338 H         1 <0>         0.0475
     37 H8         -1.9156   -0.2570    0.9504 H         1 <0>         0.0588
     38 H9         -1.9862   -0.1019   -0.8214 H         1 <0>         0.0750
     39 H10        -0.9334   -2.3344   -1.0587 H         1 <0>         0.0910
     40 H11        -0.8628   -2.4894    0.7131 H         1 <0>         0.0687
     41 H12        -1.6572   -2.3794    2.2759 H         1 <0>         0.1194
     42 H13        -2.7182   -2.9758    4.4058 H         1 <0>         0.1105
     43 H14        -5.0235   -3.8310    4.4575 H         1 <0>         0.1103
     44 H15        -6.2944   -4.0963    2.3710 H         1 <0>         0.1266
     45 H16        -7.7433   -2.8058   -6.9507 H         1 <0>         0.0957
     46 H17       -10.1576   -3.0787   -6.5315 H         1 <0>         0.0964
     47 H18       -10.9577   -3.6667   -4.2804 H         1 <0>         0.0989
     48 H19        -9.3570   -3.9865   -2.4418 H         1 <0>         0.1130
@<TRIPOS>BOND
     1    1    2 1
     2    1   30 1
     3    1   31 1
     4    1   32 1
     5    2    3 1
     6    2    4 1
     7    2   33 1
     8    3   34 1
     9    3   35 1
    10    3   36 1
    11    4    5 1
    12    4   37 1
    13    4   38 1
    14    5    6 1
    15    5   39 1
    16    5   40 1
    17    6   15 1
    18    6    7 1
    19    7   12 ar
    20    7    8 ar
    21    8    9 ar
    22    8   41 1
    23    9   10 ar
    24    9   42 1
    25   10   11 ar
    26   10   43 1
    27   11   12 ar
    28   11   44 1
    29   12   13 1
    30   13   14 1
    31   13   29 2
    32   14   15 2
    33   14   17 1
    34   15   16 1
    35   17   28 1
    36   17   18 2
    37   18   19 1
    38   19   20 2
    39   19   21 2
    40   19   22 1
    41   22   27 ar
    42   22   23 ar
    43   23   24 ar
    44   23   45 1
    45   24   25 ar
    46   24   46 1
    47   25   26 ar
    48   25   47 1
    49   26   27 ar
    50   26   48 1
    51   27   28 1
@<TRIPOS>MOLECULE
ZINC12375863
   21    21     0     0     0
SMALL
USER_CHARGES

@<TRIPOS>ATOM
      1 C1         -0.0167    1.3798    0.0096 C.ar      1 <0>        -0.0979
      2 C2          1.1680    2.0953    0.0022 C.ar      1 <0>        -0.1353
      3 C3          2.3774    1.4332   -0.0134 C.ar      1 <0>        -0.0672
      4 C4          2.4048    0.0349   -0.0211 C.ar      1 <0>        -0.1587
      5 C5          1.2034   -0.6808   -0.0130 C.ar      1 <0>        -0.0741
      6 C6          0.0021   -0.0041    0.0020 C.ar      1 <0>        -0.1336
      7 C7          3.6913   -0.6795   -0.0381 C.2       1 <0>         0.3824
      8 O1          4.7311   -0.0559   -0.0455 O.2       1 <0>        -0.4180
      9 C8          3.7163   -2.1863   -0.0464 C.3       1 <0>        -0.2118
     10 C9          5.1452   -2.6649   -0.0637 C.2       1 <0>         0.2901
     11 C10         5.4424   -4.1285   -0.0745 C.2       1 <0>         0.4695
     12 O2          6.5996   -4.5161   -0.0885 O.co2     1 <0>        -0.6521
     13 O3          4.5281   -4.9369   -0.0694 O.co2     1 <0>        -0.6689
     14 O4          6.0500   -1.8649   -0.0687 O.2       1 <0>        -0.4222
     15 H1         -0.9607    1.9041    0.0260 H         1 <0>         0.1235
     16 H2          1.1452    3.1750    0.0081 H         1 <0>         0.1254
     17 H3          3.3011    1.9929   -0.0199 H         1 <0>         0.1320
     18 H4          1.2164   -1.7607   -0.0192 H         1 <0>         0.1376
     19 H5         -0.9266   -0.5553    0.0082 H         1 <0>         0.1278
     20 H6          3.2178   -2.5629    0.8468 H         1 <0>         0.1258
     21 H7          3.1995   -2.5534   -0.9331 H         1 <0>         0.1258
@<TRIPOS>BOND
     1    1    6 ar
     2    1    2 ar
     3    1   15 1
     4    2    3 ar
     5    2   16 1
     6    3    4 ar
     7    3   17 1
     8    4    5 ar
     9    4    7 1
    10    5    6 ar
    11    5   18 1
    12    6   19 1
    13    7    8 2
    14    7    9 1
    15    9   10 1
    16    9   20 1
    17    9   21 1
    18   10   11 1
    19   10   14 2
    20   11   12 2
    21   11   13 1
@<TRIPOS>MOLECULE
ZINC13493870
   53    55     0     0     0
SMALL
USER_CHARGES

@<TRIPOS>ATOM
      1 C1         -0.4147    1.5549    0.8159 C.ar      1 <0>        -0.0875
      2 C2          0.7854    2.2138    0.6247 C.ar      1 <0>        -0.1135
      3 C3          1.9515    1.4910    0.4555 C.ar      1 <0>        -0.0949
      4 C4          1.9176    0.1092    0.4780 C.ar      1 <0>        -0.1554
      5 C5          0.7176   -0.5497    0.6701 C.ar      1 <0>        -0.0944
      6 C6         -0.4487    0.1732    0.8379 C.ar      1 <0>        -0.1158
      7 C7          3.1886   -0.6788    0.2925 C.3       1 <0>         0.0414
      8 N1          3.8120   -0.9177    1.6011 N.4       1 <0>        -0.3778
      9 C8          4.2218    0.3639    2.1875 C.3       1 <0>        -0.0218
     10 C9          4.7980    0.1285    3.5854 C.3       1 <0>        -0.1255
     11 C10         6.0124   -0.7987    3.4815 C.3       1 <0>        -0.1139
     12 C11         5.5892   -2.1036    2.8009 C.3       1 <0>        -0.1337
     13 C12         4.9837   -1.7855    1.4321 C.3       1 <0>        -0.0150
     14 C13         6.5457   -1.1022    4.8830 C.3       1 <0>        -0.0645
     15 C14         6.9370    0.1854    5.5614 C.ar      1 <0>        -0.0954
     16 C15         8.2092    0.6981    5.3893 C.ar      1 <0>        -0.0982
     17 C16         8.5687    1.8790    6.0111 C.ar      1 <0>        -0.0980
     18 C17         7.6549    2.5479    6.8060 C.ar      1 <0>        -0.0300
     19 C18         6.3818    2.0343    6.9778 C.ar      1 <0>        -0.1099
     20 C19         6.0217    0.8563    6.3509 C.ar      1 <0>        -0.1045
     21 Cl1         8.1058    4.0308    7.5878 Cl        1 <0>        -0.0637
     22 C20         7.0883   -0.1303    2.6649 C.2       1 <0>         0.3490
     23 C21         8.3407   -0.8873    2.3049 C.3       1 <0>        -0.2224
     24 C22         9.1856   -0.0496    1.3800 C.2       1 <0>         0.2902
     25 O1          8.8095    1.0488    1.0475 O.2       1 <0>        -0.4212
     26 C23        10.4880   -0.5778    0.8746 C.2       1 <0>         0.4651
     27 O2         11.1722    0.1006    0.1256 O.co2     1 <0>        -0.6417
     28 O3         10.8680   -1.6878    1.2107 O.co2     1 <0>        -0.6645
     29 O4          6.9469    1.0118    2.2991 O.2       1 <0>        -0.4009
     30 H1         -1.3250    2.1197    0.9526 H         1 <0>         0.1336
     31 H2          0.8119    3.2934    0.6071 H         1 <0>         0.1352
     32 H3          2.8889    2.0058    0.3054 H         1 <0>         0.1330
     33 H4          0.6911   -1.6292    0.6873 H         1 <0>         0.1307
     34 H5         -1.3862   -0.3416    0.9876 H         1 <0>         0.1340
     35 H6          2.9585   -1.6337   -0.1801 H         1 <0>         0.1375
     36 H7          3.8757   -0.1166   -0.3400 H         1 <0>         0.1358
     37 H8          4.9801    0.8262    1.5555 H         1 <0>         0.1412
     38 H9          3.3571    1.0239    2.2578 H         1 <0>         0.1315
     39 H10         5.1034    1.0811    4.0183 H         1 <0>         0.1200
     40 H11         4.0404   -0.3335    4.2183 H         1 <0>         0.0927
     41 H12         6.4601   -2.7465    2.6731 H         1 <0>         0.1269
     42 H13         4.8480   -2.6120    3.4176 H         1 <0>         0.1022
     43 H14         4.6815   -2.7125    0.9447 H         1 <0>         0.1398
     44 H15         5.7257   -1.2774    0.8162 H         1 <0>         0.1279
     45 H16         5.7711   -1.5995    5.4667 H         1 <0>         0.0933
     46 H17         7.4173   -1.7523    4.8072 H         1 <0>         0.0969
     47 H18         8.9225    0.1757    4.7691 H         1 <0>         0.1320
     48 H19         9.5627    2.2793    5.8769 H         1 <0>         0.1379
     49 H20         5.6682    2.5558    7.5984 H         1 <0>         0.1343
     50 H21         5.0265    0.4577    6.4811 H         1 <0>         0.1300
     51 H22         8.9044   -1.1090    3.2111 H         1 <0>         0.1299
     52 H23         8.0717   -1.8190    1.8073 H         1 <0>         0.1239
     53 H24         3.1469   -1.3675    2.2122 H         1 <0>         0.4182
@<TRIPOS>BOND
     1    1    6 ar
     2    1    2 ar
     3    1   30 1
     4    2    3 ar
     5    2   31 1
     6    3    4 ar
     7    3   32 1
     8    4    5 ar
     9    4    7 1
    10    5    6 ar
    11    5   33 1
    12    6   34 1
    13    7    8 1
    14    7   35 1
    15    7   36 1
    16    8   13 1
    17    8    9 1
    18    8   53 1
    19    9   10 1
    20    9   37 1
    21    9   38 1
    22   10   11 1
    23   10   39 1
    24   10   40 1
    25   11   12 1
    26   11   14 1
    27   11   22 1
    28   12   13 1
    29   12   41 1
    30   12   42 1
    31   13   43 1
    32   13   44 1
    33   14   15 1
    34   14   45 1
    35   14   46 1
    36   15   20 ar
    37   15   16 ar
    38   16   17 ar
    39   16   47 1
    40   17   18 ar
    41   17   48 1
    42   18   19 ar
    43   18   21 1
    44   19   20 ar
    45   19   49 1
    46   20   50 1
    47   22   23 1
    48   22   29 2
    49   23   24 1
    50   23   51 1
    51   23   52 1
    52   24   25 2
    53   24   26 1
    54   26   27 2
    55   26   28 1
