@<TRIPOS>MOLECULE
ZINC06529560
   34    35     0     0     0
SMALL
USER_CHARGES
(benzylamino-phenyl-methyl)phosphonic acid
@<TRIPOS>ATOM
      1 C1          4.5481    1.7768    0.7239 C.ar      1 <0>        -0.1000
      2 C2          3.4844    2.6556    0.6410 C.ar      1 <0>        -0.1172
      3 C3          2.1909    2.1913    0.7904 C.ar      1 <0>        -0.0867
      4 C4          1.9613    0.8482    1.0231 C.ar      1 <0>        -0.1424
      5 C5          3.0254   -0.0298    1.1116 C.ar      1 <0>        -0.1000
      6 C6          4.3185    0.4336    0.9566 C.ar      1 <0>        -0.1236
      7 C7          0.5512    0.3421    1.1864 C.3       1 <0>         0.0403
      8 C8         -1.3132   -0.6583    0.0092 C.3       1 <0>        -0.5007
      9 H1         -1.4802   -0.9391    1.0491 H         1 <0>         0.1272
     10 C9         -1.3904   -1.8860   -0.8613 C.ar      1 <0>        -0.0695
     11 C10        -0.7375   -1.9117   -2.0795 C.ar      1 <0>        -0.1181
     12 C11        -0.8047   -3.0395   -2.8760 C.ar      1 <0>        -0.1134
     13 C12        -1.5323   -4.1382   -2.4585 C.ar      1 <0>        -0.1243
     14 C13        -2.1895   -4.1106   -1.2427 C.ar      1 <0>        -0.1151
     15 C14        -2.1187   -2.9844   -0.4442 C.ar      1 <0>        -0.0912
     16 P1         -2.5888    0.5360   -0.5101 P.3       1 <0>         2.1048
     17 O1         -2.4268    0.8358   -1.9504 O.2       1 <0>        -1.0992
     18 H2          5.5586    2.1394    0.6065 H         1 <0>         0.1275
     19 H3          3.6638    3.7050    0.4592 H         1 <0>         0.1326
     20 H4          1.3598    2.8780    0.7256 H         1 <0>         0.1438
     21 H5          2.8462   -1.0784    1.2978 H         1 <0>         0.1259
     22 H6          5.1495   -0.2531    1.0210 H         1 <0>         0.1275
     23 H7         -0.0698    1.1288    1.6147 H         1 <0>         0.1515
     24 H8          0.5502   -0.5231    1.8494 H         1 <0>         0.1203
     25 H9         -0.1721   -1.0519   -2.4074 H         1 <0>         0.1183
     26 H10        -0.2910   -3.0613   -3.8258 H         1 <0>         0.1239
     27 H11        -1.5870   -5.0184   -3.0820 H         1 <0>         0.1217
     28 H12        -2.7580   -4.9690   -0.9164 H         1 <0>         0.1244
     29 H13        -2.6322   -2.9628    0.5057 H         1 <0>         0.1266
     30 N1          0.0202   -0.0440   -0.1345 N.4       1 <0>        -0.4742
     31 H14         0.6585   -0.7188   -0.5721 H         1 <0>         0.3979
     32 H15        -0.0537    0.7911   -0.7272 H         1 <0>         0.4296
     33 O2         -4.0487   -0.0925   -0.2536 O.3       1 <0>        -1.1286
     34 O3         -2.4317    1.8933    0.3415 O.3       1 <0>        -1.1397
@<TRIPOS>BOND
     1    1    6 ar
     2    1    2 ar
     3    1   18 1
     4    2    3 ar
     5    2   19 1
     6    3    4 ar
     7    3   20 1
     8    4    5 ar
     9    4    7 1
    10    5    6 ar
    11    5   21 1
    12    6   22 1
    13    7   23 1
    14    7   24 1
    15    7   30 1
    16    8    9 1
    17    8   10 1
    18    8   16 1
    19    8   30 1
    20   10   15 ar
    21   10   11 ar
    22   11   12 ar
    23   11   25 1
    24   12   13 ar
    25   12   26 1
    26   13   14 ar
    27   13   27 1
    28   14   15 ar
    29   14   28 1
    30   15   29 1
    31   16   17 2
    32   16   33 1
    33   16   34 1
    34   30   31 1
    35   30   32 1
@<TRIPOS>MOLECULE
ZINC02047657
   34    35     0     0     0
SMALL
USER_CHARGES

@<TRIPOS>ATOM
      1 C1          0.7510    2.6547    1.7396 C.ar      1 <0>        -0.0987
      2 C2          0.9669    1.7906    2.7969 C.ar      1 <0>        -0.1178
      3 C3          2.1364    1.0565    2.8618 C.ar      1 <0>        -0.0953
      4 C4          3.0899    1.1861    1.8694 C.ar      1 <0>        -0.1440
      5 C5          2.8736    2.0495    0.8117 C.ar      1 <0>        -0.0940
      6 C6          1.7047    2.7847    0.7474 C.ar      1 <0>        -0.1169
      7 C7          4.3653    0.3866    1.9407 C.3       1 <0>         0.0337
      8 N1          4.1776   -0.8972    1.2517 N.4       1 <0>        -0.4683
      9 C8          5.4536   -1.6241    1.2145 C.3       1 <0>        -0.4994
     10 H1          6.2196   -0.9907    0.7671 H         1 <0>         0.1274
     11 C9          5.8629   -1.9926    2.6173 C.ar      1 <0>        -0.0662
     12 C10         4.9017   -2.3311    3.5513 C.ar      1 <0>        -0.1145
     13 C11         5.2771   -2.6692    4.8380 C.ar      1 <0>        -0.1132
     14 C12         6.6138   -2.6692    5.1906 C.ar      1 <0>        -0.1246
     15 C13         7.5750   -2.3316    4.2563 C.ar      1 <0>        -0.1150
     16 C14         7.1999   -1.9977    2.9684 C.ar      1 <0>        -0.0931
     17 P1          5.2609   -3.1395    0.2197 P.3       1 <0>         2.0983
     18 O1          4.2440   -4.1008    0.9242 O.2       1 <0>        -1.1192
     19 O2          4.7251   -2.7650   -1.2040 O.3       1 <0>        -1.1296
     20 O3          6.6480   -3.8551    0.0842 O.3       1 <0>        -1.1145
     21 H2         -0.1646    3.2249    1.6865 H         1 <0>         0.1289
     22 H3          0.2220    1.6893    3.5723 H         1 <0>         0.1307
     23 H4          2.3053    0.3820    3.6882 H         1 <0>         0.1304
     24 H5          3.6187    2.1511    0.0365 H         1 <0>         0.1319
     25 H6          1.5359    3.4595   -0.0787 H         1 <0>         0.1312
     26 H7          5.1701    0.9427    1.4600 H         1 <0>         0.1240
     27 H8          4.6222    0.2047    2.9843 H         1 <0>         0.1262
     28 H9          3.4915   -1.4473    1.7465 H         1 <0>         0.4206
     29 H10         3.8574   -2.3311    3.2759 H         1 <0>         0.1160
     30 H11         4.5261   -2.9330    5.5680 H         1 <0>         0.1236
     31 H12         6.9070   -2.9326    6.1961 H         1 <0>         0.1214
     32 H13         8.6193   -2.3312    4.5318 H         1 <0>         0.1239
     33 H14         7.9512   -1.7375    2.2374 H         1 <0>         0.1262
     34 H15         3.8584   -0.7296    0.3094 H         1 <0>         0.4299
@<TRIPOS>BOND
     1    1    6 ar
     2    1    2 ar
     3    1   21 1
     4    2    3 ar
     5    2   22 1
     6    3    4 ar
     7    3   23 1
     8    4    5 ar
     9    4    7 1
    10    5    6 ar
    11    5   24 1
    12    6   25 1
    13    7    8 1
    14    7   26 1
    15    7   27 1
    16    8    9 1
    17    8   28 1
    18    8   34 1
    19    9   10 1
    20    9   11 1
    21    9   17 1
    22   11   16 ar
    23   11   12 ar
    24   12   13 ar
    25   12   29 1
    26   13   14 ar
    27   13   30 1
    28   14   15 ar
    29   14   31 1
    30   15   16 ar
    31   15   32 1
    32   16   33 1
    33   17   18 2
    34   17   19 1
    35   17   20 1
@<TRIPOS>MOLECULE
ZINC02047657
   35    36     0     0     0
SMALL
USER_CHARGES

@<TRIPOS>ATOM
      1 C1          0.7515    2.6553    1.7385 C.ar      1 <0>        -0.0894
      2 C2          0.9670    1.7913    2.7958 C.ar      1 <0>        -0.1145
      3 C3          2.1364    1.0570    2.8611 C.ar      1 <0>        -0.0930
      4 C4          3.0901    1.1865    1.8688 C.ar      1 <0>        -0.1579
      5 C5          2.8742    2.0499    0.8110 C.ar      1 <0>        -0.0950
      6 C6          1.7054    2.7852    0.7465 C.ar      1 <0>        -0.1152
      7 C7          4.3654    0.3868    1.9404 C.3       1 <0>         0.0400
      8 N1          4.1777   -0.8970    1.2515 N.4       1 <0>        -0.4842
      9 C8          5.4536   -1.6241    1.2145 C.3       1 <0>        -0.5045
     10 H1          6.2198   -0.9908    0.7672 H         1 <0>         0.1478
     11 C9          5.8626   -1.9926    2.6174 C.ar      1 <0>        -0.1016
     12 C10         4.9011   -2.3310    3.5512 C.ar      1 <0>        -0.1083
     13 C11         5.2762   -2.6691    4.8380 C.ar      1 <0>        -0.1090
     14 C12         6.6128   -2.6693    5.1909 C.ar      1 <0>        -0.1026
     15 C13         7.5743   -2.3318    4.2568 C.ar      1 <0>        -0.1109
     16 C14         7.1995   -1.9978    2.9688 C.ar      1 <0>        -0.0818
     17 P1          5.2609   -3.1395    0.2197 P.3       1 <0>         2.1852
     18 O1          4.2580   -4.0875    0.9145 O.2       1 <0>        -1.0349
     19 O2          4.7103   -2.7546   -1.2434 O.3       1 <0>        -0.9031
     20 O3          6.6288   -3.8452    0.0861 O.3       1 <0>        -1.0298
     21 H2         -0.1641    3.2257    1.6852 H         1 <0>         0.1338
     22 H3          0.2219    1.6901    3.5711 H         1 <0>         0.1350
     23 H4          2.3051    0.3825    3.6875 H         1 <0>         0.1318
     24 H5          3.6195    2.1513    0.0360 H         1 <0>         0.1307
     25 H6          1.5369    3.4600   -0.0797 H         1 <0>         0.1346
     26 H7          5.1704    0.9427    1.4599 H         1 <0>         0.1305
     27 H8          4.6221    0.2049    2.9841 H         1 <0>         0.1349
     28 H9          3.4914   -1.4470    1.7461 H         1 <0>         0.4276
     29 H10         3.8569   -2.3309    3.2755 H         1 <0>         0.1186
     30 H11         4.5250   -2.9327    5.5678 H         1 <0>         0.1320
     31 H12         6.9058   -2.9327    6.1964 H         1 <0>         0.1307
     32 H13         8.6185   -2.3316    4.5325 H         1 <0>         0.1326
     33 H14         7.9509   -1.7378    2.2379 H         1 <0>         0.1308
     34 H15         3.8587   -0.7294    0.3090 H         1 <0>         0.4252
     35 H16         4.5835   -3.5142   -1.8283 H         1 <0>         0.4337
@<TRIPOS>BOND
     1    1    6 ar
     2    1    2 ar
     3    1   21 1
     4    2    3 ar
     5    2   22 1
     6    3    4 ar
     7    3   23 1
     8    4    5 ar
     9    4    7 1
    10    5    6 ar
    11    5   24 1
    12    6   25 1
    13    7    8 1
    14    7   26 1
    15    7   27 1
    16    8    9 1
    17    8   28 1
    18    8   34 1
    19    9   10 1
    20    9   11 1
    21    9   17 1
    22   11   16 ar
    23   11   12 ar
    24   12   13 ar
    25   12   29 1
    26   13   14 ar
    27   13   30 1
    28   14   15 ar
    29   14   31 1
    30   15   16 ar
    31   15   32 1
    32   16   33 1
    33   17   18 2
    34   17   19 1
    35   17   20 1
    36   19   35 1
@<TRIPOS>MOLECULE
ZINC02047657
   34    35     0     0     0
SMALL
USER_CHARGES

@<TRIPOS>ATOM
      1 C1         -0.0167    1.3781    0.0096 C.ar      1 <0>        -0.1251
      2 C2          1.1709    2.0855    0.0021 C.ar      1 <0>        -0.1242
      3 C3          2.3773    1.4107   -0.0130 C.ar      1 <0>        -0.1173
      4 C4          2.3960    0.0285   -0.0201 C.ar      1 <0>        -0.0741
      5 C5          1.2084   -0.6789   -0.0117 C.ar      1 <0>        -0.0936
      6 C6          0.0021   -0.0041    0.0020 C.ar      1 <0>        -0.1217
      7 C7          3.7112   -0.7071   -0.0376 C.3       1 <0>         0.0868
      8 N1          4.1530   -0.9531    1.3416 N.3       1 <0>        -0.6457
      9 C8          5.4349   -1.6701    1.3638 C.3       1 <0>        -0.4624
     10 H1          5.8946   -1.6233    0.3766 H         1 <0>         0.0648
     11 C9          6.3509   -1.0304    2.3752 C.ar      1 <0>        -0.0629
     12 C10         5.8315   -0.5070    3.5445 C.ar      1 <0>        -0.0926
     13 C11         6.6717    0.0797    4.4722 C.ar      1 <0>        -0.1242
     14 C12         8.0313    0.1427    4.2308 C.ar      1 <0>        -0.1308
     15 C13         8.5508   -0.3814    3.0620 C.ar      1 <0>        -0.1262
     16 C14         7.7112   -0.9721    2.1362 C.ar      1 <0>        -0.1074
     17 P1          5.1491   -3.4121    1.8191 P.3       1 <0>         2.2781
     18 O1          4.6148   -3.4850    3.2669 O.2       1 <0>        -1.0851
     19 O2          4.0691   -4.0588    0.8153 O.3       1 <0>        -0.9019
     20 O3          6.4774   -4.1948    1.7202 O.3       1 <0>        -1.0986
     21 H2         -0.9591    1.9053    0.0259 H         1 <0>         0.1182
     22 H3          1.1563    3.1654    0.0076 H         1 <0>         0.1179
     23 H4          3.3051    1.9634   -0.0196 H         1 <0>         0.1146
     24 H5          1.2231   -1.7588   -0.0176 H         1 <0>         0.1293
     25 H6         -0.9258   -0.5567    0.0082 H         1 <0>         0.1217
     26 H7          3.5884   -1.6586   -0.5549 H         1 <0>         0.0871
     27 H8          4.4573   -0.1052   -0.5563 H         1 <0>         0.0303
     28 H9          4.7692   -0.5563    3.7330 H         1 <0>         0.1316
     29 H10         6.2658    0.4893    5.3854 H         1 <0>         0.1191
     30 H11         8.6876    0.6018    4.9553 H         1 <0>         0.1160
     31 H12         9.6131   -0.3319    2.8733 H         1 <0>         0.1173
     32 H13         8.1175   -1.3849    1.2247 H         1 <0>         0.1171
     33 H14         4.2122   -0.0904    1.8617 H         1 <0>         0.3348
     34 H15         3.8678   -4.9866    0.9988 H         1 <0>         0.4090
@<TRIPOS>BOND
     1    1    6 ar
     2    1    2 ar
     3    1   21 1
     4    2    3 ar
     5    2   22 1
     6    3    4 ar
     7    3   23 1
     8    4    5 ar
     9    4    7 1
    10    5    6 ar
    11    5   24 1
    12    6   25 1
    13    7    8 1
    14    7   26 1
    15    7   27 1
    16    8    9 1
    17    8   33 1
    18    9   10 1
    19    9   11 1
    20    9   17 1
    21   11   16 ar
    22   11   12 ar
    23   12   13 ar
    24   12   28 1
    25   13   14 ar
    26   13   29 1
    27   14   15 ar
    28   14   30 1
    29   15   16 ar
    30   15   31 1
    31   16   32 1
    32   17   18 2
    33   17   19 1
    34   17   20 1
    35   19   34 1
