@<TRIPOS>MOLECULE
ZINC03995991
   80    82     0     0     0
SMALL
USER_CHARGES

@<TRIPOS>ATOM
      1 C1         -1.4579   -0.0905   -0.4585 C.3       1 <0>        -0.1062
      2 C2          0.0278    0.2268   -0.2766 C.3       1 <0>        -0.1195
      3 C3          0.2789    1.6996   -0.6061 C.3       1 <0>        -0.1362
      4 C4          0.4281   -0.0439    1.1509 C.2       1 <0>         0.5009
      5 O1          1.2954   -0.8651    1.3955 O.co2     1 <0>        -0.6638
      6 O2         -0.1153    0.5584    2.0611 O.co2     1 <0>        -0.6827
      7 S1          1.0097   -0.8175   -1.3883 S.3       1 <0>        -0.1197
      8 C5          2.6709   -0.3090   -1.0943 C.ar      1 <0>        -0.0457
      9 C6          2.9554    0.5797   -0.0644 C.ar      1 <0>        -0.0923
     10 C7          4.2584    0.9759    0.1631 C.ar      1 <0>        -0.1041
     11 C8          5.2798    0.4896   -0.6325 C.ar      1 <0>        -0.1080
     12 C9          5.0004   -0.3946   -1.6586 C.ar      1 <0>        -0.1099
     13 C10         3.7005   -0.8001   -1.8881 C.ar      1 <0>        -0.1130
     14 C11         6.7006    0.9245   -0.3811 C.3       1 <0>        -0.0873
     15 C12         7.3601   -0.0361    0.6106 C.3       1 <0>         0.1138
     16 N1          8.7413    0.3867    0.8550 N.am      1 <0>        -0.6265
     17 C13         9.0392    1.3236    1.9412 C.3       1 <0>         0.1331
     18 C14         9.3215    0.5420    3.2258 C.3       1 <0>        -0.1347
     19 C15         9.6327    1.5205    4.3601 C.3       1 <0>        -0.1163
     20 C16         9.9150    0.7389    5.6448 C.3       1 <0>        -0.1138
     21 C17        10.2262    1.7173    6.7791 C.3       1 <0>        -0.0869
     22 C18        11.5241    2.4646    6.4664 C.3       1 <0>        -0.1156
     23 C19        11.8353    3.4431    7.6007 C.3       1 <0>        -0.1205
     24 C20        11.9948    2.6702    8.9115 C.3       1 <0>        -0.1196
     25 C21        10.6969    1.9230    9.2242 C.3       1 <0>        -0.1201
     26 C22        10.3857    0.9445    8.0899 C.3       1 <0>        -0.1153
     27 C23         9.7379   -0.0863    0.0807 C.2       1 <0>         0.7084
     28 O3         10.8842    0.2646    0.2836 O.2       1 <0>        -0.5929
     29 N2          9.4638   -0.9482   -0.9185 N.am      1 <0>        -0.7440
     30 C24        10.5470   -1.4623   -1.7602 C.3       1 <0>         0.1646
     31 C25        10.8294   -0.4704   -2.8904 C.3       1 <0>        -0.1295
     32 C26        11.9607   -1.0073   -3.7694 C.3       1 <0>        -0.1162
     33 C27        11.5482   -2.3550   -4.3648 C.3       1 <0>        -0.1219
     34 C28        11.2659   -3.3469   -3.2347 C.3       1 <0>        -0.1145
     35 C29        10.1345   -2.8100   -2.3556 C.3       1 <0>        -0.1283
     36 H1         -1.7252    0.0124   -1.5102 H         1 <0>         0.0499
     37 H2         -1.6539   -1.1117   -0.1320 H         1 <0>         0.0554
     38 H3         -2.0528    0.6020    0.1370 H         1 <0>         0.0726
     39 H4         -0.2072    2.3271    0.1409 H         1 <0>         0.0689
     40 H5          1.3512    1.8951   -0.6027 H         1 <0>         0.0597
     41 H6         -0.1285    1.9260   -1.5915 H         1 <0>         0.0521
     42 H7          2.1583    0.9602    0.5570 H         1 <0>         0.1409
     43 H8          4.4802    1.6668    0.9630 H         1 <0>         0.1152
     44 H9          5.8004   -0.7721   -2.2782 H         1 <0>         0.1146
     45 H10         3.4837   -1.4946   -2.6862 H         1 <0>         0.1184
     46 H11         7.2550    0.9150   -1.3195 H         1 <0>         0.0686
     47 H12         6.7041    1.9328    0.0328 H         1 <0>         0.0729
     48 H13         6.8057   -0.0266    1.5490 H         1 <0>         0.0867
     49 H14         7.3566   -1.0445    0.1967 H         1 <0>         0.0741
     50 H15         9.9138    1.9185    1.6781 H         1 <0>         0.0819
     51 H16         8.1851    1.9826    2.0971 H         1 <0>         0.0757
     52 H17         8.4469   -0.0529    3.4888 H         1 <0>         0.0626
     53 H18        10.1757   -0.1170    3.0699 H         1 <0>         0.0647
     54 H19        10.5073    2.1154    4.0971 H         1 <0>         0.0648
     55 H20         8.7786    2.1794    4.5160 H         1 <0>         0.0624
     56 H21         9.0404    0.1440    5.9078 H         1 <0>         0.0620
     57 H22        10.7692    0.0799    5.4888 H         1 <0>         0.0601
     58 H23         9.4095    2.4327    6.8762 H         1 <0>         0.0694
     59 H24        12.3408    1.7493    6.3693 H         1 <0>         0.0598
     60 H25        11.4105    3.0152    5.5326 H         1 <0>         0.0645
     61 H26        12.7600    3.9754    7.3779 H         1 <0>         0.0587
     62 H27        11.0186    4.1584    7.6978 H         1 <0>         0.0604
     63 H28        12.8116    1.9549    8.8144 H         1 <0>         0.0595
     64 H29        12.2165    3.3673    9.7196 H         1 <0>         0.0578
     65 H30        10.8105    1.3724   10.1580 H         1 <0>         0.0588
     66 H31         9.8802    2.6383    9.3213 H         1 <0>         0.0608
     67 H32         9.4610    0.4121    8.3127 H         1 <0>         0.0611
     68 H33        11.2024    0.2292    7.9928 H         1 <0>         0.0599
     69 H34         8.5493   -1.2281   -1.0804 H         1 <0>         0.3968
     70 H35        11.4458   -1.5914   -1.1571 H         1 <0>         0.0858
     71 H36         9.9307   -0.3413   -3.4935 H         1 <0>         0.0624
     72 H37        11.1233    0.4897   -2.4662 H         1 <0>         0.0672
     73 H38        12.1619   -0.3007   -4.5745 H         1 <0>         0.0627
     74 H39        12.8595   -1.1364   -3.1663 H         1 <0>         0.0631
     75 H40        10.6495   -2.2259   -4.9679 H         1 <0>         0.0628
     76 H41        12.3542   -2.7375   -4.9911 H         1 <0>         0.0618
     77 H42        10.9720   -4.3070   -3.6589 H         1 <0>         0.0662
     78 H43        12.1646   -3.4760   -2.6315 H         1 <0>         0.0641
     79 H44         9.9334   -3.5166   -1.5505 H         1 <0>         0.0685
     80 H45         9.2358   -2.6809   -2.9588 H         1 <0>         0.0684
@<TRIPOS>BOND
     1    1    2 1
     2    1   36 1
     3    1   37 1
     4    1   38 1
     5    2    3 1
     6    2    4 1
     7    2    7 1
     8    3   39 1
     9    3   40 1
    10    3   41 1
    11    4    5 2
    12    4    6 1
    13    7    8 1
    14    8   13 ar
    15    8    9 ar
    16    9   10 ar
    17    9   42 1
    18   10   11 ar
    19   10   43 1
    20   11   12 ar
    21   11   14 1
    22   12   13 ar
    23   12   44 1
    24   13   45 1
    25   14   15 1
    26   14   46 1
    27   14   47 1
    28   15   16 1
    29   15   48 1
    30   15   49 1
    31   16   17 1
    32   16   27 am
    33   17   18 1
    34   17   50 1
    35   17   51 1
    36   18   19 1
    37   18   52 1
    38   18   53 1
    39   19   20 1
    40   19   54 1
    41   19   55 1
    42   20   21 1
    43   20   56 1
    44   20   57 1
    45   21   26 1
    46   21   22 1
    47   21   58 1
    48   22   23 1
    49   22   59 1
    50   22   60 1
    51   23   24 1
    52   23   61 1
    53   23   62 1
    54   24   25 1
    55   24   63 1
    56   24   64 1
    57   25   26 1
    58   25   65 1
    59   25   66 1
    60   26   67 1
    61   26   68 1
    62   27   28 2
    63   27   29 am
    64   29   30 1
    65   29   69 1
    66   30   35 1
    67   30   31 1
    68   30   70 1
    69   31   32 1
    70   31   71 1
    71   31   72 1
    72   32   33 1
    73   32   73 1
    74   32   74 1
    75   33   34 1
    76   33   75 1
    77   33   76 1
    78   34   35 1
    79   34   77 1
    80   34   78 1
    81   35   79 1
    82   35   80 1
@<TRIPOS>MOLECULE
ZINC01549989
   47    49     0     0     0
SMALL
USER_CHARGES

@<TRIPOS>ATOM
      1 C1         -2.5043    0.0232    0.0377 C.3       1 <0>        -0.1059
      2 C2         -1.1897   -0.7133    0.0154 C.ar      1 <0>        -0.1042
      3 C3         -1.1722   -2.0943    0.0029 C.ar      1 <0>        -0.0582
      4 C4          0.0397   -2.7728   -0.0118 C.ar      1 <0>        -0.1370
      5 C5          1.2330   -2.0613   -0.0199 C.ar      1 <0>        -0.0938
      6 C6          1.2131   -0.6808   -0.0132 C.ar      1 <0>        -0.1941
      7 C7          0.0021   -0.0041    0.0020 C.ar      1 <0>         0.1425
      8 O1         -0.0164    1.3558    0.0095 O.3       1 <0>        -0.2805
      9 C8          1.2479    2.0218    0.0010 C.3       1 <0>         0.0163
     10 C9          1.0302    3.5130    0.0111 C.2       1 <0>         0.4694
     11 O2         -0.0924    3.9596    0.0242 O.co2     1 <0>        -0.6124
     12 S1          0.0636   -4.5346   -0.0209 S.3       1 <0>        -0.1072
     13 C10         1.8294   -4.9495   -0.0402 C.3       1 <0>        -0.0196
     14 C11         1.9934   -6.4475   -0.0494 C.2       1 <0>        -0.1541
     15 C12         2.0777   -7.3053   -1.1008 C.2       1 <0>         0.0788
     16 N1          2.2206   -8.5918   -0.8854 N.2       1 <0>        -0.4809
     17 C13         2.2855   -9.0806    0.3451 C.2       1 <0>         0.1336
     18 S2          2.1390   -7.5888    1.3199 S.3       1 <0>         0.0503
     19 C14         2.4434  -10.4815    0.7913 C.ar      1 <0>         0.0239
     20 C15         2.4951  -10.7815    2.1531 C.ar      1 <0>        -0.0953
     21 C16         2.6378  -12.0912    2.5629 C.ar      1 <0>        -0.0656
     22 C17         2.7402  -13.1048    1.6268 C.ar      1 <0>        -0.1707
     23 C18         2.6950  -12.8134    0.2751 C.ar      1 <0>        -0.0684
     24 C19         2.5473  -11.5085   -0.1478 C.ar      1 <0>        -0.0736
     25 C20         2.9023  -14.5324    2.0815 C.3       1 <0>         0.5086
     26 F1          4.2634  -14.8294    2.2096 F         1 <0>        -0.1744
     27 F2          2.2695  -14.7028    3.3176 F         1 <0>        -0.1752
     28 F3          2.3244  -15.3903    1.1396 F         1 <0>        -0.1751
     29 C21         2.0067   -6.7795   -2.5114 C.3       1 <0>        -0.0902
     30 H1         -2.8358    0.2058   -0.9845 H         1 <0>         0.0692
     31 H2         -3.2489   -0.5783    0.5591 H         1 <0>         0.0617
     32 H3         -2.3790    0.9746    0.5545 H         1 <0>         0.0796
     33 H4         -2.1004   -2.6463    0.0091 H         1 <0>         0.1302
     34 H5          2.1759   -2.5879   -0.0317 H         1 <0>         0.1195
     35 H6          2.1406   -0.1275   -0.0194 H         1 <0>         0.1341
     36 H7          1.8173    1.7318    0.8840 H         1 <0>         0.0668
     37 H8          1.8003    1.7414   -0.8958 H         1 <0>         0.0670
     38 H9          2.2919   -4.5279   -0.9326 H         1 <0>         0.1149
     39 H10         2.3093   -4.5368    0.8472 H         1 <0>         0.1057
     40 H11         2.4194   -9.9907    2.8848 H         1 <0>         0.1405
     41 H12         2.6742  -12.3252    3.6166 H         1 <0>         0.1456
     42 H13         2.7751  -13.6092   -0.4506 H         1 <0>         0.1451
     43 H14         2.5125  -11.2823   -1.2033 H         1 <0>         0.1494
     44 H15         3.0110   -6.5406   -2.8611 H         1 <0>         0.0775
     45 H16         1.5669   -7.5372   -3.1598 H         1 <0>         0.0790
     46 H17         1.3908   -5.8805   -2.5334 H         1 <0>         0.0816
     47 O3          2.0835    4.3451    0.0055 O.co2     1 <0>        -0.7545
@<TRIPOS>BOND
     1    1    2 1
     2    1   30 1
     3    1   31 1
     4    1   32 1
     5    2    7 ar
     6    2    3 ar
     7    3    4 ar
     8    3   33 1
     9    4    5 ar
    10    4   12 1
    11    5    6 ar
    12    5   34 1
    13    6    7 ar
    14    6   35 1
    15    7    8 1
    16    8    9 1
    17    9   10 1
    18    9   36 1
    19    9   37 1
    20   10   11 2
    21   10   47 1
    22   12   13 1
    23   13   14 1
    24   13   38 1
    25   13   39 1
    26   14   18 1
    27   14   15 2
    28   15   16 1
    29   15   29 1
    30   16   17 2
    31   17   18 1
    32   17   19 1
    33   19   24 ar
    34   19   20 ar
    35   20   21 ar
    36   20   40 1
    37   21   22 ar
    38   21   41 1
    39   22   23 ar
    40   22   25 1
    41   23   24 ar
    42   23   42 1
    43   24   43 1
    44   25   26 1
    45   25   27 1
    46   25   28 1
    47   29   44 1
    48   29   45 1
    49   29   46 1
@<TRIPOS>MOLECULE
ZINC05604124
   35    37     0     0     0
SMALL
USER_CHARGES
5-[(4-phenoxyphenyl)methylene]hexahydropyrimidine-2,4,6-trione
@<TRIPOS>ATOM
      1 C1         -1.4122   -3.5441   -3.8896 C.ar      1 <0>        -0.1509
      2 C2         -0.3712   -4.3430   -3.4538 C.ar      1 <0>        -0.0818
      3 C3          0.5801   -3.8313   -2.5928 C.ar      1 <0>        -0.1442
      4 C4          0.4901   -2.5143   -2.1648 C.ar      1 <0>         0.1201
      5 C5         -0.5589   -1.7164   -2.5992 C.ar      1 <0>        -0.1954
      6 C6         -1.5045   -2.2316   -3.4643 C.ar      1 <0>        -0.0816
      7 O1          1.4242   -2.0087   -1.3175 O.3       1 <0>        -0.2600
      8 C7          1.2958   -0.7166   -0.9261 C.ar      1 <0>         0.1225
      9 C8          0.3645   -0.3779    0.0514 C.ar      1 <0>        -0.1473
     10 C9          0.2305    0.9212    0.4498 C.ar      1 <0>        -0.0571
     11 C10         1.0342    1.9158   -0.1285 C.ar      1 <0>        -0.1223
     12 C11         1.9717    1.5678   -1.1133 C.ar      1 <0>        -0.0117
     13 C12         2.0962    0.2652   -1.5031 C.ar      1 <0>        -0.1331
     14 C13         0.8954    3.3094    0.2934 C.2       1 <0>         0.1356
     15 C14         2.0209    4.0694    0.5484 C.2       1 <0>        -0.2852
     16 C15         3.3617    3.4573    0.6329 C.2       1 <0>         0.5640
     17 O2          3.5130    2.2602    0.4799 O.2       1 <0>        -0.4668
     18 N1          4.4152    4.2633    0.8788 N.am      1 <0>        -0.6619
     19 C16         4.2621    5.5829    1.0557 C.2       1 <0>         0.7157
     20 O3          5.2520    6.2514    1.2800 O.2       1 <0>        -0.5235
     21 N2          3.0765    6.2053    0.9991 N.am      1 <0>        -0.6622
     22 C17         1.9353    5.5288    0.7545 C.2       1 <0>         0.5726
     23 O4          0.8654    6.1053    0.7048 O.2       1 <0>        -0.4800
     24 H1         -2.1547   -3.9460   -4.5630 H         1 <0>         0.1264
     25 H2         -0.3016   -5.3679   -3.7871 H         1 <0>         0.1325
     26 H3          1.3930   -4.4557   -2.2527 H         1 <0>         0.1334
     27 H4         -0.6335   -0.6924   -2.2643 H         1 <0>         0.1285
     28 H5         -2.3188   -1.6098   -3.8059 H         1 <0>         0.1271
     29 H6         -0.2531   -1.1443    0.4959 H         1 <0>         0.1377
     30 H7         -0.4955    1.1834    1.2051 H         1 <0>         0.1391
     31 H8          2.5936    2.3286   -1.5615 H         1 <0>         0.1289
     32 H9          2.8175   -0.0040   -2.2605 H         1 <0>         0.1376
     33 H10        -0.0867    3.7443    0.4055 H         1 <0>         0.1659
     34 H11         5.3038    3.8780    0.9330 H         1 <0>         0.4384
     35 H12         3.0381    7.1647    1.1369 H         1 <0>         0.4391
@<TRIPOS>BOND
     1    1    6 ar
     2    1    2 ar
     3    1   24 1
     4    2    3 ar
     5    2   25 1
     6    3    4 ar
     7    3   26 1
     8    4    5 ar
     9    4    7 1
    10    5    6 ar
    11    5   27 1
    12    6   28 1
    13    7    8 1
    14    8   13 ar
    15    8    9 ar
    16    9   10 ar
    17    9   29 1
    18   10   11 ar
    19   10   30 1
    20   11   12 ar
    21   11   14 1
    22   12   13 ar
    23   12   31 1
    24   13   32 1
    25   14   15 2
    26   14   33 1
    27   15   22 1
    28   15   16 1
    29   16   17 2
    30   16   18 am
    31   18   19 am
    32   18   34 1
    33   19   20 2
    34   19   21 am
    35   21   22 am
    36   21   35 1
    37   22   23 2
@<TRIPOS>MOLECULE
ZINC02997374
   44    46     0     0     0
SMALL
USER_CHARGES

@<TRIPOS>ATOM
      1 C1         -1.7099    0.4965   -4.1874 C.3       1 <0>        -0.1083
      2 C2         -1.4588   -0.8774   -3.6211 C.ar      1 <0>        -0.1308
      3 C3         -1.4051   -1.9720   -4.4641 C.ar      1 <0>        -0.0811
      4 C4         -1.1755   -3.2325   -3.9474 C.ar      1 <0>        -0.1484
      5 C5         -0.9984   -3.3994   -2.5816 C.ar      1 <0>         0.1297
      6 C6         -1.0524   -2.2993   -1.7380 C.ar      1 <0>        -0.2067
      7 C7         -1.2770   -1.0403   -2.2602 C.ar      1 <0>        -0.0802
      8 O1         -0.7729   -4.6384   -2.0709 O.3       1 <0>        -0.3055
      9 C8         -0.5997   -4.7351   -0.6557 C.3       1 <0>         0.0618
     10 C9         -0.3583   -6.1959   -0.2701 C.3       1 <0>         0.0637
     11 O2          0.8779   -6.6392   -0.8334 O.3       1 <0>        -0.3054
     12 C10         1.2439   -7.9242   -0.5842 C.ar      1 <0>         0.1088
     13 C11         0.4242   -8.7427    0.1836 C.ar      1 <0>        -0.1923
     14 C12         0.7886  -10.0522    0.4426 C.ar      1 <0>        -0.1074
     15 C13         1.9690  -10.5570   -0.0590 C.ar      1 <0>        -0.1253
     16 C14         2.8041   -9.7411   -0.8353 C.ar      1 <0>        -0.0420
     17 C15         2.4286   -8.4169   -1.0996 C.ar      1 <0>        -0.0212
     18 C16         4.0603  -10.2713   -1.3710 C.2       1 <0>         0.0504
     19 C17         5.2250   -9.5339   -1.2604 C.2       1 <0>        -0.2435
     20 C18         5.2981   -8.3326   -0.4117 C.2       1 <0>         0.4920
     21 O3          4.2224   -7.9149    0.2877 O.3       1 <0>        -0.6153
     22 N1          6.4418   -7.6737   -0.3506 N.2       1 <0>        -0.6650
     23 C19         7.5194   -8.0624   -1.0289 C.2       1 <0>         0.6678
     24 O4          8.5369   -7.4017   -0.9198 O.2       1 <0>        -0.5772
     25 N2          7.5472   -9.1409   -1.8252 N.am      1 <0>        -0.6951
     26 C20         6.4549   -9.9189   -1.9838 C.2       1 <0>         0.5676
     27 O5          6.4810  -10.9009   -2.7015 O.2       1 <0>        -0.5335
     28 H1         -0.7588    0.9636   -4.4428 H         1 <0>         0.0670
     29 H2         -2.3259    0.4134   -5.0827 H         1 <0>         0.0635
     30 H3         -2.2266    1.1061   -3.4461 H         1 <0>         0.0628
     31 H4         -1.5430   -1.8416   -5.5272 H         1 <0>         0.1274
     32 H5         -1.1343   -4.0873   -4.6062 H         1 <0>         0.1309
     33 H6         -0.9148   -2.4267   -0.6744 H         1 <0>         0.1280
     34 H7         -1.3147   -0.1830   -1.6044 H         1 <0>         0.1231
     35 H8          0.2568   -4.1330   -0.3525 H         1 <0>         0.0771
     36 H9         -1.4961   -4.3703   -0.1542 H         1 <0>         0.0818
     37 H10        -0.3147   -6.2826    0.8156 H         1 <0>         0.0829
     38 H11        -1.1729   -6.8117   -0.6514 H         1 <0>         0.0699
     39 H12        -0.5022   -8.3545    0.5805 H         1 <0>         0.1194
     40 H13         0.1457  -10.6811    1.0405 H         1 <0>         0.1198
     41 H14         2.2503  -11.5793    0.1459 H         1 <0>         0.1209
     42 H15         3.0640   -7.7828   -1.7000 H         1 <0>         0.1258
     43 H16         4.0768  -11.2380   -1.8522 H         1 <0>         0.1414
     44 H17         8.3667   -9.3685   -2.2915 H         1 <0>         0.4007
@<TRIPOS>BOND
     1    1    2 1
     2    1   28 1
     3    1   29 1
     4    1   30 1
     5    2    7 ar
     6    2    3 ar
     7    3    4 ar
     8    3   31 1
     9    4    5 ar
    10    4   32 1
    11    5    6 ar
    12    5    8 1
    13    6    7 ar
    14    6   33 1
    15    7   34 1
    16    8    9 1
    17    9   10 1
    18    9   35 1
    19    9   36 1
    20   10   11 1
    21   10   37 1
    22   10   38 1
    23   11   12 1
    24   12   17 ar
    25   12   13 ar
    26   13   14 ar
    27   13   39 1
    28   14   15 ar
    29   14   40 1
    30   15   16 ar
    31   15   41 1
    32   16   17 ar
    33   16   18 1
    34   17   42 1
    35   18   19 2
    36   18   43 1
    37   19   26 1
    38   19   20 1
    39   20   21 1
    40   20   22 2
    41   22   23 1
    42   23   24 2
    43   23   25 am
    44   25   26 am
    45   25   44 1
    46   26   27 2
@<TRIPOS>MOLECULE
ZINC02997374
   45    47     0     0     0
SMALL
USER_CHARGES

@<TRIPOS>ATOM
      1 C1         -1.6723    0.5734   -3.9610 C.3       1 <0>        -0.1116
      2 C2         -1.4258   -0.8125   -3.4231 C.ar      1 <0>        -0.1239
      3 C3         -1.3771   -1.8900   -4.2882 C.ar      1 <0>        -0.0805
      4 C4         -1.1517   -3.1616   -3.7975 C.ar      1 <0>        -0.1466
      5 C5         -0.9737   -3.3568   -2.4356 C.ar      1 <0>         0.1236
      6 C6         -1.0226   -2.2740   -1.5697 C.ar      1 <0>        -0.2060
      7 C7         -1.2431   -1.0037   -2.0660 C.ar      1 <0>        -0.0805
      8 O1         -0.7523   -4.6068   -1.9504 O.3       1 <0>        -0.3084
      9 C8         -0.5779   -4.7329   -0.5377 C.3       1 <0>         0.0613
     10 C9         -0.3415   -6.2021   -0.1821 C.3       1 <0>         0.0615
     11 O2          0.8923   -6.6385   -0.7558 O.3       1 <0>        -0.3052
     12 C10         1.2538   -7.9296   -0.5331 C.ar      1 <0>         0.1219
     13 C11         0.4320   -8.7605    0.2187 C.ar      1 <0>        -0.1777
     14 C12         0.7921  -10.0761    0.4504 C.ar      1 <0>        -0.0914
     15 C13         1.9701  -10.5747   -0.0634 C.ar      1 <0>        -0.1111
     16 C14         2.8067   -9.7466   -0.8235 C.ar      1 <0>        -0.0812
     17 C15         2.4363   -8.4164   -1.0599 C.ar      1 <0>        -0.0613
     18 C16         4.0611  -10.2708   -1.3724 C.2       1 <0>         0.1336
     19 C17         5.2225   -9.5355   -1.2622 C.2       1 <0>        -0.2811
     20 C18         5.2955   -8.3307   -0.4100 C.2       1 <0>         0.5623
     21 O3          4.3274   -7.9521    0.2215 O.2       1 <0>        -0.4624
     22 N1          6.4660   -7.6625   -0.3514 N.am      1 <0>        -0.6621
     23 C19         7.5406   -8.0687   -1.0415 C.2       1 <0>         0.7160
     24 O4          8.5644   -7.4211   -0.9438 O.2       1 <0>        -0.5249
     25 N2          7.5483   -9.1500   -1.8332 N.am      1 <0>        -0.6621
     26 C20         6.4517   -9.9207   -1.9862 C.2       1 <0>         0.5727
     27 O5          6.4728  -10.9024   -2.7038 O.2       1 <0>        -0.4796
     28 H1         -0.7197    1.0421   -4.2080 H         1 <0>         0.0687
     29 H2         -2.2897    0.5109   -4.8572 H         1 <0>         0.0659
     30 H3         -2.1859    1.1698   -3.2069 H         1 <0>         0.0649
     31 H4         -1.5158   -1.7375   -5.3483 H         1 <0>         0.1296
     32 H5         -1.1145   -4.0030   -4.4735 H         1 <0>         0.1308
     33 H6         -0.8843   -2.4234   -0.5091 H         1 <0>         0.1269
     34 H7         -1.2768   -0.1598   -1.3928 H         1 <0>         0.1249
     35 H8          0.2813   -4.1403   -0.2233 H         1 <0>         0.0757
     36 H9         -1.4723   -4.3750   -0.0278 H         1 <0>         0.0862
     37 H10        -0.2970   -6.3111    0.9015 H         1 <0>         0.0867
     38 H11        -1.1589   -6.8070   -0.5748 H         1 <0>         0.0763
     39 H12        -0.4925   -8.3771    0.6247 H         1 <0>         0.1309
     40 H13         0.1479  -10.7148    1.0364 H         1 <0>         0.1326
     41 H14         2.2479  -11.6021    0.1199 H         1 <0>         0.1326
     42 H15         3.0733   -7.7725   -1.6481 H         1 <0>         0.1281
     43 H16         4.0756  -11.2328   -1.8631 H         1 <0>         0.1673
     44 H17         8.3627   -9.3864   -2.3041 H         1 <0>         0.4389
     45 H18         6.5312   -6.8693    0.2030 H         1 <0>         0.4378
@<TRIPOS>BOND
     1    1    2 1
     2    1   28 1
     3    1   29 1
     4    1   30 1
     5    2    7 ar
     6    2    3 ar
     7    3    4 ar
     8    3   31 1
     9    4    5 ar
    10    4   32 1
    11    5    6 ar
    12    5    8 1
    13    6    7 ar
    14    6   33 1
    15    7   34 1
    16    8    9 1
    17    9   10 1
    18    9   35 1
    19    9   36 1
    20   10   11 1
    21   10   37 1
    22   10   38 1
    23   11   12 1
    24   12   17 ar
    25   12   13 ar
    26   13   14 ar
    27   13   39 1
    28   14   15 ar
    29   14   40 1
    30   15   16 ar
    31   15   41 1
    32   16   17 ar
    33   16   18 1
    34   17   42 1
    35   18   19 2
    36   18   43 1
    37   19   26 1
    38   19   20 1
    39   20   21 2
    40   20   22 am
    41   22   23 am
    42   22   45 1
    43   23   24 2
    44   23   25 am
    45   25   26 am
    46   25   44 1
    47   26   27 2
@<TRIPOS>MOLECULE
ZINC02997374
   44    46     0     0     0
SMALL
USER_CHARGES

@<TRIPOS>ATOM
      1 C1         -1.6625    0.5866   -3.9260 C.3       1 <0>        -0.1091
      2 C2         -1.4173   -0.8013   -3.3926 C.ar      1 <0>        -0.1288
      3 C3         -1.3694   -1.8760   -4.2613 C.ar      1 <0>        -0.0805
      4 C4         -1.1452   -3.1494   -3.7748 C.ar      1 <0>        -0.1472
      5 C5         -0.9676   -3.3493   -2.4135 C.ar      1 <0>         0.1278
      6 C6         -1.0156   -2.2693   -1.5441 C.ar      1 <0>        -0.2069
      7 C7         -1.2349   -0.9972   -2.0361 C.ar      1 <0>        -0.0806
      8 O1         -0.7473   -4.6011   -1.9324 O.3       1 <0>        -0.3060
      9 C8         -0.5732   -4.7320   -0.5201 C.3       1 <0>         0.0619
     10 C9         -0.3383   -6.2026   -0.1693 C.3       1 <0>         0.0628
     11 O2          0.8953   -6.6382   -0.7443 O.3       1 <0>        -0.3065
     12 C10         1.2556   -7.9303   -0.5258 C.ar      1 <0>         0.1174
     13 C11         0.4330   -8.7630    0.2232 C.ar      1 <0>        -0.1975
     14 C12         0.7918  -10.0797    0.4506 C.ar      1 <0>        -0.0960
     15 C13         1.9696  -10.5776   -0.0643 C.ar      1 <0>        -0.1283
     16 C14         2.8074   -9.7475   -0.8212 C.ar      1 <0>        -0.0415
     17 C15         2.4377   -8.4163   -1.0540 C.ar      1 <0>        -0.0609
     18 C16         4.0613  -10.2710   -1.3716 C.2       1 <0>         0.0382
     19 C17         5.2231   -9.5357   -1.2610 C.2       1 <0>        -0.2587
     20 C18         5.2979   -8.3317   -0.4096 C.2       1 <0>         0.5588
     21 O3          4.3325   -7.9491    0.2244 O.2       1 <0>        -0.5178
     22 N1          6.4736   -7.6698   -0.3577 N.am      1 <0>        -0.6775
     23 C19         7.5528   -8.0952   -1.0641 C.2       1 <0>         0.6366
     24 O4          8.6946   -7.3875   -0.9658 O.3       1 <0>        -0.6602
     25 N2          7.5476   -9.1539   -1.8350 N.2       1 <0>        -0.6722
     26 C20         6.4554   -9.9201   -1.9855 C.2       1 <0>         0.5413
     27 O5          6.4765  -10.9045   -2.7044 O.2       1 <0>        -0.5422
     28 H1         -0.7094    1.0552   -4.1713 H         1 <0>         0.0676
     29 H2         -2.2797    0.5276   -4.8225 H         1 <0>         0.0642
     30 H3         -2.1757    1.1810   -3.1700 H         1 <0>         0.0632
     31 H4         -1.5077   -1.7199   -5.3209 H         1 <0>         0.1283
     32 H5         -1.1086   -3.9886   -4.4536 H         1 <0>         0.1314
     33 H6         -0.8777   -2.4223   -0.4839 H         1 <0>         0.1272
     34 H7         -1.2680   -0.1555   -1.3602 H         1 <0>         0.1234
     35 H8          0.2863   -4.1412   -0.2036 H         1 <0>         0.0758
     36 H9         -1.4674   -4.3750   -0.0092 H         1 <0>         0.0830
     37 H10        -0.2940   -6.3152    0.9139 H         1 <0>         0.0836
     38 H11        -1.1560   -6.8054   -0.5642 H         1 <0>         0.0725
     39 H12        -0.4912   -8.3801    0.6303 H         1 <0>         0.1226
     40 H13         0.1468  -10.7198    1.0342 H         1 <0>         0.1237
     41 H14         2.2464  -11.6059    0.1157 H         1 <0>         0.1261
     42 H15         3.0753   -7.7712   -1.6402 H         1 <0>         0.1251
     43 H16         4.0754  -11.2323   -1.8636 H         1 <0>         0.1534
     44 H17         6.5487   -6.8756    0.1940 H         1 <0>         0.4026
@<TRIPOS>BOND
     1    1    2 1
     2    1   28 1
     3    1   29 1
     4    1   30 1
     5    2    7 ar
     6    2    3 ar
     7    3    4 ar
     8    3   31 1
     9    4    5 ar
    10    4   32 1
    11    5    6 ar
    12    5    8 1
    13    6    7 ar
    14    6   33 1
    15    7   34 1
    16    8    9 1
    17    9   10 1
    18    9   35 1
    19    9   36 1
    20   10   11 1
    21   10   37 1
    22   10   38 1
    23   11   12 1
    24   12   17 ar
    25   12   13 ar
    26   13   14 ar
    27   13   39 1
    28   14   15 ar
    29   14   40 1
    30   15   16 ar
    31   15   41 1
    32   16   17 ar
    33   16   18 1
    34   17   42 1
    35   18   19 2
    36   18   43 1
    37   19   26 1
    38   19   20 1
    39   20   21 2
    40   20   22 am
    41   22   23 1
    42   22   44 1
    43   23   24 1
    44   23   25 2
    45   25   26 1
    46   26   27 2
@<TRIPOS>MOLECULE
ZINC02992723
   43    45     0     0     0
SMALL
USER_CHARGES

@<TRIPOS>ATOM
      1 C1         -0.0686    1.3229    0.6822 C.ar      1 <0>         0.0463
      2 C2          1.0780    2.0569    0.7826 C.ar      1 <0>        -0.1656
      3 C3          2.2854    1.5330    0.3294 C.ar      1 <0>         0.1440
      4 C4          2.3325    0.2587   -0.2288 C.ar      1 <0>        -0.2333
      5 C5          1.1932   -0.4860   -0.3347 C.ar      1 <0>        -0.0502
      6 C6         -0.0281    0.0365    0.1206 C.ar      1 <0>        -0.1148
      7 C7         -1.2514   -0.7550    0.0104 C.2       1 <0>         0.0614
      8 C8         -2.4096   -0.1753   -0.4821 C.2       1 <0>        -0.2553
      9 C9         -2.3939    1.1479   -1.1254 C.2       1 <0>         0.4940
     10 O1         -1.2421    1.8391   -1.2544 O.3       1 <0>        -0.6200
     11 N1         -3.5340    1.6438   -1.5743 N.2       1 <0>        -0.6658
     12 C10        -4.6849    0.9848   -1.4613 C.2       1 <0>         0.6679
     13 O2         -5.6935    1.5086   -1.9000 O.2       1 <0>        -0.5771
     14 N2         -4.7954   -0.2241   -0.8916 N.am      1 <0>        -0.6957
     15 C11        -3.7146   -0.8603   -0.3909 C.2       1 <0>         0.5674
     16 O3         -3.8134   -1.9593    0.1218 O.2       1 <0>        -0.5355
     17 O4          3.4208    2.2676    0.4316 O.3       1 <0>        -0.3099
     18 C12         4.6255    1.6707   -0.0526 C.3       1 <0>         0.0603
     19 C13         5.7912    2.6416    0.1457 C.3       1 <0>         0.0549
     20 O5          6.0068    2.8480    1.5432 O.3       1 <0>        -0.2906
     21 C14         7.0138    3.6903    1.8943 C.ar      1 <0>         0.1903
     22 C15         7.7751    4.3099    0.9139 C.ar      1 <0>        -0.2128
     23 C16         8.7979    5.1661    1.2735 C.ar      1 <0>        -0.0099
     24 C17         9.0632    5.4056    2.6091 C.ar      1 <0>        -0.0950
     25 C18         8.3062    4.7889    3.5882 C.ar      1 <0>        -0.0137
     26 C19         7.2786    3.9364    3.2337 C.ar      1 <0>        -0.1507
     27 N3         10.1596    6.3233    2.9916 N.pl3     1 <0>         0.0415
     28 O6         10.8224    6.8627    2.1364 O.2       1 <0>        -0.1671
     29 O7         10.3925    6.5335    4.1592 O.3       1 <0>        -0.1651
     30 H1         -1.0040    1.7288    1.0380 H         1 <0>         0.1252
     31 H2          1.0483    3.0464    1.2144 H         1 <0>         0.1264
     32 H3          3.2724   -0.1416   -0.5793 H         1 <0>         0.1215
     33 H4          1.2311   -1.4745   -0.7680 H         1 <0>         0.1222
     34 H5         -1.2529   -1.7918    0.3129 H         1 <0>         0.1369
     35 H6         -5.6654   -0.6500   -0.8414 H         1 <0>         0.4005
     36 H7          4.8216    0.7504    0.4975 H         1 <0>         0.0764
     37 H8          4.5178    1.4441   -1.1133 H         1 <0>         0.0902
     38 H9          6.6924    2.2238   -0.3031 H         1 <0>         0.0913
     39 H10         5.5561    3.5936   -0.3302 H         1 <0>         0.0840
     40 H11         7.5685    4.1229   -0.1295 H         1 <0>         0.1524
     41 H12         9.3911    5.6484    0.5106 H         1 <0>         0.1559
     42 H13         8.5157    4.9773    4.6308 H         1 <0>         0.1600
     43 H14         6.6848    3.4583    3.9987 H         1 <0>         0.1571
@<TRIPOS>BOND
     1    1    6 ar
     2    1    2 ar
     3    1   30 1
     4    2    3 ar
     5    2   31 1
     6    3    4 ar
     7    3   17 1
     8    4    5 ar
     9    4   32 1
    10    5    6 ar
    11    5   33 1
    12    6    7 1
    13    7    8 2
    14    7   34 1
    15    8   15 1
    16    8    9 1
    17    9   10 1
    18    9   11 2
    19   11   12 1
    20   12   13 2
    21   12   14 am
    22   14   15 am
    23   14   35 1
    24   15   16 2
    25   17   18 1
    26   18   19 1
    27   18   36 1
    28   18   37 1
    29   19   20 1
    30   19   38 1
    31   19   39 1
    32   20   21 1
    33   21   26 ar
    34   21   22 ar
    35   22   23 ar
    36   22   40 1
    37   23   24 ar
    38   23   41 1
    39   24   25 ar
    40   24   27 1
    41   25   26 ar
    42   25   42 1
    43   26   43 1
    44   27   28 2
    45   27   29 1
@<TRIPOS>MOLECULE
ZINC02992723
   44    46     0     0     0
SMALL
USER_CHARGES

@<TRIPOS>ATOM
      1 C1         -0.0575    1.3289    0.6402 C.ar      1 <0>         0.0152
      2 C2          1.0933    2.0588    0.7263 C.ar      1 <0>        -0.1606
      3 C3          2.2978    1.5192    0.2850 C.ar      1 <0>         0.1681
      4 C4          2.3379    0.2336   -0.2465 C.ar      1 <0>        -0.2260
      5 C5          1.1940   -0.5063   -0.3385 C.ar      1 <0>        -0.0279
      6 C6         -0.0238    0.0319    0.1052 C.ar      1 <0>        -0.1629
      7 C7         -1.2527   -0.7556    0.0104 C.2       1 <0>         0.1445
      8 C8         -2.4076   -0.1775   -0.4807 C.2       1 <0>        -0.2950
      9 C9         -2.3910    1.1503   -1.1259 C.2       1 <0>         0.5653
     10 O1         -1.3540    1.7750   -1.2438 O.2       1 <0>        -0.4693
     11 N1         -3.5576    1.6514   -1.5816 N.am      1 <0>        -0.6626
     12 C10        -4.7075    0.9740   -1.4584 C.2       1 <0>         0.7159
     13 O2         -5.7233    1.4827   -1.8900 O.2       1 <0>        -0.5251
     14 N2         -4.7977   -0.2342   -0.8853 N.am      1 <0>        -0.6627
     15 C11        -3.7121   -0.8628   -0.3892 C.2       1 <0>         0.5725
     16 O3         -3.8062   -1.9615    0.1242 O.2       1 <0>        -0.4825
     17 O4          3.4374    2.2495    0.3729 O.3       1 <0>        -0.3034
     18 C12         4.6390    1.6359   -0.0980 C.3       1 <0>         0.0581
     19 C13         5.8101    2.6042    0.0810 C.3       1 <0>         0.0539
     20 O5          6.0259    2.8382    1.4741 O.3       1 <0>        -0.2943
     21 C14         7.0374    3.6820    1.8085 C.ar      1 <0>         0.1852
     22 C15         7.8028    4.2769    0.8161 C.ar      1 <0>        -0.2118
     23 C16         8.8301    5.1346    1.1585 C.ar      1 <0>        -0.0100
     24 C17         9.0959    5.4002    2.4892 C.ar      1 <0>        -0.0903
     25 C18         8.3349    4.8082    3.4802 C.ar      1 <0>        -0.0131
     26 C19         7.3028    3.9543    3.1427 C.ar      1 <0>        -0.1493
     27 N3         10.1972    6.3195    2.8533 N.pl3     1 <0>         0.0386
     28 O6         10.8636    6.8374    1.9876 O.2       1 <0>        -0.1628
     29 O7         10.4305    6.5525    4.0165 O.3       1 <0>        -0.1604
     30 H1         -0.9909    1.7471    0.9871 H         1 <0>         0.1274
     31 H2          1.0687    3.0572    1.1375 H         1 <0>         0.1365
     32 H3          3.2758   -0.1795   -0.5872 H         1 <0>         0.1339
     33 H4          1.2263   -1.5036   -0.7518 H         1 <0>         0.1340
     34 H5         -1.2575   -1.7890    0.3244 H         1 <0>         0.1620
     35 H6         -5.6632   -0.6685   -0.8294 H         1 <0>         0.4384
     36 H7          4.8296    0.7261    0.4712 H         1 <0>         0.0819
     37 H8          4.5307    1.3880   -1.1539 H         1 <0>         0.0939
     38 H9          6.7091    2.1721   -0.3584 H         1 <0>         0.0953
     39 H10         5.5806    3.5474   -0.4146 H         1 <0>         0.0845
     40 H11         7.5958    4.0695   -0.2234 H         1 <0>         0.1516
     41 H12         9.4265    5.5977    0.3863 H         1 <0>         0.1574
     42 H13         8.5447    5.0170    4.5188 H         1 <0>         0.1617
     43 H14         6.7058    3.4955    3.9170 H         1 <0>         0.1568
     44 H15        -3.5645    2.5226   -2.0082 H         1 <0>         0.4375
@<TRIPOS>BOND
     1    1    6 ar
     2    1    2 ar
     3    1   30 1
     4    2    3 ar
     5    2   31 1
     6    3    4 ar
     7    3   17 1
     8    4    5 ar
     9    4   32 1
    10    5    6 ar
    11    5   33 1
    12    6    7 1
    13    7    8 2
    14    7   34 1
    15    8   15 1
    16    8    9 1
    17    9   10 2
    18    9   11 am
    19   11   12 am
    20   11   44 1
    21   12   13 2
    22   12   14 am
    23   14   15 am
    24   14   35 1
    25   15   16 2
    26   17   18 1
    27   18   19 1
    28   18   36 1
    29   18   37 1
    30   19   20 1
    31   19   38 1
    32   19   39 1
    33   20   21 1
    34   21   26 ar
    35   21   22 ar
    36   22   23 ar
    37   22   40 1
    38   23   24 ar
    39   23   41 1
    40   24   25 ar
    41   24   27 1
    42   25   26 ar
    43   25   42 1
    44   26   43 1
    45   27   28 2
    46   27   29 1
@<TRIPOS>MOLECULE
ZINC02992723
   43    45     0     0     0
SMALL
USER_CHARGES

@<TRIPOS>ATOM
      1 C1         -0.0571    1.3300    0.6356 C.ar      1 <0>         0.0099
      2 C2          1.0939    2.0597    0.7205 C.ar      1 <0>        -0.1575
      3 C3          2.2985    1.5186    0.2809 C.ar      1 <0>         0.1397
      4 C4          2.3385    0.2316   -0.2473 C.ar      1 <0>        -0.2234
      5 C5          1.1946   -0.5085   -0.3373 C.ar      1 <0>        -0.0516
      6 C6         -0.0235    0.0315    0.1039 C.ar      1 <0>        -0.1172
      7 C7         -1.2525   -0.7555    0.0100 C.2       1 <0>         0.0493
      8 C8         -2.4075   -0.1773   -0.4818 C.2       1 <0>        -0.2702
      9 C9         -2.3926    1.1494   -1.1268 C.2       1 <0>         0.5610
     10 O1         -1.3578    1.7784   -1.2468 O.2       1 <0>        -0.5236
     11 N1         -3.5650    1.6423   -1.5800 N.am      1 <0>        -0.6775
     12 C10        -4.7211    0.9421   -1.4477 C.2       1 <0>         0.6358
     13 O2         -5.8550    1.4931   -1.9223 O.3       1 <0>        -0.6605
     14 N2         -4.7968   -0.2383   -0.8856 N.2       1 <0>        -0.6728
     15 C11        -3.7153   -0.8623   -0.3914 C.2       1 <0>         0.5411
     16 O3         -3.8097   -1.9639    0.1227 O.2       1 <0>        -0.5440
     17 O4          3.4382    2.2489    0.3672 O.3       1 <0>        -0.3091
     18 C12         4.6398    1.6338   -0.1017 C.3       1 <0>         0.0597
     19 C13         5.8110    2.6023    0.0751 C.3       1 <0>         0.0550
     20 O5          6.0265    2.8400    1.4676 O.3       1 <0>        -0.2913
     21 C14         7.0381    3.6843    1.8001 C.ar      1 <0>         0.1891
     22 C15         7.8039    4.2765    0.8063 C.ar      1 <0>        -0.2128
     23 C16         8.8313    5.1349    1.1469 C.ar      1 <0>        -0.0100
     24 C17         9.0968    5.4039    2.4769 C.ar      1 <0>        -0.0940
     25 C18         8.3354    4.8146    3.4692 C.ar      1 <0>        -0.0134
     26 C19         7.3032    3.9600    3.1337 C.ar      1 <0>        -0.1503
     27 N3         10.1982    6.3239    2.8390 N.pl3     1 <0>         0.0410
     28 O6         10.8649    6.8394    1.9721 O.2       1 <0>        -0.1664
     29 O7         10.4312    6.5598    4.0016 O.3       1 <0>        -0.1638
     30 H1         -0.9905    1.7495    0.9808 H         1 <0>         0.1246
     31 H2          1.0695    3.0590    1.1294 H         1 <0>         0.1288
     32 H3          3.2763   -0.1825   -0.5870 H         1 <0>         0.1252
     33 H4          1.2269   -1.5070   -0.7477 H         1 <0>         0.1274
     34 H5         -1.2576   -1.7886    0.3249 H         1 <0>         0.1487
     35 H6          4.8300    0.7254    0.4699 H         1 <0>         0.0779
     36 H7          4.5318    1.3832   -1.1570 H         1 <0>         0.0907
     37 H8          6.7101    2.1690   -0.3629 H         1 <0>         0.0923
     38 H9          5.5819    3.5444   -0.4230 H         1 <0>         0.0837
     39 H10         7.5971    4.0664   -0.2327 H         1 <0>         0.1521
     40 H11         9.4279    5.5959    0.3736 H         1 <0>         0.1562
     41 H12         8.5450    5.0261    4.5074 H         1 <0>         0.1605
     42 H13         6.7059    3.5034    3.9090 H         1 <0>         0.1572
     43 H14        -3.5819    2.5128   -2.0077 H         1 <0>         0.4024
@<TRIPOS>BOND
     1    1    6 ar
     2    1    2 ar
     3    1   30 1
     4    2    3 ar
     5    2   31 1
     6    3    4 ar
     7    3   17 1
     8    4    5 ar
     9    4   32 1
    10    5    6 ar
    11    5   33 1
    12    6    7 1
    13    7    8 2
    14    7   34 1
    15    8   15 1
    16    8    9 1
    17    9   10 2
    18    9   11 am
    19   11   12 1
    20   11   43 1
    21   12   13 1
    22   12   14 2
    23   14   15 1
    24   15   16 2
    25   17   18 1
    26   18   19 1
    27   18   35 1
    28   18   36 1
    29   19   20 1
    30   19   37 1
    31   19   38 1
    32   20   21 1
    33   21   26 ar
    34   21   22 ar
    35   22   23 ar
    36   22   39 1
    37   23   24 ar
    38   23   40 1
    39   24   25 ar
    40   24   27 1
    41   25   26 ar
    42   25   41 1
    43   26   42 1
    44   27   28 2
    45   27   29 1
@<TRIPOS>MOLECULE
ZINC02977764
   46    48     0     0     0
SMALL
USER_CHARGES
5-[[4-[2-(4-methoxyphenoxy)ethoxy]phenyl]methylene]hexahydropyrimidine-2,4,6-trione
@<TRIPOS>ATOM
      1 C1          0.5553   -2.2847   -2.3973 C.3       1 <0>         0.0270
      2 O1         -0.5851   -1.6244   -1.8446 O.3       1 <0>        -0.3175
      3 C2         -0.4907   -0.2805   -1.6594 C.ar      1 <0>         0.0918
      4 C3         -1.5609    0.4230   -1.1269 C.ar      1 <0>        -0.1104
      5 C4         -1.4651    1.7880   -0.9388 C.ar      1 <0>        -0.1087
      6 C5         -0.2986    2.4552   -1.2823 C.ar      1 <0>         0.0937
      7 C6          0.7717    1.7517   -1.8143 C.ar      1 <0>        -0.1698
      8 C7          0.6759    0.3866   -2.0025 C.ar      1 <0>        -0.1684
      9 O2         -0.2044    3.7991   -1.0975 O.3       1 <0>        -0.3078
     10 C8          1.0260    4.4210   -1.4734 C.3       1 <0>         0.0610
     11 C9          0.9444    5.9231   -1.1942 C.3       1 <0>         0.0591
     12 O3          0.8256    6.1402    0.2132 O.3       1 <0>        -0.3012
     13 C10         0.7416    7.4273    0.6327 C.ar      1 <0>         0.1706
     14 C11         0.7790    8.4628   -0.2964 C.ar      1 <0>        -0.2224
     15 C12         0.6900    9.7605    0.1192 C.ar      1 <0>         0.0180
     16 C13         0.5714   10.0493    1.4875 C.ar      1 <0>        -0.1673
     17 C14         0.5396    9.0008    2.4197 C.ar      1 <0>        -0.0289
     18 C15         0.6241    7.7071    1.9909 C.ar      1 <0>        -0.1661
     19 C16         0.4808   11.4373    1.9399 C.2       1 <0>         0.1481
     20 C17         1.3427   12.3883    1.4284 C.2       1 <0>        -0.2986
     21 C18         2.5076   12.0095    0.6042 C.2       1 <0>         0.5657
     22 O4          2.7415   10.8429    0.3516 O.2       1 <0>        -0.4699
     23 N1          3.3017   12.9933    0.1338 N.am      1 <0>        -0.6630
     24 C19         3.0590   14.2823    0.4093 C.2       1 <0>         0.7161
     25 O5          3.8172   15.1188   -0.0406 O.2       1 <0>        -0.5263
     26 N2          2.0257   14.6987    1.1545 N.am      1 <0>        -0.6629
     27 C20         1.1434   13.8282    1.6868 C.2       1 <0>         0.5726
     28 O6          0.2092   14.2187    2.3608 O.2       1 <0>        -0.4829
     29 H1          0.7753   -1.8683   -3.3803 H         1 <0>         0.0546
     30 H2          1.4131   -2.1391   -1.7407 H         1 <0>         0.0548
     31 H3          0.3473   -3.3505   -2.4924 H         1 <0>         0.1011
     32 H4         -2.4693   -0.0965   -0.8598 H         1 <0>         0.1395
     33 H5         -2.3000    2.3365   -0.5283 H         1 <0>         0.1394
     34 H6          1.6802    2.2711   -2.0812 H         1 <0>         0.1300
     35 H7          1.5094   -0.1613   -2.4165 H         1 <0>         0.1313
     36 H8          1.8431    3.9881   -0.8964 H         1 <0>         0.0754
     37 H9          1.2056    4.2582   -2.5361 H         1 <0>         0.0862
     38 H10         1.8473    6.4106   -1.5621 H         1 <0>         0.0893
     39 H11         0.0741    6.3401   -1.7009 H         1 <0>         0.0793
     40 H12         0.8744    8.2393   -1.3487 H         1 <0>         0.1323
     41 H13         0.7149   10.5630   -0.6031 H         1 <0>         0.1223
     42 H14         0.4481    9.2166    3.4740 H         1 <0>         0.1379
     43 H15         0.5995    6.8993    2.7073 H         1 <0>         0.1381
     44 H16        -0.2599   11.7188    2.6738 H         1 <0>         0.1619
     45 H17         4.0687   12.7621   -0.4131 H         1 <0>         0.4369
     46 H18         1.9095   15.6483    1.3145 H         1 <0>         0.4381
@<TRIPOS>BOND
     1    1    2 1
     2    1   29 1
     3    1   30 1
     4    1   31 1
     5    2    3 1
     6    3    8 ar
     7    3    4 ar
     8    4    5 ar
     9    4   32 1
    10    5    6 ar
    11    5   33 1
    12    6    7 ar
    13    6    9 1
    14    7    8 ar
    15    7   34 1
    16    8   35 1
    17    9   10 1
    18   10   11 1
    19   10   36 1
    20   10   37 1
    21   11   12 1
    22   11   38 1
    23   11   39 1
    24   12   13 1
    25   13   18 ar
    26   13   14 ar
    27   14   15 ar
    28   14   40 1
    29   15   16 ar
    30   15   41 1
    31   16   17 ar
    32   16   19 1
    33   17   18 ar
    34   17   42 1
    35   18   43 1
    36   19   20 2
    37   19   44 1
    38   20   27 1
    39   20   21 1
    40   21   22 2
    41   21   23 am
    42   23   24 am
    43   23   45 1
    44   24   25 2
    45   24   26 am
    46   26   27 am
    47   26   46 1
    48   27   28 2
@<TRIPOS>MOLECULE
ZINC00968326
   45    47     0     0     0
SMALL
USER_CHARGES

@<TRIPOS>ATOM
      1 C1         -0.0187    1.5258    0.0104 C.3       1 <0>        -0.1485
      2 C2          0.0021   -0.0041    0.0020 C.3       1 <0>        -0.0824
      3 C3          0.7074   -0.4901   -1.2379 C.ar      1 <0>        -0.1335
      4 C4         -0.0042   -0.7219   -2.4052 C.ar      1 <0>        -0.0713
      5 C5          0.6863   -1.1686   -3.5212 C.ar      1 <0>        -0.1599
      6 C6          2.0515   -1.3665   -3.4340 C.ar      1 <0>         0.1214
      7 N1          2.6957   -1.1360   -2.3068 N.ar      1 <0>        -0.4784
      8 C7          2.0724   -0.7048   -1.2275 C.ar      1 <0>         0.1060
      9 C8          2.8124   -1.8518   -4.6409 C.3       1 <0>        -0.0657
     10 C9          3.9559   -0.8824   -4.9466 C.3       1 <0>         0.0687
     11 O1          4.6774   -1.3426   -6.0910 O.3       1 <0>        -0.3152
     12 C10         5.7327   -0.5897   -6.4989 C.ar      1 <0>         0.1399
     13 C11         6.0704    0.5652   -5.8083 C.ar      1 <0>        -0.2058
     14 C12         7.1439    1.3286   -6.2246 C.ar      1 <0>        -0.0602
     15 C13         7.8812    0.9427   -7.3288 C.ar      1 <0>        -0.1383
     16 C14         7.5463   -0.2076   -8.0191 C.ar      1 <0>        -0.0679
     17 C15         6.4775   -0.9777   -7.6031 C.ar      1 <0>        -0.1517
     18 C16         9.0514    1.7777   -7.7811 C.3       1 <0>        -0.0494
     19 C17        10.3234    1.2942   -7.0816 C.3       1 <0>        -0.0713
     20 H1         10.4751    0.2258   -7.2351 H         1 <0>         0.1617
     21 C18        11.5388    2.0958   -7.5262 C.2       1 <0>         0.5304
     22 O2         11.9246    2.1041   -8.6755 O.2       1 <0>        -0.4580
     23 N2         12.1444    2.7828   -6.5723 N.am      1 <0>        -0.6899
     24 C19        11.7359    2.7906   -5.2899 C.2       1 <0>         0.5612
     25 O3         12.2256    3.3872   -4.3506 O.2       1 <0>        -0.4174
     26 S1         10.3050    1.7178   -5.2898 S.3       1 <0>        -0.1427
     27 H2          1.0039    1.9031    0.0027 H         1 <0>         0.0568
     28 H3         -0.5459    1.8868   -0.8726 H         1 <0>         0.0553
     29 H4         -0.5289    1.8773    0.9072 H         1 <0>         0.0621
     30 H5          0.5293   -0.3651    0.8851 H         1 <0>         0.0771
     31 H6         -1.0205   -0.3814    0.0098 H         1 <0>         0.0751
     32 H7         -1.0711   -0.5588   -2.4439 H         1 <0>         0.1358
     33 H8          0.1641   -1.3598   -4.4471 H         1 <0>         0.1371
     34 H9          2.6347   -0.5220   -0.3237 H         1 <0>         0.1565
     35 H10         3.2199   -2.8425   -4.4393 H         1 <0>         0.0951
     36 H11         2.1404   -1.9028   -5.4976 H         1 <0>         0.0911
     37 H12         3.5484    0.1082   -5.1482 H         1 <0>         0.0612
     38 H13         4.6278   -0.8314   -4.0898 H         1 <0>         0.0764
     39 H14         5.4944    0.8673   -4.9462 H         1 <0>         0.1296
     40 H15         7.4072    2.2277   -5.6873 H         1 <0>         0.1300
     41 H16         8.1235   -0.5066   -8.8815 H         1 <0>         0.1325
     42 H17         6.2191   -1.8785   -8.1399 H         1 <0>         0.1331
     43 H18         9.1711    1.6812   -8.8602 H         1 <0>         0.1057
     44 H19         8.8719    2.8224   -7.5274 H         1 <0>         0.0897
     45 H20        12.9243    3.3086   -6.8092 H         1 <0>         0.4181
@<TRIPOS>BOND
     1    1    2 1
     2    1   27 1
     3    1   28 1
     4    1   29 1
     5    2    3 1
     6    2   30 1
     7    2   31 1
     8    3    8 ar
     9    3    4 ar
    10    4    5 ar
    11    4   32 1
    12    5    6 ar
    13    5   33 1
    14    6    7 ar
    15    6    9 1
    16    7    8 ar
    17    8   34 1
    18    9   10 1
    19    9   35 1
    20    9   36 1
    21   10   11 1
    22   10   37 1
    23   10   38 1
    24   11   12 1
    25   12   17 ar
    26   12   13 ar
    27   13   14 ar
    28   13   39 1
    29   14   15 ar
    30   14   40 1
    31   15   16 ar
    32   15   18 1
    33   16   17 ar
    34   16   41 1
    35   17   42 1
    36   18   19 1
    37   18   43 1
    38   18   44 1
    39   19   20 1
    40   19   26 1
    41   19   21 1
    42   21   22 2
    43   21   23 am
    44   23   24 am
    45   23   45 1
    46   24   25 2
    47   24   26 1
@<TRIPOS>MOLECULE
ZINC00968327
   45    47     0     0     0
SMALL
USER_CHARGES

@<TRIPOS>ATOM
      1 C1         -0.0187    1.5258    0.0104 C.3       1 <0>        -0.1485
      2 C2          0.0021   -0.0041    0.0020 C.3       1 <0>        -0.0825
      3 C3          0.7074   -0.4901   -1.2379 C.ar      1 <0>        -0.1336
      4 C4         -0.0042   -0.7219   -2.4052 C.ar      1 <0>        -0.0712
      5 C5          0.6863   -1.1686   -3.5212 C.ar      1 <0>        -0.1598
      6 C6          2.0515   -1.3665   -3.4340 C.ar      1 <0>         0.1216
      7 N1          2.6957   -1.1360   -2.3068 N.ar      1 <0>        -0.4787
      8 C7          2.0724   -0.7048   -1.2275 C.ar      1 <0>         0.1058
      9 C8          2.8124   -1.8518   -4.6409 C.3       1 <0>        -0.0660
     10 C9          3.9559   -0.8824   -4.9466 C.3       1 <0>         0.0690
     11 O1          4.6774   -1.3426   -6.0910 O.3       1 <0>        -0.3149
     12 C10         5.7327   -0.5897   -6.4989 C.ar      1 <0>         0.1399
     13 C11         6.0704    0.5652   -5.8083 C.ar      1 <0>        -0.2075
     14 C12         7.1439    1.3286   -6.2246 C.ar      1 <0>        -0.0666
     15 C13         7.8812    0.9427   -7.3288 C.ar      1 <0>        -0.1380
     16 C14         7.5463   -0.2076   -8.0191 C.ar      1 <0>        -0.0619
     17 C15         6.4775   -0.9777   -7.6031 C.ar      1 <0>        -0.1499
     18 C16         9.0514    1.7777   -7.7811 C.3       1 <0>        -0.0494
     19 C17        10.3234    1.2942   -7.0816 C.3       1 <0>        -0.0718
     20 H1         10.1976    1.2843   -5.9990 H         1 <0>         0.1610
     21 C18        11.5310    2.1255   -7.4915 C.2       1 <0>         0.5304
     22 O2         11.6078    3.3136   -7.2622 O.2       1 <0>        -0.4586
     23 N2         12.4905    1.4623   -8.1144 N.am      1 <0>        -0.6899
     24 C19        12.4296    0.1443   -8.3802 C.2       1 <0>         0.5610
     25 O3         13.2568   -0.5460   -8.9434 O.2       1 <0>        -0.4171
     26 S1         10.8483   -0.3549   -7.7104 S.3       1 <0>        -0.1410
     27 H2          1.0039    1.9031    0.0027 H         1 <0>         0.0567
     28 H3         -0.5459    1.8868   -0.8726 H         1 <0>         0.0554
     29 H4         -0.5289    1.8773    0.9072 H         1 <0>         0.0622
     30 H5          0.5293   -0.3651    0.8851 H         1 <0>         0.0771
     31 H6         -1.0205   -0.3814    0.0098 H         1 <0>         0.0752
     32 H7         -1.0711   -0.5588   -2.4439 H         1 <0>         0.1359
     33 H8          0.1641   -1.3598   -4.4471 H         1 <0>         0.1372
     34 H9          2.6347   -0.5220   -0.3237 H         1 <0>         0.1563
     35 H10         3.2199   -2.8425   -4.4393 H         1 <0>         0.0953
     36 H11         2.1404   -1.9028   -5.4976 H         1 <0>         0.0913
     37 H12         3.5484    0.1082   -5.1482 H         1 <0>         0.0610
     38 H13         4.6278   -0.8314   -4.0898 H         1 <0>         0.0759
     39 H14         5.4944    0.8673   -4.9462 H         1 <0>         0.1292
     40 H15         7.4072    2.2277   -5.6873 H         1 <0>         0.1275
     41 H16         8.1235   -0.5066   -8.8815 H         1 <0>         0.1348
     42 H17         6.2191   -1.8785   -8.1399 H         1 <0>         0.1336
     43 H18         9.1711    1.6812   -8.8602 H         1 <0>         0.0907
     44 H19         8.8719    2.8224   -7.5274 H         1 <0>         0.1047
     45 H20        13.2798    1.9516   -8.3948 H         1 <0>         0.4181
@<TRIPOS>BOND
     1    1    2 1
     2    1   27 1
     3    1   28 1
     4    1   29 1
     5    2    3 1
     6    2   30 1
     7    2   31 1
     8    3    8 ar
     9    3    4 ar
    10    4    5 ar
    11    4   32 1
    12    5    6 ar
    13    5   33 1
    14    6    7 ar
    15    6    9 1
    16    7    8 ar
    17    8   34 1
    18    9   10 1
    19    9   35 1
    20    9   36 1
    21   10   11 1
    22   10   37 1
    23   10   38 1
    24   11   12 1
    25   12   17 ar
    26   12   13 ar
    27   13   14 ar
    28   13   39 1
    29   14   15 ar
    30   14   40 1
    31   15   16 ar
    32   15   18 1
    33   16   17 ar
    34   16   41 1
    35   17   42 1
    36   18   19 1
    37   18   43 1
    38   18   44 1
    39   19   20 1
    40   19   26 1
    41   19   21 1
    42   21   22 2
    43   21   23 am
    44   23   24 am
    45   23   45 1
    46   24   25 2
    47   24   26 1
