@<TRIPOS>MOLECULE
ZINC08214587
   25    24     0     0     0
SMALL
USER_CHARGES
2-(fluoro-isopropoxy-phosphoryl)oxypropane
@<TRIPOS>ATOM
      1 C1         -1.0941    1.3223   -3.5258 C.3       1 <0>        -0.1744
      2 C2         -0.2274    2.1810   -2.6026 C.3       1 <0>         0.1375
      3 C3         -0.1593    3.6085   -3.1491 C.3       1 <0>        -0.1672
      4 O1         -0.7993    2.1991   -1.2931 O.3       1 <0>        -0.7235
      5 P1         -0.0206    1.6658    0.0112 P.3       1 <0>         2.1887
      6 O2          1.3679    2.1780    0.0007 O.2       1 <0>        -1.0004
      7 O3         -0.7742    2.1850    1.3358 O.3       1 <0>        -0.7136
      8 C4         -0.5286    1.6416    2.6345 C.3       1 <0>         0.1321
      9 C5         -0.0214    2.7472    3.5624 C.3       1 <0>        -0.1688
     10 C6         -1.8266    1.0589    3.1972 C.3       1 <0>        -0.1736
     11 F1          0.0021   -0.0041    0.0020 F         1 <0>        -0.3757
     12 H1         -0.6579    1.3085   -4.5246 H         1 <0>         0.0849
     13 H2         -1.1426    0.3054   -3.1365 H         1 <0>         0.0634
     14 H3         -2.0992    1.7412   -3.5741 H         1 <0>         0.0744
     15 H4          0.7777    1.7621   -2.5544 H         1 <0>         0.0744
     16 H5          0.4582    4.2203   -2.4914 H         1 <0>         0.0688
     17 H6          0.2769    3.5947   -4.1479 H         1 <0>         0.0819
     18 H7         -1.1644    4.0274   -3.1973 H         1 <0>         0.0714
     19 H8          0.2220    0.8545    2.5630 H         1 <0>         0.0679
     20 H9          0.1658    2.3328    4.5530 H         1 <0>         0.0824
     21 H10         0.9033    3.1623    3.1615 H         1 <0>         0.0715
     22 H11        -0.7721    3.5344    3.6339 H         1 <0>         0.0737
     23 H12        -2.1879    0.2712    2.5362 H         1 <0>         0.0628
     24 H13        -1.6393    0.6444    4.1878 H         1 <0>         0.0853
     25 H14        -2.5772    1.8460    3.2687 H         1 <0>         0.0759
@<TRIPOS>BOND
     1    1    2 1
     2    1   12 1
     3    1   13 1
     4    1   14 1
     5    2    3 1
     6    2    4 1
     7    2   15 1
     8    3   16 1
     9    3   17 1
    10    3   18 1
    11    4    5 1
    12    5    6 2
    13    5    7 1
    14    5   11 1
    15    7    8 1
    16    8    9 1
    17    8   10 1
    18    8   19 1
    19    9   20 1
    20    9   21 1
    21    9   22 1
    22   10   23 1
    23   10   24 1
    24   10   25 1
@<TRIPOS>MOLECULE
ZINC00388510
   17    18     0     0     0
SMALL
USER_CHARGES

@<TRIPOS>ATOM
      1 C1         -0.0166    1.3741    0.0096 C.ar      1 <0>        -0.0719
      2 C2          1.1656    2.1034    0.0022 C.ar      1 <0>        -0.1179
      3 C3          2.3879    1.4652   -0.0115 C.ar      1 <0>        -0.0385
      4 C4          2.4294    0.0756   -0.0179 C.ar      1 <0>        -0.1704
      5 C5          1.2247   -0.6702   -0.0134 C.ar      1 <0>        -0.0029
      6 C6          0.0021   -0.0041    0.0020 C.ar      1 <0>        -0.0999
      7 C7          1.3349   -2.1321   -0.0299 C.2       1 <0>        -0.1015
      8 C8          2.5357   -2.6954    0.2033 C.2       1 <0>         0.1466
      9 O1          3.6294   -1.9511    0.4650 O.3       1 <0>        -0.2676
     10 C9          3.6849   -0.6907   -0.0278 C.2       1 <0>         0.5344
     11 O2          4.7202   -0.2168   -0.4570 O.2       1 <0>        -0.4119
     12 Cl1         2.6794   -4.4251    0.1668 Cl        1 <0>         0.0302
     13 Cl2        -0.0580   -3.1195   -0.3439 Cl        1 <0>        -0.0042
     14 H1         -0.9631    1.8939    0.0260 H         1 <0>         0.1414
     15 H2          1.1270    3.1827    0.0069 H         1 <0>         0.1422
     16 H3          3.3031    2.0387   -0.0176 H         1 <0>         0.1472
     17 H4         -0.9227   -0.5619    0.0080 H         1 <0>         0.1448
@<TRIPOS>BOND
     1    1    6 ar
     2    1    2 ar
     3    1   14 1
     4    2    3 ar
     5    2   15 1
     6    3    4 ar
     7    3   16 1
     8    4   10 1
     9    4    5 ar
    10    5    6 ar
    11    5    7 1
    12    6   17 1
    13    7    8 2
    14    7   13 1
    15    8    9 1
    16    8   12 1
    17    9   10 1
    18   10   11 2
