@<TRIPOS>MOLECULE
ZINC13208445
   41    43     0     0     0
SMALL
USER_CHARGES
1-(3-benzyloxy-2-pyridyl)-3-(3-chlorophenyl)urea
@<TRIPOS>ATOM
      1 C1         -0.5814   10.0618    0.0012 C.ar      1 <0>        -0.1070
      2 C2         -0.6981    9.3764   -1.1936 C.ar      1 <0>        -0.1225
      3 C3         -0.9133    8.0110   -1.1890 C.ar      1 <0>        -0.0948
      4 C4         -1.0121    7.3308    0.0104 C.ar      1 <0>        -0.1005
      5 C5         -0.9011    8.0171    1.2052 C.ar      1 <0>        -0.0948
      6 C6         -0.6803    9.3817    1.2006 C.ar      1 <0>        -0.1225
      7 C7         -1.2471    5.8423    0.0154 C.3       1 <0>         0.1042
      8 O1          0.0094    5.1617    0.0075 O.3       1 <0>        -0.3101
      9 C8         -0.0248    3.8023    0.0107 C.ar      1 <0>         0.0475
     10 C9         -1.2380    3.1283    0.0207 C.ar      1 <0>        -0.1385
     11 C10        -1.2233    1.7405    0.0175 C.ar      1 <0>        -0.1612
     12 C11        -0.0128    1.0764    0.0157 C.ar      1 <0>         0.0967
     13 N1          1.1266    1.7421    0.0062 N.ar      1 <0>        -0.4383
     14 C12         1.1588    3.0644    0.0035 C.ar      1 <0>         0.3586
     15 N2          2.3872    3.7269   -0.0061 N.am      1 <0>        -0.6586
     16 C13         3.5343    3.0193   -0.0127 C.2       1 <0>         0.6949
     17 O2          3.4990    1.8040   -0.0102 O.2       1 <0>        -0.5073
     18 N3          4.7206    3.6590   -0.0220 N.am      1 <0>        -0.6833
     19 C14         5.9104    2.9281    0.0688 C.ar      1 <0>         0.1761
     20 C15         6.9990    3.4530    0.7533 C.ar      1 <0>        -0.1425
     21 C16         8.1704    2.7274    0.8461 C.ar      1 <0>        -0.0871
     22 C17         8.2643    1.4835    0.2494 C.ar      1 <0>        -0.1271
     23 C18         7.1837    0.9597   -0.4383 C.ar      1 <0>        -0.0154
     24 C19         6.0068    1.6793   -0.5300 C.ar      1 <0>        -0.1130
     25 Cl1         7.3063   -0.6018   -1.1869 Cl        1 <0>        -0.0638
     26 H1         -0.4127   11.1285   -0.0024 H         1 <0>         0.1255
     27 H2         -0.6209    9.9078   -2.1307 H         1 <0>         0.1264
     28 H3         -1.0045    7.4755   -2.1225 H         1 <0>         0.1244
     29 H4         -0.9827    7.4864    2.1423 H         1 <0>         0.1244
     30 H5         -0.5888    9.9170    2.1341 H         1 <0>         0.1264
     31 H6         -1.8179    5.5616   -0.8698 H         1 <0>         0.0737
     32 H7         -1.8047    5.5655    0.9101 H         1 <0>         0.0737
     33 H8         -2.1716    3.6711    0.0265 H         1 <0>         0.1439
     34 H9         -2.1497    1.1854    0.0208 H         1 <0>         0.1409
     35 H10         0.0018   -0.0035    0.0176 H         1 <0>         0.1641
     36 H11         2.4154    4.6965   -0.0081 H         1 <0>         0.4194
     37 H12         4.7496    4.6261   -0.0917 H         1 <0>         0.4097
     38 H13         6.9282    4.4263    1.2160 H         1 <0>         0.1321
     39 H14         9.0156    3.1339    1.3815 H         1 <0>         0.1374
     40 H15         9.1829    0.9199    0.3199 H         1 <0>         0.1349
     41 H16         5.1634    1.2703   -1.0664 H         1 <0>         0.1532
@<TRIPOS>BOND
     1    1    6 ar
     2    1    2 ar
     3    1   26 1
     4    2    3 ar
     5    2   27 1
     6    3    4 ar
     7    3   28 1
     8    4    5 ar
     9    4    7 1
    10    5    6 ar
    11    5   29 1
    12    6   30 1
    13    7    8 1
    14    7   31 1
    15    7   32 1
    16    8    9 1
    17    9   14 ar
    18    9   10 ar
    19   10   11 ar
    20   10   33 1
    21   11   12 ar
    22   11   34 1
    23   12   13 ar
    24   12   35 1
    25   13   14 ar
    26   14   15 1
    27   15   16 am
    28   15   36 1
    29   16   17 2
    30   16   18 am
    31   18   19 1
    32   18   37 1
    33   19   24 ar
    34   19   20 ar
    35   20   21 ar
    36   20   38 1
    37   21   22 ar
    38   21   39 1
    39   22   23 ar
    40   22   40 1
    41   23   24 ar
    42   23   25 1
    43   24   41 1
@<TRIPOS>MOLECULE
ZINC05331680
   41    43     0     0     0
SMALL
USER_CHARGES
1-(3-benzyloxy-2-pyridyl)-3-(4-chlorophenyl)urea
@<TRIPOS>ATOM
      1 C1         -1.6265   11.3014    0.5166 C.ar      1 <0>        -0.1070
      2 C2         -1.0283   10.9517    1.7127 C.ar      1 <0>        -0.1225
      3 C3          0.2542   10.4359    1.7193 C.ar      1 <0>        -0.0947
      4 C4          0.9387   10.2704    0.5298 C.ar      1 <0>        -0.1006
      5 C5          0.3426   10.6254   -0.6659 C.ar      1 <0>        -0.0948
      6 C6         -0.9421   11.1359   -0.6729 C.ar      1 <0>        -0.1225
      7 C7          2.3370    9.7085    0.5369 C.3       1 <0>         0.1042
      8 O1          2.2790    8.2851    0.4249 O.3       1 <0>        -0.3100
      9 C8          3.4638    7.6178    0.4162 C.ar      1 <0>         0.0478
     10 C9          4.6626    8.3096    0.5182 C.ar      1 <0>        -0.1385
     11 C10         5.8470    7.5863    0.4989 C.ar      1 <0>        -0.1610
     12 C11         5.7986    6.2111    0.3855 C.ar      1 <0>         0.0964
     13 N1          4.6444    5.5777    0.2955 N.ar      1 <0>        -0.4387
     14 C12         3.4923    6.2274    0.3099 C.ar      1 <0>         0.3583
     15 N2          2.2954    5.5161    0.2121 N.am      1 <0>        -0.6588
     16 C13         2.3166    4.1729    0.1036 C.2       1 <0>         0.6952
     17 O2          3.3785    3.5807    0.0909 O.2       1 <0>        -0.5079
     18 N3          1.1608    3.4861    0.0092 N.am      1 <0>        -0.6840
     19 C14         1.1765    2.0863    0.0087 C.ar      1 <0>         0.1723
     20 C15         2.1331    1.4011    0.7460 C.ar      1 <0>        -0.1080
     21 C16         2.1461    0.0201    0.7441 C.ar      1 <0>        -0.0876
     22 C17         1.2069   -0.6809    0.0083 C.ar      1 <0>        -0.0522
     23 C18         0.2525   -0.0005   -0.7274 C.ar      1 <0>        -0.0887
     24 C19         0.2354    1.3805   -0.7292 C.ar      1 <0>        -0.1356
     25 Cl1         1.2264   -2.4168    0.0076 Cl        1 <0>        -0.0702
     26 H1         -2.6288   11.7037    0.5114 H         1 <0>         0.1255
     27 H2         -1.5631   11.0810    2.6421 H         1 <0>         0.1264
     28 H3          0.7216   10.1627    2.6538 H         1 <0>         0.1245
     29 H4          0.8790   10.5002   -1.5948 H         1 <0>         0.1244
     30 H5         -1.4096   11.4088   -1.6074 H         1 <0>         0.1264
     31 H6          2.8328    9.9798    1.4690 H         1 <0>         0.0737
     32 H7          2.8969   10.1167   -0.3045 H         1 <0>         0.0737
     33 H8          4.6738    9.3859    0.6061 H         1 <0>         0.1440
     34 H9          6.7973    8.0943    0.5715 H         1 <0>         0.1410
     35 H10         6.7186    5.6457    0.3698 H         1 <0>         0.1642
     36 H11         1.4482    5.9885    0.2223 H         1 <0>         0.4195
     37 H12         0.3181    3.9617   -0.0583 H         1 <0>         0.4090
     38 H13         2.8636    1.9477    1.3240 H         1 <0>         0.1459
     39 H14         2.8902   -0.5132    1.3171 H         1 <0>         0.1374
     40 H15        -0.4794   -0.5499   -1.3008 H         1 <0>         0.1380
     41 H16        -0.5092    1.9110   -1.3041 H         1 <0>         0.1354
@<TRIPOS>BOND
     1    1    6 ar
     2    1    2 ar
     3    1   26 1
     4    2    3 ar
     5    2   27 1
     6    3    4 ar
     7    3   28 1
     8    4    5 ar
     9    4    7 1
    10    5    6 ar
    11    5   29 1
    12    6   30 1
    13    7    8 1
    14    7   31 1
    15    7   32 1
    16    8    9 1
    17    9   14 ar
    18    9   10 ar
    19   10   11 ar
    20   10   33 1
    21   11   12 ar
    22   11   34 1
    23   12   13 ar
    24   12   35 1
    25   13   14 ar
    26   14   15 1
    27   15   16 am
    28   15   36 1
    29   16   17 2
    30   16   18 am
    31   18   19 1
    32   18   37 1
    33   19   24 ar
    34   19   20 ar
    35   20   21 ar
    36   20   38 1
    37   21   22 ar
    38   21   39 1
    39   22   23 ar
    40   22   25 1
    41   23   24 ar
    42   23   40 1
    43   24   41 1
@<TRIPOS>MOLECULE
ZINC06898809
   42    44     0     0     0
SMALL
USER_CHARGES
1-(3-benzyloxy-2-pyridyl)-3-(3-cyanophenyl)urea
@<TRIPOS>ATOM
      1 C1         -0.5813   10.0619   -0.0006 C.ar      1 <0>        -0.1070
      2 C2         -0.6981    9.3761   -1.1952 C.ar      1 <0>        -0.1225
      3 C3         -0.9133    8.0106   -1.1902 C.ar      1 <0>        -0.0948
      4 C4         -1.0121    7.3309    0.0095 C.ar      1 <0>        -0.1005
      5 C5         -0.9010    8.0175    1.2041 C.ar      1 <0>        -0.0948
      6 C6         -0.6801    9.3821    1.1990 C.ar      1 <0>        -0.1225
      7 C7         -1.2471    5.8424    0.0150 C.3       1 <0>         0.1042
      8 O1          0.0094    5.1618    0.0073 O.3       1 <0>        -0.3100
      9 C8         -0.0248    3.8023    0.0109 C.ar      1 <0>         0.0480
     10 C9         -1.2380    3.1284    0.0213 C.ar      1 <0>        -0.1386
     11 C10        -1.2233    1.7406    0.0185 C.ar      1 <0>        -0.1607
     12 C11        -0.0128    1.0764    0.0168 C.ar      1 <0>         0.0965
     13 N1          1.1266    1.7422    0.0070 N.ar      1 <0>        -0.4385
     14 C12         1.1588    3.0645    0.0039 C.ar      1 <0>         0.3582
     15 N2          2.3872    3.7269   -0.0060 N.am      1 <0>        -0.6581
     16 C13         3.5343    3.0194   -0.0124 C.2       1 <0>         0.6955
     17 O2          3.4990    1.8040   -0.0095 O.2       1 <0>        -0.5095
     18 N3          4.7206    3.6590   -0.0220 N.am      1 <0>        -0.6838
     19 C14         5.9106    2.9279    0.0688 C.ar      1 <0>         0.1637
     20 C15         6.9991    3.4546    0.7542 C.ar      1 <0>        -0.1161
     21 C16         8.1748    2.7344    0.8518 C.ar      1 <0>        -0.0989
     22 C17         8.2799    1.4922    0.2598 C.ar      1 <0>        -0.0861
     23 C18         7.1941    0.9565   -0.4359 C.ar      1 <0>        -0.0080
     24 C19         6.0054    1.6815   -0.5294 C.ar      1 <0>        -0.0733
     25 C20         7.3002   -0.3320   -1.0517 C.1       1 <0>         0.2539
     26 N4          7.3844   -1.3541   -1.5402 N.1       1 <0>        -0.4108
     27 H1         -0.4125   11.1286   -0.0046 H         1 <0>         0.1255
     28 H2         -0.6209    9.9072   -2.1325 H         1 <0>         0.1264
     29 H3         -1.0045    7.4749   -2.1235 H         1 <0>         0.1244
     30 H4         -0.9825    7.4872    2.1413 H         1 <0>         0.1245
     31 H5         -0.5886    9.9178    2.1323 H         1 <0>         0.1264
     32 H6         -1.8179    5.5614   -0.8701 H         1 <0>         0.0737
     33 H7         -1.8046    5.5659    0.9098 H         1 <0>         0.0737
     34 H8         -2.1716    3.6712    0.0269 H         1 <0>         0.1440
     35 H9         -2.1498    1.1855    0.0216 H         1 <0>         0.1409
     36 H10         0.0017   -0.0035    0.0191 H         1 <0>         0.1640
     37 H11         2.4154    4.6965   -0.0084 H         1 <0>         0.4198
     38 H12         4.7496    4.6261   -0.0919 H         1 <0>         0.4105
     39 H13         6.9246    4.4282    1.2156 H         1 <0>         0.1343
     40 H14         9.0157    3.1473    1.3892 H         1 <0>         0.1395
     41 H15         9.2018    0.9346    0.3342 H         1 <0>         0.1350
     42 H16         5.1620    1.2724   -1.0658 H         1 <0>         0.1517
@<TRIPOS>BOND
     1    1    6 ar
     2    1    2 ar
     3    1   27 1
     4    2    3 ar
     5    2   28 1
     6    3    4 ar
     7    3   29 1
     8    4    5 ar
     9    4    7 1
    10    5    6 ar
    11    5   30 1
    12    6   31 1
    13    7    8 1
    14    7   32 1
    15    7   33 1
    16    8    9 1
    17    9   14 ar
    18    9   10 ar
    19   10   11 ar
    20   10   34 1
    21   11   12 ar
    22   11   35 1
    23   12   13 ar
    24   12   36 1
    25   13   14 ar
    26   14   15 1
    27   15   16 am
    28   15   37 1
    29   16   17 2
    30   16   18 am
    31   18   19 1
    32   18   38 1
    33   19   24 ar
    34   19   20 ar
    35   20   21 ar
    36   20   39 1
    37   21   22 ar
    38   21   40 1
    39   22   23 ar
    40   22   41 1
    41   23   24 ar
    42   23   25 1
    43   24   42 1
    44   25   26 3
@<TRIPOS>MOLECULE
ZINC13234698
   44    46     0     0     0
SMALL
USER_CHARGES
1-(3-benzyloxy-2-pyridyl)-3-[3-(trifluoromethyl)phenyl]urea
@<TRIPOS>ATOM
      1 C1         -0.6633    9.9734    0.4770 C.ar      1 <0>        -0.1068
      2 C2         -0.6880    9.4523   -0.8032 C.ar      1 <0>        -0.1224
      3 C3         -0.8830    8.0971   -0.9941 C.ar      1 <0>        -0.0948
      4 C4         -1.0538    7.2632    0.0950 C.ar      1 <0>        -0.1008
      5 C5         -1.0349    7.7852    1.3749 C.ar      1 <0>        -0.0948
      6 C6         -0.8342    9.1394    1.5661 C.ar      1 <0>        -0.1225
      7 C7         -1.2668    5.7859   -0.1132 C.3       1 <0>         0.1043
      8 O1         -0.0030    5.1192   -0.1232 O.3       1 <0>        -0.3100
      9 C8         -0.0175    3.7712   -0.3020 C.ar      1 <0>         0.0485
     10 C9         -1.2185    3.0954   -0.4659 C.ar      1 <0>        -0.1385
     11 C10        -1.1834    1.7204   -0.6515 C.ar      1 <0>        -0.1604
     12 C11         0.0339    1.0689   -0.6565 C.ar      1 <0>         0.0962
     13 N1          1.1615    1.7361   -0.4984 N.ar      1 <0>        -0.4388
     14 C12         1.1744    3.0472   -0.3240 C.ar      1 <0>         0.3577
     15 N2          2.3909    3.7116   -0.1603 N.am      1 <0>        -0.6581
     16 C13         3.5459    3.0174   -0.1801 C.2       1 <0>         0.6969
     17 O2          3.5282    1.8124   -0.3407 O.2       1 <0>        -0.5084
     18 N3          4.7206    3.6590   -0.0220 N.am      1 <0>        -0.6840
     19 C14         5.9104    2.9280    0.0688 C.ar      1 <0>         0.1690
     20 C15         5.9145    1.6776    0.6732 C.ar      1 <0>        -0.0879
     21 C16         7.0892    0.9563    0.7561 C.ar      1 <0>        -0.0967
     22 C17         8.2629    1.4827    0.2483 C.ar      1 <0>        -0.0866
     23 C18         8.2633    2.7297   -0.3489 C.ar      1 <0>        -0.1625
     24 C19         7.0905    3.4538   -0.4401 C.ar      1 <0>        -0.1010
     25 C20         9.5446    3.2997   -0.9005 C.3       1 <0>         0.5102
     26 F1         10.1952    4.0347    0.0964 F         1 <0>        -0.1756
     27 F2         10.3736    2.2566   -1.3269 F         1 <0>        -0.1747
     28 F3          9.2545    4.1371   -1.9830 F         1 <0>        -0.1769
     29 H1         -0.5103   11.0320    0.6262 H         1 <0>         0.1256
     30 H2         -0.5545   10.1038   -1.6541 H         1 <0>         0.1265
     31 H3         -0.9022    7.6900   -1.9942 H         1 <0>         0.1244
     32 H4         -1.1727    7.1343    2.2256 H         1 <0>         0.1244
     33 H5         -0.8146    9.5465    2.5663 H         1 <0>         0.1265
     34 H6         -1.7715    5.6222   -1.0653 H         1 <0>         0.0738
     35 H7         -1.8803    5.3897    0.6960 H         1 <0>         0.0738
     36 H8         -2.1582    3.6276   -0.4536 H         1 <0>         0.1443
     37 H9         -2.0997    1.1648   -0.7863 H         1 <0>         0.1412
     38 H10         0.0640   -0.0016   -0.7963 H         1 <0>         0.1643
     39 H11         2.4050    4.6730   -0.0321 H         1 <0>         0.4201
     40 H12         4.7413    4.6275    0.0289 H         1 <0>         0.4100
     41 H13         4.9992    1.2680    1.0742 H         1 <0>         0.1468
     42 H14         7.0922   -0.0179    1.2223 H         1 <0>         0.1406
     43 H15         9.1813    0.9187    0.3186 H         1 <0>         0.1383
     44 H16         7.0913    4.4276   -0.9070 H         1 <0>         0.1390
@<TRIPOS>BOND
     1    1    6 ar
     2    1    2 ar
     3    1   29 1
     4    2    3 ar
     5    2   30 1
     6    3    4 ar
     7    3   31 1
     8    4    5 ar
     9    4    7 1
    10    5    6 ar
    11    5   32 1
    12    6   33 1
    13    7    8 1
    14    7   34 1
    15    7   35 1
    16    8    9 1
    17    9   14 ar
    18    9   10 ar
    19   10   11 ar
    20   10   36 1
    21   11   12 ar
    22   11   37 1
    23   12   13 ar
    24   12   38 1
    25   13   14 ar
    26   14   15 1
    27   15   16 am
    28   15   39 1
    29   16   17 2
    30   16   18 am
    31   18   19 1
    32   18   40 1
    33   19   24 ar
    34   19   20 ar
    35   20   21 ar
    36   20   41 1
    37   21   22 ar
    38   21   42 1
    39   22   23 ar
    40   22   43 1
    41   23   24 ar
    42   23   25 1
    43   24   44 1
    44   25   26 1
    45   25   27 1
    46   25   28 1
@<TRIPOS>MOLECULE
ZINC13680188
   41    43     0     0     0
SMALL
USER_CHARGES

@<TRIPOS>ATOM
      1 C1          0.0113    1.4291    0.0103 C.ar      1 <0>        -0.1071
      2 C2          1.2036    2.1285    0.0067 C.ar      1 <0>        -0.1226
      3 C3          2.4054    1.4456   -0.0086 C.ar      1 <0>        -0.0947
      4 C4          2.4149    0.0634   -0.0197 C.ar      1 <0>        -0.1004
      5 C5          1.2225   -0.6360   -0.0152 C.ar      1 <0>        -0.0948
      6 C6          0.0207    0.0468   -0.0014 C.ar      1 <0>        -0.1226
      7 C7          3.7250   -0.6811   -0.0374 C.3       1 <0>         0.1042
      8 O1          4.1511   -0.9272    1.3042 O.3       1 <0>        -0.3101
      9 C8          5.3248   -1.5946    1.4666 C.ar      1 <0>         0.0466
     10 C9          6.0612   -2.0031    0.3634 C.ar      1 <0>        -0.1384
     11 C10         7.2531   -2.6808    0.5783 C.ar      1 <0>        -0.1623
     12 C11         7.6682   -2.9268    1.8719 C.ar      1 <0>         0.0964
     13 N1          6.9482   -2.5275    2.9033 N.ar      1 <0>        -0.4388
     14 C12         5.8094   -1.8737    2.7443 C.ar      1 <0>         0.3599
     15 N2          5.0836   -1.4652    3.8643 N.am      1 <0>        -0.6599
     16 C13         5.5468   -1.7320    5.1015 C.2       1 <0>         0.6951
     17 O2          6.5968   -2.3287    5.2420 O.2       1 <0>        -0.5102
     18 N3          4.8459   -1.3375    6.1831 N.am      1 <0>        -0.6846
     19 C14         5.2759   -1.6979    7.4650 C.ar      1 <0>         0.1606
     20 C15         4.3460   -1.9808    8.4569 C.ar      1 <0>        -0.1466
     21 C16         4.7735   -2.3361    9.7212 C.ar      1 <0>        -0.1021
     22 C17         6.1259   -2.4100   10.0000 C.ar      1 <0>        -0.1354
     23 C18         7.0544   -2.1285    9.0146 C.ar      1 <0>        -0.1015
     24 C19         6.6333   -1.7790    7.7465 C.ar      1 <0>        -0.1188
     25 H1         -0.9276    1.9626    0.0268 H         1 <0>         0.1255
     26 H2          1.1962    3.2084    0.0154 H         1 <0>         0.1264
     27 H3          3.3370    1.9921   -0.0121 H         1 <0>         0.1244
     28 H4          1.2299   -1.7160   -0.0243 H         1 <0>         0.1244
     29 H5         -0.9109   -0.4996    0.0018 H         1 <0>         0.1264
     30 H6          3.5966   -1.6302   -0.5577 H         1 <0>         0.0736
     31 H7          4.4760   -0.0827   -0.5532 H         1 <0>         0.0736
     32 H8          5.7146   -1.7987   -0.6388 H         1 <0>         0.1437
     33 H9          7.8501   -3.0128   -0.2583 H         1 <0>         0.1407
     34 H10         8.5953   -3.4539    2.0423 H         1 <0>         0.1638
     35 H11         4.2459   -0.9892    3.7522 H         1 <0>         0.4189
     36 H12         4.0435   -0.8038    6.0728 H         1 <0>         0.4068
     37 H13         3.2896   -1.9226    8.2400 H         1 <0>         0.1242
     38 H14         4.0508   -2.5562   10.4930 H         1 <0>         0.1259
     39 H15         6.4577   -2.6878   10.9895 H         1 <0>         0.1230
     40 H16         8.1099   -2.1864    9.2357 H         1 <0>         0.1257
     41 H17         7.3589   -1.5640    6.9761 H         1 <0>         0.1413
@<TRIPOS>BOND
     1    1    6 ar
     2    1    2 ar
     3    1   25 1
     4    2    3 ar
     5    2   26 1
     6    3    4 ar
     7    3   27 1
     8    4    5 ar
     9    4    7 1
    10    5    6 ar
    11    5   28 1
    12    6   29 1
    13    7    8 1
    14    7   30 1
    15    7   31 1
    16    8    9 1
    17    9   14 ar
    18    9   10 ar
    19   10   11 ar
    20   10   32 1
    21   11   12 ar
    22   11   33 1
    23   12   13 ar
    24   12   34 1
    25   13   14 ar
    26   14   15 1
    27   15   16 am
    28   15   35 1
    29   16   17 2
    30   16   18 am
    31   18   19 1
    32   18   36 1
    33   19   24 ar
    34   19   20 ar
    35   20   21 ar
    36   20   37 1
    37   21   22 ar
    38   21   38 1
    39   22   23 ar
    40   22   39 1
    41   23   24 ar
    42   23   40 1
    43   24   41 1
@<TRIPOS>MOLECULE
ZINC05331681
   43    45     0     0     0
SMALL
USER_CHARGES
1-(3-benzyloxy-2-pyridyl)-3-(4-nitrophenyl)urea
@<TRIPOS>ATOM
      1 C1         -0.5815   10.0617    0.0015 C.ar      1 <0>        -0.1065
      2 C2         -0.6982    9.3765   -1.1934 C.ar      1 <0>        -0.1224
      3 C3         -0.9133    8.0110   -1.1889 C.ar      1 <0>        -0.0948
      4 C4         -1.0122    7.3308    0.0105 C.ar      1 <0>        -0.1013
      5 C5         -0.9011    8.0170    1.2054 C.ar      1 <0>        -0.0948
      6 C6         -0.6804    9.3816    1.2009 C.ar      1 <0>        -0.1223
      7 C7         -1.2471    5.8423    0.0154 C.3       1 <0>         0.1042
      8 O1          0.0094    5.1617    0.0075 O.3       1 <0>        -0.3104
      9 C8         -0.0248    3.8023    0.0107 C.ar      1 <0>         0.0507
     10 C9         -1.2380    3.1283    0.0207 C.ar      1 <0>        -0.1385
     11 C10        -1.2233    1.7404    0.0173 C.ar      1 <0>        -0.1576
     12 C11        -0.0128    1.0763    0.0155 C.ar      1 <0>         0.0964
     13 N1          1.1266    1.7421    0.0061 N.ar      1 <0>        -0.4389
     14 C12         1.1588    3.0644    0.0035 C.ar      1 <0>         0.3544
     15 N2          2.3872    3.7269   -0.0071 N.am      1 <0>        -0.6557
     16 C13         3.5343    3.0194   -0.0145 C.2       1 <0>         0.6970
     17 O2          3.4990    1.8040   -0.0121 O.2       1 <0>        -0.5044
     18 N3          4.7206    3.6590   -0.0247 N.am      1 <0>        -0.6835
     19 C14         5.9104    2.9281    0.0652 C.ar      1 <0>         0.2219
     20 C15         6.9994    3.4528    0.7487 C.ar      1 <0>        -0.1479
     21 C16         8.1705    2.7263    0.8405 C.ar      1 <0>        -0.0314
     22 C17         8.2631    1.4827    0.2429 C.ar      1 <0>        -0.0648
     23 C18         7.1824    0.9599   -0.4433 C.ar      1 <0>        -0.0311
     24 C19         6.0066    1.6789   -0.5338 C.ar      1 <0>        -0.1219
     25 N4          9.5216    0.7093    0.3385 N.pl3     1 <0>         0.0309
     26 O3          9.6044   -0.3864   -0.1870 O.2       1 <0>        -0.1611
     27 O4         10.4743    1.1685    0.9426 O.3       1 <0>        -0.1632
     28 H1         -0.4127   11.1285   -0.0020 H         1 <0>         0.1258
     29 H2         -0.6209    9.9079   -2.1304 H         1 <0>         0.1266
     30 H3         -1.0045    7.4756   -2.1224 H         1 <0>         0.1245
     31 H4         -0.9828    7.4863    2.1425 H         1 <0>         0.1244
     32 H5         -0.5888    9.9169    2.1344 H         1 <0>         0.1266
     33 H6         -1.8179    5.5616   -0.8697 H         1 <0>         0.0743
     34 H7         -1.8047    5.5654    0.9102 H         1 <0>         0.0742
     35 H8         -2.1716    3.6710    0.0261 H         1 <0>         0.1451
     36 H9         -2.1497    1.1853    0.0202 H         1 <0>         0.1422
     37 H10         0.0018   -0.0036    0.0174 H         1 <0>         0.1652
     38 H11         2.4154    4.6965   -0.0090 H         1 <0>         0.4211
     39 H12         4.7495    4.6261   -0.0944 H         1 <0>         0.4145
     40 H13         6.9293    4.4260    1.2115 H         1 <0>         0.1508
     41 H14         9.0162    3.1318    1.3760 H         1 <0>         0.1584
     42 H15         7.2579   -0.0115   -0.9092 H         1 <0>         0.1578
     43 H16         5.1628    1.2699   -1.0696 H         1 <0>         0.1653
@<TRIPOS>BOND
     1    1    6 ar
     2    1    2 ar
     3    1   28 1
     4    2    3 ar
     5    2   29 1
     6    3    4 ar
     7    3   30 1
     8    4    5 ar
     9    4    7 1
    10    5    6 ar
    11    5   31 1
    12    6   32 1
    13    7    8 1
    14    7   33 1
    15    7   34 1
    16    8    9 1
    17    9   14 ar
    18    9   10 ar
    19   10   11 ar
    20   10   35 1
    21   11   12 ar
    22   11   36 1
    23   12   13 ar
    24   12   37 1
    25   13   14 ar
    26   14   15 1
    27   15   16 am
    28   15   38 1
    29   16   17 2
    30   16   18 am
    31   18   19 1
    32   18   39 1
    33   19   24 ar
    34   19   20 ar
    35   20   21 ar
    36   20   40 1
    37   21   22 ar
    38   21   41 1
    39   22   23 ar
    40   22   25 1
    41   23   24 ar
    42   23   42 1
    43   24   43 1
    44   25   26 2
    45   25   27 1
@<TRIPOS>MOLECULE
ZINC05091174
   41    43     0     0     0
SMALL
USER_CHARGES

@<TRIPOS>ATOM
      1 C1         -1.2009    1.4864   -3.5548 C.3       1 <0>        -0.0756
      2 C2         -1.0353    0.0908   -3.0109 C.2       1 <0>         0.0354
      3 C3         -2.0224   -0.7999   -2.8114 C.2       1 <0>        -0.2705
      4 C4         -1.4478   -1.9827   -2.2926 C.2       1 <0>         0.3867
      5 N1         -0.1570   -1.7907   -2.1905 N.2       1 <0>        -0.4532
      6 O1          0.1240   -0.4800   -2.6473 O.3       1 <0>        -0.1195
      7 N2         -2.1325   -3.1443   -1.9509 N.2       1 <0>        -1.0470
      8 S1         -1.3047   -4.4480   -1.3530 S.o2      1 <0>         2.6135
      9 O2         -0.4742   -4.9191   -2.4054 O.2       1 <0>        -1.0214
     10 O3         -0.7850   -4.0547   -0.0903 O.2       1 <0>        -1.0191
     11 C5         -2.4869   -5.7160   -1.0383 C.ar      1 <0>        -0.6083
     12 C6         -3.1035   -5.7932    0.1971 C.ar      1 <0>        -0.0128
     13 C7         -4.0302   -6.7862    0.4471 C.ar      1 <0>        -0.0971
     14 C8         -4.3430   -7.7076   -0.5439 C.ar      1 <0>         0.1521
     15 C9         -3.7222   -7.6270   -1.7837 C.ar      1 <0>        -0.1457
     16 C10        -2.8002   -6.6285   -2.0290 C.ar      1 <0>        -0.0164
     17 N3         -5.2808   -8.7149   -0.2937 N.pl3     1 <0>        -0.6236
     18 C11        -6.4052   -8.4331    0.3938 C.2       1 <0>         0.5438
     19 S2         -6.7571   -6.8164    0.8335 S.2       1 <0>        -0.5728
     20 N4         -7.2525   -9.4240    0.7353 N.pl3     1 <0>        -0.6302
     21 C12        -8.4754   -9.1203    1.3425 C.ar      1 <0>         0.1250
     22 C13        -9.2259   -8.0410    0.8944 C.ar      1 <0>        -0.0714
     23 C14       -10.4329   -7.7437    1.4962 C.ar      1 <0>        -0.1111
     24 C15       -10.8943   -8.5192    2.5441 C.ar      1 <0>        -0.1147
     25 C16       -10.1495   -9.5945    2.9927 C.ar      1 <0>        -0.1169
     26 C17        -8.9446   -9.9008    2.3912 C.ar      1 <0>        -0.1243
     27 H1         -0.2270    1.9726   -3.6104 H         1 <0>         0.0725
     28 H2         -1.6404    1.4383   -4.5511 H         1 <0>         0.0816
     29 H3         -1.8552    2.0577   -2.8963 H         1 <0>         0.0819
     30 H4         -3.0714   -0.6395   -3.0121 H         1 <0>         0.1405
     31 H5         -2.8599   -5.0764    0.9673 H         1 <0>         0.1433
     32 H6         -4.5109   -6.8464    1.4124 H         1 <0>         0.1461
     33 H7         -3.9632   -8.3420   -2.5564 H         1 <0>         0.1283
     34 H8         -2.3204   -6.5626   -2.9943 H         1 <0>         0.1431
     35 H9         -5.1219   -9.6162   -0.6151 H         1 <0>         0.4075
     36 H10        -7.0142  -10.3478    0.5599 H         1 <0>         0.4064
     37 H11        -8.8658   -7.4346    0.0765 H         1 <0>         0.1440
     38 H12       -11.0170   -6.9046    1.1482 H         1 <0>         0.1281
     39 H13       -11.8382   -8.2842    3.0134 H         1 <0>         0.1235
     40 H14       -10.5126  -10.1982    3.8113 H         1 <0>         0.1257
     41 H15        -8.3656  -10.7436    2.7388 H         1 <0>         0.1225
@<TRIPOS>BOND
     1    1    2 1
     2    1   27 1
     3    1   28 1
     4    1   29 1
     5    2    6 1
     6    2    3 2
     7    3    4 1
     8    3   30 1
     9    4    5 2
    10    4    7 1
    11    5    6 1
    12    7    8 1
    13    8    9 2
    14    8   10 2
    15    8   11 1
    16   11   16 ar
    17   11   12 ar
    18   12   13 ar
    19   12   31 1
    20   13   14 ar
    21   13   32 1
    22   14   15 ar
    23   14   17 1
    24   15   16 ar
    25   15   33 1
    26   16   34 1
    27   17   18 1
    28   17   35 1
    29   18   19 2
    30   18   20 1
    31   20   21 1
    32   20   36 1
    33   21   26 ar
    34   21   22 ar
    35   22   23 ar
    36   22   37 1
    37   23   24 ar
    38   23   38 1
    39   24   25 ar
    40   24   39 1
    41   25   26 ar
    42   25   40 1
    43   26   41 1
@<TRIPOS>MOLECULE
ZINC13811893
   36    37     0     0     0
SMALL
USER_CHARGES
3-(3-chloro-4-methyl-phenyl)-1-(4-methyl-3-nitro-phenyl)thiourea
@<TRIPOS>ATOM
      1 C1          2.2468    7.2167    2.3154 C.3       1 <0>        -0.1385
      2 C2          2.0111    5.8712    1.6791 C.ar      1 <0>         0.0004
      3 C3          1.0055    5.7177    0.7420 C.ar      1 <0>        -0.1171
      4 C4          0.7907    4.4874    0.1528 C.ar      1 <0>        -0.0123
      5 C5          1.5781    3.4005    0.5110 C.ar      1 <0>         0.1141
      6 C6          2.5866    3.5579    1.4525 C.ar      1 <0>        -0.0535
      7 C7          2.8004    4.7927    2.0336 C.ar      1 <0>        -0.0481
      8 N1          3.8751    4.9614    3.0372 N.pl3     1 <0>         0.0350
      9 O1          4.5348    4.0003    3.3905 O.2       1 <0>        -0.1698
     10 O2          4.0999    6.0612    3.5098 O.3       1 <0>        -0.1518
     11 N2          1.3593    2.1516   -0.0797 N.pl3     1 <0>        -0.6240
     12 C8          0.1038    1.6807   -0.2148 C.2       1 <0>         0.5482
     13 S1         -1.2292    2.6552    0.2373 S.2       1 <0>        -0.5744
     14 N3         -0.1026    0.4447   -0.7110 N.pl3     1 <0>        -0.6170
     15 C9         -1.3973   -0.0826   -0.7588 C.ar      1 <0>         0.1212
     16 C10        -2.2768    0.1354    0.2941 C.ar      1 <0>        -0.0627
     17 C11        -3.5564   -0.3814    0.2419 C.ar      1 <0>        -0.0996
     18 C12        -3.9594   -1.1255   -0.8518 C.ar      1 <0>        -0.0616
     19 C13        -3.0842   -1.3496   -1.9000 C.ar      1 <0>        -0.0344
     20 C14        -1.8041   -0.8296   -1.8562 C.ar      1 <0>        -0.1073
     21 Cl1        -3.5945   -2.2839   -3.2714 Cl        1 <0>        -0.0585
     22 C15        -5.3545   -1.6932   -0.9024 C.3       1 <0>        -0.1239
     23 H1          3.0660    7.7221    1.8039 H         1 <0>         0.0913
     24 H2          1.3421    7.8195    2.2363 H         1 <0>         0.0777
     25 H3          2.5028    7.0818    3.3663 H         1 <0>         0.1025
     26 H4          0.3908    6.5620    0.4673 H         1 <0>         0.1553
     27 H5          0.0085    4.3693   -0.5824 H         1 <0>         0.1677
     28 H6          3.2034    2.7159    1.7298 H         1 <0>         0.1550
     29 H7          2.1113    1.6245   -0.3921 H         1 <0>         0.4144
     30 H8          0.6467   -0.0792   -1.0350 H         1 <0>         0.4124
     31 H9         -1.9616    0.7123    1.1509 H         1 <0>         0.1526
     32 H10        -4.2417   -0.2083    1.0585 H         1 <0>         0.1405
     33 H11        -1.1211   -1.0045   -2.6744 H         1 <0>         0.1363
     34 H12        -5.3589   -2.6868   -0.4543 H         1 <0>         0.0791
     35 H13        -6.0318   -1.0423   -0.3495 H         1 <0>         0.0751
     36 H14        -5.6817   -1.7610   -1.9399 H         1 <0>         0.0755
@<TRIPOS>BOND
     1    1    2 1
     2    1   23 1
     3    1   24 1
     4    1   25 1
     5    2    7 ar
     6    2    3 ar
     7    3    4 ar
     8    3   26 1
     9    4    5 ar
    10    4   27 1
    11    5    6 ar
    12    5   11 1
    13    6    7 ar
    14    6   28 1
    15    7    8 1
    16    8    9 2
    17    8   10 1
    18   11   12 1
    19   11   29 1
    20   12   13 2
    21   12   14 1
    22   14   15 1
    23   14   30 1
    24   15   20 ar
    25   15   16 ar
    26   16   17 ar
    27   16   31 1
    28   17   18 ar
    29   17   32 1
    30   18   19 ar
    31   18   22 1
    32   19   20 ar
    33   19   21 1
    34   20   33 1
    35   22   34 1
    36   22   35 1
    37   22   36 1
@<TRIPOS>MOLECULE
ZINC43077222
   41    44     0     0     0
SMALL
USER_CHARGES

@<TRIPOS>ATOM
      1 C1         -0.0166    1.3750    0.0096 C.ar      1 <0>        -0.1060
      2 C2          1.1687    2.0883    0.0021 C.ar      1 <0>        -0.1154
      3 C3          2.3801    1.4204   -0.0135 C.ar      1 <0>        -0.0827
      4 C4          2.4083    0.0417   -0.0212 C.ar      1 <0>        -0.1123
      5 C5          1.2210   -0.6848   -0.0133 C.ar      1 <0>        -0.0393
      6 C6          0.0021   -0.0041    0.0020 C.ar      1 <0>        -0.0978
      7 C7          1.5297   -2.1362   -0.0247 C.ar      1 <0>        -0.0549
      8 C8          0.6935   -3.2543   -0.0227 C.ar      1 <0>        -0.0966
      9 C9          1.2378   -4.5215   -0.0354 C.ar      1 <0>        -0.1113
     10 C10         2.6107   -4.6904   -0.0503 C.ar      1 <0>        -0.1126
     11 C11         3.4454   -3.5871   -0.0524 C.ar      1 <0>        -0.0805
     12 C12         2.9100   -2.3164   -0.0397 C.ar      1 <0>        -0.1049
     13 C13         3.5470   -0.9484   -0.0383 C.3       1 <0>         0.2479
     14 N1          4.3792   -0.7807    1.1556 N.am      1 <0>        -0.7204
     15 C14         5.6721   -1.1607    1.1347 C.2       1 <0>         0.6990
     16 O1          6.1477   -1.6426    0.1252 O.2       1 <0>        -0.5208
     17 N2          6.4377   -1.0065    2.2331 N.am      1 <0>        -0.6811
     18 C15         7.7306   -1.3865    2.2122 C.2       1 <0>         0.5756
     19 O2          8.2061   -1.8683    1.2028 O.2       1 <0>        -0.4351
     20 C16         8.5687   -1.2176    3.4146 C.ar      1 <0>        -0.1653
     21 C17         8.6543   -2.2437    4.3622 C.ar      1 <0>         0.1509
     22 C18         9.4419   -2.0768    5.4859 C.ar      1 <0>        -0.1473
     23 C19        10.1435   -0.9000    5.6740 C.ar      1 <0>        -0.0536
     24 C20        10.0633    0.1190    4.7416 C.ar      1 <0>        -0.1187
     25 C21         9.2861   -0.0339    3.6107 C.ar      1 <0>         0.0212
     26 Cl1         9.1944    1.2435    2.4387 Cl        1 <0>        -0.0350
     27 F1          7.9690   -3.3936    4.1797 F         1 <0>        -0.1198
     28 H1         -0.9603    1.9001    0.0260 H         1 <0>         0.1299
     29 H2          1.1483    3.1681    0.0081 H         1 <0>         0.1306
     30 H3          3.3044    1.9791   -0.0200 H         1 <0>         0.1267
     31 H4         -0.9256   -0.5570    0.0076 H         1 <0>         0.1264
     32 H5         -0.3789   -3.1269   -0.0107 H         1 <0>         0.1248
     33 H6          0.5895   -5.3854   -0.0335 H         1 <0>         0.1288
     34 H7          3.0316   -5.6850   -0.0598 H         1 <0>         0.1290
     35 H8          4.5170   -3.7211   -0.0640 H         1 <0>         0.1284
     36 H9          4.1482   -0.8134   -0.9375 H         1 <0>         0.1190
     37 H10         3.9997   -0.3962    1.9613 H         1 <0>         0.4029
     38 H11         6.0582   -0.6219    3.0388 H         1 <0>         0.4120
     39 H12         9.5093   -2.8672    6.2188 H         1 <0>         0.1536
     40 H13        10.7572   -0.7756    6.5539 H         1 <0>         0.1529
     41 H14        10.6138    1.0351    4.8966 H         1 <0>         0.1518
@<TRIPOS>BOND
     1    1    6 ar
     2    1    2 ar
     3    1   28 1
     4    2    3 ar
     5    2   29 1
     6    3    4 ar
     7    3   30 1
     8    4   13 1
     9    4    5 ar
    10    5    6 ar
    11    5    7 1
    12    6   31 1
    13    7   12 ar
    14    7    8 ar
    15    8    9 ar
    16    8   32 1
    17    9   10 ar
    18    9   33 1
    19   10   11 ar
    20   10   34 1
    21   11   12 ar
    22   11   35 1
    23   12   13 1
    24   13   14 1
    25   13   36 1
    26   14   15 am
    27   14   37 1
    28   15   16 2
    29   15   17 am
    30   17   18 am
    31   17   38 1
    32   18   19 2
    33   18   20 1
    34   20   25 ar
    35   20   21 ar
    36   21   22 ar
    37   21   27 1
    38   22   23 ar
    39   22   39 1
    40   23   24 ar
    41   23   40 1
    42   24   25 ar
    43   24   41 1
    44   25   26 1
