@<TRIPOS>MOLECULE
ZINC28103203
   98    99     0     0     0
SMALL
USER_CHARGES
methyl (2S)-2-[[(2S)-2-[[benzyl-[(2R,3S)-3-(tert-butoxycarbonylamino)-2-hydroxy-4-phenyl-butyl]carbamoyl]amino]-4-methyl-pentanoyl]amino]-3-methyl-butanoate
@<TRIPOS>ATOM
      1 C1          1.2934   -4.7350    2.1617 C.3       1 <0>        -0.1487
      2 C2          1.0233   -4.2105    0.7500 C.3       1 <0>        -0.0876
      3 C3         -0.3819   -4.6273    0.3113 C.3       1 <0>        -0.1391
      4 C4          1.1276   -2.6841    0.7445 C.3       1 <0>        -0.1208
      5 C5          0.9812   -2.1681   -0.6885 C.3       1 <0>         0.1503
      6 H1          0.0609   -2.5506   -1.1541 H         1 <0>         0.1185
      7 C6          0.9608   -0.6613   -0.6802 C.2       1 <0>         0.5223
      8 O1          1.8071   -0.0400   -1.2874 O.2       1 <0>        -0.5311
      9 N1          0.0021   -0.0041    0.0020 N.am      1 <0>        -0.7267
     10 C7         -0.0178    1.4608    0.0101 C.3       1 <0>         0.1625
     11 H2          1.0264    1.8066    0.0158 H         1 <0>         0.1273
     12 C8         -0.7578    1.9676   -1.2295 C.3       1 <0>        -0.0979
     13 C9         -0.7785    3.4974   -1.2210 C.3       1 <0>        -0.1602
     14 C10        -0.0416    1.4742   -2.4883 C.3       1 <0>        -0.1375
     15 C11        -0.7232    1.9468    1.2500 C.2       1 <0>         0.4618
     16 O2         -1.1640    1.1512    2.0453 O.2       1 <0>        -0.5004
     17 O3         -0.8617    3.2635    1.4708 O.3       1 <0>        -0.3440
     18 C12        -1.5518    3.6592    2.6854 C.3       1 <0>         0.0265
     19 N2          2.1116   -2.6367   -1.4941 N.am      1 <0>        -0.7411
     20 C13         2.0714   -3.8562   -2.0665 C.2       1 <0>         0.7120
     21 O4          1.0971   -4.5674   -1.9143 O.2       1 <0>        -0.5786
     22 N3          3.1113   -4.2873   -2.8076 N.am      1 <0>        -0.6101
     23 C14         4.2853   -3.4304   -2.9910 C.3       1 <0>         0.1508
     24 C15         5.2812   -3.7011   -1.8929 C.ar      1 <0>        -0.1102
     25 C16         5.2288   -2.9748   -0.7178 C.ar      1 <0>        -0.1044
     26 C17         6.1391   -3.2268    0.2916 C.ar      1 <0>        -0.1175
     27 C18         7.1086   -4.1974    0.1216 C.ar      1 <0>        -0.1149
     28 C19         7.1645   -4.9197   -1.0557 C.ar      1 <0>        -0.1194
     29 C20         6.2507   -4.6717   -2.0628 C.ar      1 <0>        -0.1014
     30 C21         3.0676   -5.6129   -3.4298 C.3       1 <0>         0.1453
     31 C22         2.4500   -5.5013   -4.8252 C.3       1 <0>         0.1003
     32 H3          1.4885   -4.9679   -4.7943 H         1 <0>         0.0665
     33 C23         2.2896   -6.8995   -5.4253 C.3       1 <0>         0.1465
     34 H4          1.6766   -7.5348   -4.7691 H         1 <0>         0.0997
     35 C24         3.6699   -7.5227   -5.6424 C.3       1 <0>        -0.0894
     36 C25         3.5103   -8.9439   -6.1176 C.ar      1 <0>        -0.0618
     37 C26         3.4496   -9.9766   -5.2007 C.ar      1 <0>        -0.1075
     38 C27         3.2984  -11.2797   -5.6364 C.ar      1 <0>        -0.1111
     39 C28         3.2184  -11.5512   -6.9895 C.ar      1 <0>        -0.1244
     40 C29         3.2844  -10.5190   -7.9066 C.ar      1 <0>        -0.1102
     41 C30         3.4304   -9.2153   -7.4707 C.ar      1 <0>        -0.1098
     42 N4          1.5902   -6.8027   -6.7089 N.am      1 <0>        -0.7225
     43 C31         0.8969   -7.8581   -7.1799 C.2       1 <0>         0.6521
     44 O5          0.8520   -8.8900   -6.5398 O.2       1 <0>        -0.5482
     45 O6          0.2541   -7.7692   -8.3595 O.3       1 <0>        -0.3690
     46 C32        -0.4725   -8.9449   -8.8047 C.3       1 <0>         0.1422
     47 C33        -1.5482   -9.2994   -7.7761 C.3       1 <0>        -0.1852
     48 C34        -1.1328   -8.6557  -10.1542 C.3       1 <0>        -0.1441
     49 C35         0.4980  -10.1184   -8.9528 C.3       1 <0>        -0.1917
     50 O7          3.3033   -4.7185   -5.6626 O.3       1 <0>        -0.5853
     51 H5          2.3037   -4.4353    2.4771 H         1 <0>         0.0487
     52 H6          1.2184   -5.8324    2.1657 H         1 <0>         0.0534
     53 H7          0.5522   -4.3143    2.8572 H         1 <0>         0.0516
     54 H8          1.7644   -4.6312    0.0544 H         1 <0>         0.0818
     55 H9         -0.5761   -4.2502   -0.7036 H         1 <0>         0.0730
     56 H10        -1.1230   -4.2066    1.0068 H         1 <0>         0.0392
     57 H11        -0.4568   -5.7247    0.3153 H         1 <0>         0.0482
     58 H12         0.3288   -2.2598    1.3705 H         1 <0>         0.0752
     59 H13         2.1066   -2.3820    1.1448 H         1 <0>         0.0689
     60 H14        -0.7654   -0.5676    0.5527 H         1 <0>         0.4354
     61 H15        -1.7898    1.5869   -1.2218 H         1 <0>         0.0767
     62 H16        -1.3105    3.8618   -2.1122 H         1 <0>         0.0622
     63 H17         0.2535    3.8781   -1.2288 H         1 <0>         0.0615
     64 H18        -1.2934    3.8521   -0.3160 H         1 <0>         0.0779
     65 H19        -0.5736    1.8386   -3.3795 H         1 <0>         0.0545
     66 H20        -0.0266    0.3743   -2.4943 H         1 <0>         0.0537
     67 H21         0.9904    1.8550   -2.4961 H         1 <0>         0.0682
     68 H22        -1.5950    4.7569    2.7415 H         1 <0>         0.1073
     69 H23        -1.0096    3.2684    3.5591 H         1 <0>         0.0663
     70 H24        -2.5736    3.2520    2.6758 H         1 <0>         0.0668
     71 H25         2.9931   -1.9932   -1.6318 H         1 <0>         0.4218
     72 H26         4.7472   -3.6450   -3.9660 H         1 <0>         0.1048
     73 H27         3.9780   -2.3748   -2.9553 H         1 <0>         0.0814
     74 H28         4.4742   -2.2134   -0.5868 H         1 <0>         0.1164
     75 H29         6.0952   -2.6627    1.2115 H         1 <0>         0.1207
     76 H30         7.8221   -4.3917    0.9087 H         1 <0>         0.1211
     77 H31         7.9219   -5.6781   -1.1885 H         1 <0>         0.1221
     78 H32         6.2944   -5.2360   -2.9826 H         1 <0>         0.1215
     79 H33         4.0889   -6.0133   -3.5118 H         1 <0>         0.0883
     80 H34         2.4576   -6.2881   -2.8118 H         1 <0>         0.1029
     81 H35         4.2192   -6.9427   -6.3986 H         1 <0>         0.0830
     82 H36         4.2295   -7.5134   -4.6954 H         1 <0>         0.0823
     83 H37         3.5166   -9.7649   -4.1438 H         1 <0>         0.1135
     84 H38         3.2472  -12.0862   -4.9199 H         1 <0>         0.1151
     85 H39         3.1047  -12.5697   -7.3301 H         1 <0>         0.1141
     86 H40         3.2222  -10.7311   -8.9638 H         1 <0>         0.1124
     87 H41         3.4823   -8.4089   -8.1872 H         1 <0>         0.1072
     88 H42         1.6309   -5.8686   -7.2883 H         1 <0>         0.4159
     89 H43        -2.0986  -10.1901   -8.1134 H         1 <0>         0.0688
     90 H44        -2.2459   -8.4557   -7.6696 H         1 <0>         0.0572
     91 H45        -1.0734   -9.5073   -6.8059 H         1 <0>         0.0891
     92 H46        -1.6832   -9.5464  -10.4914 H         1 <0>         0.0802
     93 H47        -0.3594   -8.4008  -10.8937 H         1 <0>         0.0658
     94 H48        -1.8305   -7.8120  -10.0477 H         1 <0>         0.0655
     95 H49        -0.0524  -11.0091   -9.2901 H         1 <0>         0.0653
     96 H50         0.9727  -10.3263   -7.9825 H         1 <0>         0.1034
     97 H51         1.2714   -9.8635   -9.6923 H         1 <0>         0.0566
     98 H52         3.0227   -4.5280   -6.7090 H         1 <0>         0.4003
@<TRIPOS>BOND
     1    1    2 1
     2    1   51 1
     3    1   52 1
     4    1   53 1
     5    2    3 1
     6    2    4 1
     7    2   54 1
     8    3   55 1
     9    3   56 1
    10    3   57 1
    11    4    5 1
    12    4   58 1
    13    4   59 1
    14    5    6 1
    15    5    7 1
    16    5   19 1
    17    7    8 2
    18    7    9 am
    19    9   10 1
    20    9   60 1
    21   10   11 1
    22   10   12 1
    23   10   15 1
    24   12   13 1
    25   12   14 1
    26   12   61 1
    27   13   62 1
    28   13   63 1
    29   13   64 1
    30   14   65 1
    31   14   66 1
    32   14   67 1
    33   15   16 2
    34   15   17 1
    35   17   18 1
    36   18   68 1
    37   18   69 1
    38   18   70 1
    39   19   20 am
    40   19   71 1
    41   20   21 2
    42   20   22 am
    43   22   23 1
    44   22   30 1
    45   23   24 1
    46   23   72 1
    47   23   73 1
    48   24   29 ar
    49   24   25 ar
    50   25   26 ar
    51   25   74 1
    52   26   27 ar
    53   26   75 1
    54   27   28 ar
    55   27   76 1
    56   28   29 ar
    57   28   77 1
    58   29   78 1
    59   30   31 1
    60   30   79 1
    61   30   80 1
    62   31   32 1
    63   31   33 1
    64   31   50 1
    65   33   34 1
    66   33   35 1
    67   33   42 1
    68   35   36 1
    69   35   81 1
    70   35   82 1
    71   36   41 ar
    72   36   37 ar
    73   37   38 ar
    74   37   83 1
    75   38   39 ar
    76   38   84 1
    77   39   40 ar
    78   39   85 1
    79   40   41 ar
    80   40   86 1
    81   41   87 1
    82   42   43 am
    83   42   88 1
    84   43   44 2
    85   43   45 1
    86   45   46 1
    87   46   47 1
    88   46   48 1
    89   46   49 1
    90   47   89 1
    91   47   90 1
    92   47   91 1
    93   48   92 1
    94   48   93 1
    95   48   94 1
    96   49   95 1
    97   49   96 1
    98   49   97 1
    99   50   98 1
@<TRIPOS>MOLECULE
ZINC28563767
   44    46     0     0     0
SMALL
USER_CHARGES
4-(4-chlorophenyl)sulfonyl-4-(2,5-difluorophenyl)cyclohexan-1-amine
@<TRIPOS>ATOM
      1 C1          3.7268    4.6619   -1.0144 C.ar      1 <0>        -0.0117
      2 C2          4.7404    5.5172   -1.4036 C.ar      1 <0>        -0.1191
      3 C3          4.5712    6.8858   -1.2921 C.ar      1 <0>         0.0248
      4 C4          3.3874    7.3974   -0.7910 C.ar      1 <0>        -0.1250
      5 C5          2.3746    6.5410   -0.4021 C.ar      1 <0>        -0.0184
      6 C6          2.5442    5.1736   -0.5138 C.ar      1 <0>        -0.6657
      7 S1          1.2524    4.0826   -0.0184 S.o2      1 <0>         2.5084
      8 O1          0.0674    4.6585   -0.5506 O.2       1 <0>        -0.9147
      9 O2          1.6840    2.7954   -0.4379 O.2       1 <0>        -0.9105
     10 C7          1.2329    4.1753    1.7932 C.3       1 <0>        -0.4931
     11 C8          0.0799    3.3280    2.3349 C.3       1 <0>        -0.1212
     12 C9         -1.2452    3.8575    1.7829 C.3       1 <0>        -0.1834
     13 C10        -1.4336    5.3125    2.2171 C.3       1 <0>         0.0529
     14 C11        -0.2805    6.1597    1.6754 C.3       1 <0>        -0.1967
     15 C12         1.0446    5.6303    2.2274 C.3       1 <0>        -0.1322
     16 N1         -1.4493    5.3875    3.6841 N.4       1 <0>        -0.6934
     17 C13         2.5381    3.6538    2.3369 C.ar      1 <0>        -0.0786
     18 C14         3.4836    3.1272    1.4774 C.ar      1 <0>        -0.1681
     19 C15         4.6837    2.6508    1.9765 C.ar      1 <0>         0.1239
     20 C16         4.9337    2.6949    3.3378 C.ar      1 <0>        -0.1119
     21 C17         3.9867    3.2174    4.1975 C.ar      1 <0>        -0.1086
     22 C18         2.7876    3.6970    3.6978 C.ar      1 <0>         0.1049
     23 F1          1.8614    4.2075    4.5385 F         1 <0>        -0.1405
     24 F2          5.6094    2.1391    1.1360 F         1 <0>        -0.1187
     25 Cl1         5.8440    7.9607   -1.7802 Cl        1 <0>        -0.0347
     26 H1          3.8571    3.5936   -1.1055 H         1 <0>         0.1568
     27 H2          5.6644    5.1173   -1.7943 H         1 <0>         0.1535
     28 H3          3.2549    8.4656   -0.7034 H         1 <0>         0.1509
     29 H4          1.4506    6.9403   -0.0106 H         1 <0>         0.1450
     30 H5          0.2154    2.2820    2.0227 H         1 <0>         0.1143
     31 H6          0.0682    3.3842    3.4334 H         1 <0>         0.0953
     32 H7         -1.2334    3.8013    0.6844 H         1 <0>         0.1330
     33 H8         -2.0742    3.2484    2.1723 H         1 <0>         0.1139
     34 H9         -2.3988    5.7004    1.8596 H         1 <0>         0.1509
     35 H10        -0.2687    6.1034    0.5769 H         1 <0>         0.1493
     36 H11        -0.4159    7.2058    1.9875 H         1 <0>         0.1124
     37 H12         1.0329    5.6865    3.3259 H         1 <0>         0.0972
     38 H13         1.8736    6.2394    1.8379 H         1 <0>         0.1124
     39 H14        -1.5847    6.4335    3.9963 H         1 <0>         0.4580
     40 H15        -0.4966    5.0068    4.0809 H         1 <0>         0.4454
     41 H16         3.2871    3.0894    0.4161 H         1 <0>         0.1687
     42 H17         5.8687    2.3205    3.7275 H         1 <0>         0.1589
     43 H18         4.1815    3.2514    5.2592 H         1 <0>         0.1571
     44 H19        -2.2783    4.7783    4.0735 H         1 <0>         0.4582
@<TRIPOS>BOND
     1    1    6 ar
     2    1    2 ar
     3    1   26 1
     4    2    3 ar
     5    2   27 1
     6    3    4 ar
     7    3   25 1
     8    4    5 ar
     9    4   28 1
    10    5    6 ar
    11    5   29 1
    12    6    7 1
    13    7    8 2
    14    7    9 2
    15    7   10 1
    16   10   15 1
    17   10   11 1
    18   10   17 1
    19   11   12 1
    20   11   30 1
    21   11   31 1
    22   12   13 1
    23   12   32 1
    24   12   33 1
    25   13   14 1
    26   13   16 1
    27   13   34 1
    28   14   15 1
    29   14   35 1
    30   14   36 1
    31   15   37 1
    32   15   38 1
    33   16   39 1
    34   16   40 1
    35   16   44 1
    36   17   22 ar
    37   17   18 ar
    38   18   19 ar
    39   18   41 1
    40   19   20 ar
    41   19   24 1
    42   20   21 ar
    43   20   42 1
    44   21   22 ar
    45   21   43 1
    46   22   23 1
@<TRIPOS>MOLECULE
ZINC28564296
   49    51     0     0     0
SMALL
USER_CHARGES
N-[4-(4-chlorophenyl)sulfonyl-4-(2,5-difluorophenyl)cyclohexyl]-1,1,1-trifluoro-methanesulfonamide
@<TRIPOS>ATOM
      1 C1          3.7264    4.6612   -1.0148 C.ar      1 <0>        -0.0132
      2 C2          4.7398    5.5165   -1.4045 C.ar      1 <0>        -0.1237
      3 C3          4.5705    6.8852   -1.2933 C.ar      1 <0>         0.0205
      4 C4          3.3868    7.3968   -0.7922 C.ar      1 <0>        -0.1270
      5 C5          2.3741    6.5405   -0.4030 C.ar      1 <0>        -0.0129
      6 C6          2.5438    5.1730   -0.5142 C.ar      1 <0>        -0.6610
      7 S1          1.2521    4.0821   -0.0183 S.o2      1 <0>         2.5029
      8 O1          0.0670    4.6577   -0.5506 O.2       1 <0>        -0.9115
      9 O2          1.6838    2.7948   -0.4376 O.2       1 <0>        -0.9232
     10 C7          1.2329    4.1753    1.7932 C.3       1 <0>        -0.4811
     11 C8          0.0798    3.3283    2.3353 C.3       1 <0>        -0.1055
     12 C9         -1.2453    3.8578    1.7832 C.3       1 <0>        -0.1721
     13 C10        -1.4334    5.3129    2.2170 C.3       1 <0>         0.1494
     14 C11        -0.2803    6.1599    1.6750 C.3       1 <0>        -0.1790
     15 C12         1.0448    5.6304    2.2270 C.3       1 <0>        -0.1148
     16 N1         -2.7022    5.8199    1.6885 N.pl3     1 <0>        -1.0766
     17 S2         -4.0660    5.7779    2.6269 S.o2      1 <0>         2.5985
     18 O3         -5.0905    6.3154    1.8019 O.2       1 <0>        -0.8820
     19 O4         -4.1419    4.4389    3.0966 O.2       1 <0>        -0.8708
     20 C13        -3.7182    6.9047    4.0053 C.3       1 <0>        -0.0508
     21 F1         -3.4721    8.1887    3.5073 F         1 <0>        -0.1606
     22 F2         -4.8201    6.9419    4.8666 F         1 <0>        -0.1614
     23 F3         -2.5944    6.4526    4.7051 F         1 <0>        -0.1631
     24 C14         2.5381    3.6538    2.3369 C.ar      1 <0>        -0.0724
     25 C15         3.4836    3.1272    1.4774 C.ar      1 <0>        -0.1688
     26 C16         4.6837    2.6508    1.9765 C.ar      1 <0>         0.1115
     27 C17         4.9337    2.6949    3.3378 C.ar      1 <0>        -0.1178
     28 C18         3.9867    3.2174    4.1975 C.ar      1 <0>        -0.1166
     29 C19         2.7876    3.6970    3.6978 C.ar      1 <0>         0.1143
     30 F4          1.8614    4.2075    4.5385 F         1 <0>        -0.1234
     31 F5          5.6094    2.1391    1.1360 F         1 <0>        -0.1262
     32 Cl1         5.8432    7.9600   -1.7820 Cl        1 <0>        -0.0469
     33 H1          3.8568    3.5930   -1.1057 H         1 <0>         0.1552
     34 H2          5.6638    5.1166   -1.7952 H         1 <0>         0.1491
     35 H3          3.2542    8.4650   -0.7049 H         1 <0>         0.1485
     36 H4          1.4501    6.9397   -0.0114 H         1 <0>         0.1502
     37 H5          0.2151    2.2822    2.0234 H         1 <0>         0.0955
     38 H6          0.0681    3.3848    3.4338 H         1 <0>         0.1079
     39 H7         -1.2336    3.8012    0.6847 H         1 <0>         0.1027
     40 H8         -2.0744    3.2489    2.1729 H         1 <0>         0.1061
     41 H9         -1.4862    5.3866    3.3133 H         1 <0>         0.0953
     42 H10        -0.2687    6.1034    0.5765 H         1 <0>         0.1207
     43 H11        -0.4156    7.2060    1.9869 H         1 <0>         0.0964
     44 H12         1.0332    5.6869    3.3255 H         1 <0>         0.1099
     45 H13         1.8739    6.2393    1.8373 H         1 <0>         0.0925
     46 H14        -2.7198    6.3757    0.7394 H         1 <0>         0.4623
     47 H15         3.2871    3.0894    0.4161 H         1 <0>         0.1668
     48 H16         5.8687    2.3205    3.7275 H         1 <0>         0.1527
     49 H17         4.1815    3.2514    5.2592 H         1 <0>         0.1535
@<TRIPOS>BOND
     1    1    6 ar
     2    1    2 ar
     3    1   33 1
     4    2    3 ar
     5    2   34 1
     6    3    4 ar
     7    3   32 1
     8    4    5 ar
     9    4   35 1
    10    5    6 ar
    11    5   36 1
    12    6    7 1
    13    7    8 2
    14    7    9 2
    15    7   10 1
    16   10   15 1
    17   10   11 1
    18   10   24 1
    19   11   12 1
    20   11   37 1
    21   11   38 1
    22   12   13 1
    23   12   39 1
    24   12   40 1
    25   13   14 1
    26   13   16 1
    27   13   41 1
    28   14   15 1
    29   14   42 1
    30   14   43 1
    31   15   44 1
    32   15   45 1
    33   16   17 1
    34   16   46 1
    35   17   18 2
    36   17   19 2
    37   17   20 1
    38   20   21 1
    39   20   22 1
    40   20   23 1
    41   24   29 ar
    42   24   25 ar
    43   25   26 ar
    44   25   47 1
    45   26   27 ar
    46   26   31 1
    47   27   28 ar
    48   27   48 1
    49   28   29 ar
    50   28   49 1
    51   29   30 1
@<TRIPOS>MOLECULE
ZINC28564296
   48    50     0     0     0
SMALL
USER_CHARGES
N-[4-(4-chlorophenyl)sulfonyl-4-(2,5-difluorophenyl)cyclohexyl]-1,1,1-trifluoro-methanesulfonamide
@<TRIPOS>ATOM
      1 C1          3.7264    4.6612   -1.0148 C.ar      1 <0>        -0.0166
      2 C2          4.7398    5.5165   -1.4045 C.ar      1 <0>        -0.1293
      3 C3          4.5705    6.8852   -1.2933 C.ar      1 <0>         0.0163
      4 C4          3.3868    7.3968   -0.7922 C.ar      1 <0>        -0.1282
      5 C5          2.3741    6.5405   -0.4030 C.ar      1 <0>        -0.0063
      6 C6          2.5438    5.1730   -0.5142 C.ar      1 <0>        -0.6566
      7 S1          1.2521    4.0821   -0.0183 S.o2      1 <0>         2.4953
      8 O1          0.0670    4.6577   -0.5506 O.2       1 <0>        -0.8890
      9 O2          1.6838    2.7948   -0.4376 O.2       1 <0>        -0.9367
     10 C7          1.2329    4.1753    1.7932 C.3       1 <0>        -0.4731
     11 C8          0.0798    3.3283    2.3353 C.3       1 <0>        -0.1033
     12 C9         -1.2453    3.8578    1.7832 C.3       1 <0>        -0.1611
     13 C10        -1.4334    5.3129    2.2170 C.3       1 <0>         0.1451
     14 C11        -0.2803    6.1599    1.6750 C.3       1 <0>        -0.1473
     15 C12         1.0448    5.6304    2.2270 C.3       1 <0>        -0.1155
     16 N1         -2.7022    5.8199    1.6885 N.2       1 <0>        -0.9846
     17 S2         -4.0660    5.7779    2.6269 S.o2      1 <0>         2.4253
     18 O3         -5.0905    6.3154    1.8019 O.2       1 <0>        -0.9513
     19 O4         -4.1419    4.4389    3.0966 O.2       1 <0>        -0.9959
     20 C13        -3.7182    6.9047    4.0053 C.3       1 <0>        -0.0746
     21 F1         -3.4721    8.1887    3.5073 F         1 <0>        -0.1801
     22 F2         -4.8201    6.9419    4.8666 F         1 <0>        -0.2039
     23 F3         -2.5944    6.4526    4.7051 F         1 <0>        -0.1858
     24 C14         2.5381    3.6538    2.3369 C.ar      1 <0>        -0.0635
     25 C15         3.4836    3.1272    1.4774 C.ar      1 <0>        -0.1694
     26 C16         4.6837    2.6508    1.9765 C.ar      1 <0>         0.1048
     27 C17         4.9337    2.6949    3.3378 C.ar      1 <0>        -0.1250
     28 C18         3.9867    3.2174    4.1975 C.ar      1 <0>        -0.1215
     29 C19         2.7876    3.6970    3.6978 C.ar      1 <0>         0.1164
     30 F4          1.8614    4.2075    4.5385 F         1 <0>        -0.1194
     31 F5          5.6094    2.1391    1.1360 F         1 <0>        -0.1313
     32 Cl1         5.8432    7.9600   -1.7820 Cl        1 <0>        -0.0590
     33 H1          3.8568    3.5930   -1.1057 H         1 <0>         0.1529
     34 H2          5.6638    5.1166   -1.7952 H         1 <0>         0.1444
     35 H3          3.2542    8.4650   -0.7049 H         1 <0>         0.1469
     36 H4          1.4501    6.9397   -0.0114 H         1 <0>         0.1580
     37 H5          0.2151    2.2822    2.0234 H         1 <0>         0.0767
     38 H6          0.0681    3.3848    3.4338 H         1 <0>         0.0985
     39 H7         -1.2336    3.8012    0.6847 H         1 <0>         0.0878
     40 H8         -2.0744    3.2489    2.1729 H         1 <0>         0.0897
     41 H9         -1.4862    5.3866    3.3133 H         1 <0>         0.0462
     42 H10        -0.2687    6.1034    0.5765 H         1 <0>         0.1072
     43 H11        -0.4156    7.2060    1.9869 H         1 <0>         0.0781
     44 H12         1.0332    5.6869    3.3255 H         1 <0>         0.0996
     45 H13         1.8739    6.2393    1.8373 H         1 <0>         0.0741
     46 H14         3.2871    3.0894    0.4161 H         1 <0>         0.1672
     47 H15         5.8687    2.3205    3.7275 H         1 <0>         0.1478
     48 H16         4.1815    3.2514    5.2592 H         1 <0>         0.1499
@<TRIPOS>BOND
     1    1    6 ar
     2    1    2 ar
     3    1   33 1
     4    2    3 ar
     5    2   34 1
     6    3    4 ar
     7    3   32 1
     8    4    5 ar
     9    4   35 1
    10    5    6 ar
    11    5   36 1
    12    6    7 1
    13    7    8 2
    14    7    9 2
    15    7   10 1
    16   10   15 1
    17   10   11 1
    18   10   24 1
    19   11   12 1
    20   11   37 1
    21   11   38 1
    22   12   13 1
    23   12   39 1
    24   12   40 1
    25   13   14 1
    26   13   16 1
    27   13   41 1
    28   14   15 1
    29   14   42 1
    30   14   43 1
    31   15   44 1
    32   15   45 1
    33   16   17 1
    34   17   18 2
    35   17   19 2
    36   17   20 1
    37   20   21 1
    38   20   22 1
    39   20   23 1
    40   24   29 ar
    41   24   25 ar
    42   25   26 ar
    43   25   46 1
    44   26   27 ar
    45   26   31 1
    46   27   28 ar
    47   27   47 1
    48   28   29 ar
    49   28   48 1
    50   29   30 1
@<TRIPOS>MOLECULE
ZINC28824948
   58    61     0     0     0
SMALL
USER_CHARGES
(2S)-2-[[(2S)-2-(3,5-difluorophenyl)-2-hydroxy-acetyl]amino]-N-[(7S)-5-methyl-6-oxo-7H-benzo[d][1]benzazepin-7-yl]propanamide
@<TRIPOS>ATOM
      1 C1         -2.8163    0.7401    1.4565 C.3       1 <0>        -0.1587
      2 C2         -2.4492    1.1169    0.0197 C.3       1 <0>         0.1342
      3 H1         -2.3013    0.2193   -0.5987 H         1 <0>         0.1172
      4 C3         -3.5426    1.9694   -0.5709 C.2       1 <0>         0.5154
      5 O1         -3.2948    3.0926   -0.9556 O.2       1 <0>        -0.5228
      6 N1         -4.7957    1.4837   -0.6717 N.am      1 <0>        -0.7260
      7 C4         -5.8586    2.3124   -1.2459 C.3       1 <0>         0.1820
      8 H2         -5.4139    2.9231   -2.0455 H         1 <0>         0.1341
      9 C5         -6.9447    1.4275   -1.7983 C.ar      1 <0>        -0.0968
     10 C6         -7.2886    1.5503   -3.1339 C.ar      1 <0>        -0.0912
     11 C7         -8.2870    0.7604   -3.6715 C.ar      1 <0>        -0.1120
     12 C8         -8.9477   -0.1572   -2.8741 C.ar      1 <0>        -0.1032
     13 C9         -8.6093   -0.2879   -1.5452 C.ar      1 <0>        -0.1064
     14 C10        -7.5957    0.5083   -0.9952 C.ar      1 <0>        -0.0283
     15 C11        -7.2675    0.3190    0.4375 C.ar      1 <0>        -0.0827
     16 C12        -7.2683   -1.0009    0.9125 C.ar      1 <0>        -0.0851
     17 C13        -6.9675   -1.2732    2.2275 C.ar      1 <0>        -0.1277
     18 C14        -6.6603   -0.2382    3.0938 C.ar      1 <0>        -0.0852
     19 C15        -6.6589    1.0623    2.6406 C.ar      1 <0>        -0.1427
     20 C16        -6.9650    1.3558    1.3080 C.ar      1 <0>         0.1746
     21 N2         -6.9449    2.6950    0.9464 N.am      1 <0>        -0.5458
     22 C17        -6.4415    3.1936   -0.1778 C.2       1 <0>         0.5182
     23 O2         -6.4525    4.3947   -0.3462 O.2       1 <0>        -0.5113
     24 C18        -7.5335    3.6476    1.8910 C.3       1 <0>         0.0543
     25 N3         -1.1906    1.8666    0.0178 N.am      1 <0>        -0.7237
     26 C19        -0.0144    1.2086    0.0087 C.2       1 <0>         0.5306
     27 O3          0.0021   -0.0041    0.0020 O.2       1 <0>        -0.5128
     28 C20         1.2803    1.9798    0.0005 C.3       1 <0>         0.1481
     29 H3          1.3437    2.6484    0.8717 H         1 <0>         0.0971
     30 C21         1.3924    2.7596   -1.2842 C.ar      1 <0>        -0.0735
     31 C22         1.8072    2.1281   -2.4414 C.ar      1 <0>        -0.1374
     32 C23         1.9059    2.8426   -3.6235 C.ar      1 <0>         0.1340
     33 C24         1.5994    4.1923   -3.6434 C.ar      1 <0>        -0.1844
     34 C25         1.1891    4.8249   -2.4826 C.ar      1 <0>         0.1375
     35 C26         1.0857    4.1071   -1.3030 C.ar      1 <0>        -0.1515
     36 F1          0.8901    6.1423   -2.5005 F         1 <0>        -0.1255
     37 F2          2.3061    2.2237   -4.7558 F         1 <0>        -0.1265
     38 O4          2.3774    1.0699    0.1025 O.3       1 <0>        -0.5631
     39 H4         -2.0182    0.1178    1.8877 H         1 <0>         0.0789
     40 H5         -3.7614    0.1772    1.4579 H         1 <0>         0.0715
     41 H6         -2.9332    1.6544    2.0569 H         1 <0>         0.0658
     42 H7         -5.0204    0.4650   -0.3228 H         1 <0>         0.4277
     43 H8         -6.7746    2.2666   -3.7577 H         1 <0>         0.1316
     44 H9         -8.5511    0.8590   -4.7140 H         1 <0>         0.1314
     45 H10        -9.7302   -0.7717   -3.2942 H         1 <0>         0.1308
     46 H11        -9.1267   -1.0055   -0.9256 H         1 <0>         0.1314
     47 H12        -7.5077   -1.8112    0.2398 H         1 <0>         0.1338
     48 H13        -6.9708   -2.2930    2.5830 H         1 <0>         0.1323
     49 H14        -6.4217   -0.4506    4.1254 H         1 <0>         0.1321
     50 H15        -6.4183    1.8647    3.3222 H         1 <0>         0.1310
     51 H16        -7.4517    4.6661    1.4835 H         1 <0>         0.1020
     52 H17        -6.9972    3.5921    2.8498 H         1 <0>         0.0709
     53 H18        -8.5935    3.3998    2.0489 H         1 <0>         0.0710
     54 H19        -1.2056    2.9665    0.0238 H         1 <0>         0.4322
     55 H20         2.0509    1.0761   -2.4246 H         1 <0>         0.1507
     56 H21         1.6808    4.7514   -4.5638 H         1 <0>         0.1518
     57 H22         0.7655    4.6006   -0.3972 H         1 <0>         0.1470
     58 H23         3.4091    1.4512    0.1122 H         1 <0>         0.4226
@<TRIPOS>BOND
     1    1    2 1
     2    1   39 1
     3    1   40 1
     4    1   41 1
     5    2    3 1
     6    2    4 1
     7    2   25 1
     8    4    5 2
     9    4    6 am
    10    6    7 1
    11    6   42 1
    12    7    8 1
    13    7   22 1
    14    7    9 1
    15    9   14 ar
    16    9   10 ar
    17   10   11 ar
    18   10   43 1
    19   11   12 ar
    20   11   44 1
    21   12   13 ar
    22   12   45 1
    23   13   14 ar
    24   13   46 1
    25   14   15 1
    26   15   20 ar
    27   15   16 ar
    28   16   17 ar
    29   16   47 1
    30   17   18 ar
    31   17   48 1
    32   18   19 ar
    33   18   49 1
    34   19   20 ar
    35   19   50 1
    36   20   21 1
    37   21   22 am
    38   21   24 1
    39   22   23 2
    40   24   51 1
    41   24   52 1
    42   24   53 1
    43   25   26 am
    44   25   54 1
    45   26   27 2
    46   26   28 1
    47   28   29 1
    48   28   30 1
    49   28   38 1
    50   30   35 ar
    51   30   31 ar
    52   31   32 ar
    53   31   55 1
    54   32   33 ar
    55   32   37 1
    56   33   34 ar
    57   33   56 1
    58   34   35 ar
    59   34   36 1
    60   35   57 1
    61   38   58 1
