@<TRIPOS>MOLECULE
ZINC03809579
   60    65     0     0     0
SMALL
USER_CHARGES
6-(4-fluorophenyl)-N,N-dimethyl-3-[[2-(3-pyridyl)-3-thia-1-azabicyclo[3.3.0]octa-5,7-dien-6-yl]carbonyl]indole-1-carboxamide
@<TRIPOS>ATOM
      1 C1         -4.7143    4.9251   -0.5875 C.3       1 <0>         0.0931
      2 N1         -3.2591    4.8154   -0.7162 N.am      1 <0>        -0.6113
      3 C2         -2.6766    4.0815   -1.8424 C.3       1 <0>         0.0611
      4 C3         -2.4563    5.3898    0.2014 C.2       1 <0>         0.7091
      5 O1         -2.9341    6.0811    1.0792 O.2       1 <0>        -0.5186
      6 N2         -1.1235    5.1974    0.1455 N.am      1 <0>        -0.4717
      7 C4         -0.5121    3.9806    0.1203 C.2       1 <0>         0.0951
      8 C5          0.8391    4.1458    0.0668 C.2       1 <0>        -0.1959
      9 C6          1.0869    5.6001    0.0474 C.ar      1 <0>        -0.0625
     10 C7         -0.1778    6.2087    0.0985 C.ar      1 <0>         0.1162
     11 C8         -0.2693    7.5928    0.0942 C.ar      1 <0>        -0.1015
     12 C9          0.8895    8.3598    0.0394 C.ar      1 <0>        -0.0202
     13 C10         2.1421    7.7428   -0.0111 C.ar      1 <0>        -0.1179
     14 C11         2.2399    6.3803   -0.0068 C.ar      1 <0>        -0.0655
     15 C12         0.7952    9.8401    0.0342 C.ar      1 <0>        -0.0537
     16 C13        -0.4518   10.4612    0.0782 C.ar      1 <0>        -0.0804
     17 C14        -0.5345   11.8384    0.0779 C.ar      1 <0>        -0.1496
     18 C15         0.6191   12.6038    0.0234 C.ar      1 <0>         0.1004
     19 C16         1.8606   11.9906   -0.0258 C.ar      1 <0>        -0.1501
     20 C17         1.9531   10.6141   -0.0206 C.ar      1 <0>        -0.0785
     21 F1          0.5332   13.9521    0.0177 F         1 <0>        -0.1380
     22 C18         1.8531    3.0817    0.0292 C.2       1 <0>         0.5046
     23 O2          2.0440    2.4588   -0.9992 O.2       1 <0>        -0.4553
     24 C19         2.6380    2.7693    1.2361 C.2       1 <0>        -0.2269
     25 C20         2.6064    3.4816    2.5115 C.2       1 <0>        -0.1235
     26 C21         3.4728    2.8527    3.3128 C.2       1 <0>         0.0018
     27 N3          4.0469    1.7921    2.6284 N.pl3     1 <0>        -0.4526
     28 C22         3.5528    1.7412    1.3894 C.2       1 <0>         0.0870
     29 C23         4.0711    0.6325    0.4682 C.3       1 <0>        -0.0080
     30 S1          5.5650    0.0856    1.3952 S.3       1 <0>        -0.2212
     31 C24         5.0565    0.7679    3.0265 C.3       1 <0>         0.2238
     32 H1          5.9012    1.2309    3.5366 H         1 <0>         0.1427
     33 C25         4.4308   -0.3001    3.8862 C.ar      1 <0>        -0.1638
     34 C26         4.8921   -0.5239    5.1746 C.ar      1 <0>        -0.0458
     35 C27         4.2865   -1.5169    5.9290 C.ar      1 <0>        -0.1703
     36 C28         3.2504   -2.2456    5.3758 C.ar      1 <0>         0.1159
     37 N4          2.8377   -2.0052    4.1468 N.ar      1 <0>        -0.4791
     38 C29         3.3865   -1.0648    3.4025 C.ar      1 <0>         0.1395
     39 H2         -5.0592    5.8169   -1.1108 H         1 <0>         0.0646
     40 H3         -5.1850    4.0436   -1.0229 H         1 <0>         0.0803
     41 H4         -4.9815    4.9963    0.4668 H         1 <0>         0.0819
     42 H5         -1.5934    4.0402   -1.7278 H         1 <0>         0.0848
     43 H6         -3.0786    3.0686   -1.8629 H         1 <0>         0.0753
     44 H7         -2.9243    4.5897   -2.7744 H         1 <0>         0.0722
     45 H8         -1.0214    3.0285    0.1425 H         1 <0>         0.1814
     46 H9         -1.2361    8.0727    0.1329 H         1 <0>         0.1294
     47 H10         3.0371    8.3459   -0.0531 H         1 <0>         0.1335
     48 H11         3.2105    5.9082   -0.0462 H         1 <0>         0.1315
     49 H12        -1.3517    9.8653    0.1166 H         1 <0>         0.1348
     50 H13        -1.5002   12.3206    0.1158 H         1 <0>         0.1383
     51 H14         2.7573   12.5911   -0.0686 H         1 <0>         0.1393
     52 H15         2.9212   10.1369   -0.0593 H         1 <0>         0.1388
     53 H16         2.0010    4.3410    2.7590 H         1 <0>         0.1567
     54 H17         3.6909    3.1276    4.3342 H         1 <0>         0.1698
     55 H18         4.3390    1.0282   -0.5114 H         1 <0>         0.1402
     56 H19         3.3456   -0.1760    0.3789 H         1 <0>         0.1214
     57 H20         5.7041    0.0611    5.5806 H         1 <0>         0.1407
     58 H21         4.6198   -1.7183    6.9364 H         1 <0>         0.1440
     59 H22         2.7736   -3.0211    5.9568 H         1 <0>         0.1631
     60 H23         3.0182   -0.8934    2.4018 H         1 <0>         0.1494
@<TRIPOS>BOND
     1    1    2 1
     2    1   39 1
     3    1   40 1
     4    1   41 1
     5    2    3 1
     6    2    4 am
     7    3   42 1
     8    3   43 1
     9    3   44 1
    10    4    5 2
    11    4    6 am
    12    6   10 1
    13    6    7 1
    14    7    8 2
    15    7   45 1
    16    8    9 1
    17    8   22 1
    18    9   14 ar
    19    9   10 ar
    20   10   11 ar
    21   11   12 ar
    22   11   46 1
    23   12   13 ar
    24   12   15 1
    25   13   14 ar
    26   13   47 1
    27   14   48 1
    28   15   20 ar
    29   15   16 ar
    30   16   17 ar
    31   16   49 1
    32   17   18 ar
    33   17   50 1
    34   18   19 ar
    35   18   21 1
    36   19   20 ar
    37   19   51 1
    38   20   52 1
    39   22   23 2
    40   22   24 1
    41   24   28 2
    42   24   25 1
    43   25   26 2
    44   25   53 1
    45   26   27 1
    46   26   54 1
    47   27   31 1
    48   27   28 1
    49   28   29 1
    50   29   30 1
    51   29   55 1
    52   29   56 1
    53   30   31 1
    54   31   32 1
    55   31   33 1
    56   33   38 ar
    57   33   34 ar
    58   34   35 ar
    59   34   57 1
    60   35   36 ar
    61   35   58 1
    62   36   37 ar
    63   36   59 1
    64   37   38 ar
    65   38   60 1
