@<TRIPOS>MOLECULE
ZINC02049688
   58    61     0     0     0
SMALL
USER_CHARGES
2-[4-[[2-(4-chlorophenyl)-3-isopropoxycarbonyl-4-methyl-9-oxo-7-thia-1,5-diazabicyclo[4.3.0]nona-3,5-dien-8-ylidene]methyl]phenoxy]acetic acid
@<TRIPOS>ATOM
      1 C1          1.3165    3.9810    0.2648 C.3       1 <0>        -0.1009
      2 C2          1.1796    2.4973    0.0391 C.2       1 <0>         0.2584
      3 C3         -0.0100    1.9854   -0.3981 C.2       1 <0>        -0.2961
      4 C4         -0.1061    0.4924   -0.6121 C.3       1 <0>         0.2451
      5 H1         -0.9118    0.1146    0.0174 H         1 <0>         0.0979
      6 N1          1.1134   -0.3152   -0.3280 N.am      1 <0>        -0.5786
      7 C5          1.2247   -1.6436   -0.4569 C.2       1 <0>         0.5563
      8 O1          0.2845   -2.3178   -0.8352 O.2       1 <0>        -0.4659
      9 C6          2.5157   -2.2630   -0.1267 C.2       1 <0>        -0.2683
     10 C7          2.8827   -3.5699   -0.1713 C.2       1 <0>         0.1231
     11 C8          4.2859   -3.9460    0.0401 C.ar      1 <0>        -0.1709
     12 C9          5.3074   -3.0229   -0.2172 C.ar      1 <0>        -0.0413
     13 C10         6.6211   -3.3790   -0.0117 C.ar      1 <0>        -0.2176
     14 C11         6.9355   -4.6561    0.4388 C.ar      1 <0>         0.1804
     15 C12         5.9259   -5.5782    0.6907 C.ar      1 <0>        -0.1642
     16 C13         4.6085   -5.2310    0.4942 C.ar      1 <0>        -0.0300
     17 O2          8.2332   -5.0040    0.6339 O.3       1 <0>        -0.2764
     18 C14         9.2204   -4.0089    0.3559 C.3       1 <0>         0.0122
     19 C15        10.5916   -4.5719    0.6282 C.2       1 <0>         0.4689
     20 O3         10.7111   -5.7086    1.0200 O.co2     1 <0>        -0.6122
     21 S1          3.4711   -0.8314    0.3501 S.3       1 <0>         0.1384
     22 C16         2.2066    0.4000    0.1039 C.2       1 <0>         0.3989
     23 N2          2.2150    1.6991    0.2661 N.2       1 <0>        -0.5230
     24 C17        -0.4955    0.2541   -2.0483 C.ar      1 <0>        -0.0925
     25 C18         0.4605    0.3260   -3.0444 C.ar      1 <0>        -0.0904
     26 C19         0.1050    0.1020   -4.3611 C.ar      1 <0>        -0.1109
     27 C20        -1.2099   -0.1829   -4.6835 C.ar      1 <0>        -0.0260
     28 C21        -2.1672   -0.2491   -3.6869 C.ar      1 <0>        -0.1110
     29 C22        -1.8095   -0.0305   -2.3698 C.ar      1 <0>        -0.0521
     30 Cl1        -1.6585   -0.4568   -6.3380 Cl        1 <0>        -0.0714
     31 C23        -1.1094    2.8232   -0.6468 C.2       1 <0>         0.5314
     32 O4         -1.0221    4.0203   -0.4391 O.2       1 <0>        -0.5121
     33 O5         -2.2635    2.3016   -1.1163 O.3       1 <0>        -0.3433
     34 C24        -3.3406    3.2120   -1.3466 C.3       1 <0>         0.0814
     35 C25        -4.2136    2.6905   -2.4898 C.3       1 <0>        -0.1487
     36 C26        -4.1843    3.3357   -0.0763 C.3       1 <0>        -0.1703
     37 H2          0.5851    4.3049    1.0052 H         1 <0>         0.0976
     38 H3          2.3210    4.2025    0.6254 H         1 <0>         0.0766
     39 H4          1.1424    4.5088   -0.6729 H         1 <0>         0.0951
     40 H5          2.1421   -4.3325   -0.3623 H         1 <0>         0.1615
     41 H6          5.0645   -2.0320   -0.5718 H         1 <0>         0.1318
     42 H7          7.4093   -2.6666   -0.2055 H         1 <0>         0.1408
     43 H8          6.1759   -6.5688    1.0409 H         1 <0>         0.1415
     44 H9          3.8250   -5.9481    0.6902 H         1 <0>         0.1381
     45 H10         9.1512   -3.7107   -0.6902 H         1 <0>         0.0724
     46 H11         9.0509   -3.1410    0.9931 H         1 <0>         0.0730
     47 H12         1.4860    0.5528   -2.7931 H         1 <0>         0.1176
     48 H13         0.8527    0.1538   -5.1387 H         1 <0>         0.1333
     49 H14        -3.1939   -0.4712   -3.9380 H         1 <0>         0.1342
     50 H15        -2.5566   -0.0825   -1.5917 H         1 <0>         0.1348
     51 H16        -2.9392    4.1898   -1.6129 H         1 <0>         0.0824
     52 H17        -4.6149    1.7127   -2.2236 H         1 <0>         0.0660
     53 H18        -5.0351    3.3850   -2.6655 H         1 <0>         0.0752
     54 H19        -3.6125    2.6024   -3.3949 H         1 <0>         0.0638
     55 H20        -4.5857    2.3579    0.1900 H         1 <0>         0.0639
     56 H21        -3.5624    3.7072    0.7382 H         1 <0>         0.0607
     57 H22        -5.0059    4.0302   -0.2520 H         1 <0>         0.0716
     58 O6         11.6801   -3.8105    0.4354 O.co2     1 <0>        -0.7503
@<TRIPOS>BOND
     1    1    2 1
     2    1   37 1
     3    1   38 1
     4    1   39 1
     5    2   23 1
     6    2    3 2
     7    3    4 1
     8    3   31 1
     9    4    5 1
    10    4    6 1
    11    4   24 1
    12    6   22 1
    13    6    7 am
    14    7    8 2
    15    7    9 1
    16    9   10 2
    17    9   21 1
    18   10   11 1
    19   10   40 1
    20   11   16 ar
    21   11   12 ar
    22   12   13 ar
    23   12   41 1
    24   13   14 ar
    25   13   42 1
    26   14   15 ar
    27   14   17 1
    28   15   16 ar
    29   15   43 1
    30   16   44 1
    31   17   18 1
    32   18   19 1
    33   18   45 1
    34   18   46 1
    35   19   20 2
    36   19   58 1
    37   21   22 1
    38   22   23 2
    39   24   29 ar
    40   24   25 ar
    41   25   26 ar
    42   25   47 1
    43   26   27 ar
    44   26   48 1
    45   27   28 ar
    46   27   30 1
    47   28   29 ar
    48   28   49 1
    49   29   50 1
    50   31   32 2
    51   31   33 1
    52   33   34 1
    53   34   35 1
    54   34   36 1
    55   34   51 1
    56   35   52 1
    57   35   53 1
    58   35   54 1
    59   36   55 1
    60   36   56 1
    61   36   57 1
@<TRIPOS>MOLECULE
ZINC02049690
   58    61     0     0     0
SMALL
USER_CHARGES
2-[4-[[2-(4-chlorophenyl)-3-isopropoxycarbonyl-4-methyl-9-oxo-7-thia-1,5-diazabicyclo[4.3.0]nona-3,5-dien-8-ylidene]methyl]phenoxy]acetic acid
@<TRIPOS>ATOM
      1 C1          7.5373   -4.7777    5.7789 C.3       1 <0>        -0.1006
      2 C2          6.4203   -3.9096    6.2984 C.2       1 <0>         0.2584
      3 C3          6.2053   -3.8157    7.6449 C.2       1 <0>        -0.2965
      4 C4          5.0750   -2.9348    8.1250 C.3       1 <0>         0.2451
      5 H1          5.4960   -2.1817    8.7912 H         1 <0>         0.0984
      6 N1          4.2734   -2.2301    7.0854 N.am      1 <0>        -0.5788
      7 C5          3.2375   -1.4118    7.3115 C.2       1 <0>         0.5564
      8 O1          2.8612   -1.1752    8.4446 O.2       1 <0>        -0.4656
      9 C6          2.5693   -0.8077    6.1505 C.2       1 <0>        -0.2698
     10 C7          1.5118    0.0436    6.1094 C.2       1 <0>         0.1221
     11 C8          0.9009    0.3937    4.8213 C.ar      1 <0>        -0.1699
     12 C9          1.1460   -0.3945    3.6897 C.ar      1 <0>        -0.0422
     13 C10         0.5708   -0.0613    2.4843 C.ar      1 <0>        -0.1582
     14 C11        -0.2519    1.0553    2.3888 C.ar      1 <0>         0.1822
     15 C12        -0.4945    1.8443    3.5075 C.ar      1 <0>        -0.2229
     16 C13         0.0711    1.5174    4.7192 C.ar      1 <0>        -0.0232
     17 O2         -0.8162    1.3796    1.1974 O.3       1 <0>        -0.2757
     18 C14        -1.6509    2.5391    1.1690 C.3       1 <0>         0.0126
     19 C15        -2.1842    2.7402   -0.2260 C.2       1 <0>         0.4686
     20 O3         -1.8806    1.9696   -1.1057 O.co2     1 <0>        -0.6112
     21 S1          3.5198   -1.5026    4.8076 S.3       1 <0>         0.1392
     22 C16         4.6586   -2.4635    5.7853 C.2       1 <0>         0.3939
     23 N2          5.6535   -3.2433    5.4445 N.2       1 <0>        -0.5233
     24 C17         4.1344   -3.7891    8.9353 C.ar      1 <0>        -0.0935
     25 C18         3.1104   -4.4747    8.3088 C.ar      1 <0>        -0.0908
     26 C19         2.2510   -5.2629    9.0507 C.ar      1 <0>        -0.1104
     27 C20         2.4087   -5.3567   10.4220 C.ar      1 <0>        -0.0268
     28 C21         3.4303   -4.6658   11.0491 C.ar      1 <0>        -0.1118
     29 C22         4.2926   -3.8824   10.3055 C.ar      1 <0>        -0.0557
     30 Cl1         1.3257   -6.3413   11.3554 Cl        1 <0>        -0.0715
     31 C23         7.0117   -4.5172    8.5560 C.2       1 <0>         0.5312
     32 O4          7.9183   -5.2221    8.1497 O.2       1 <0>        -0.5118
     33 O5          6.7819   -4.4103    9.8828 O.3       1 <0>        -0.3439
     34 C24         7.6407   -5.1515   10.7517 C.3       1 <0>         0.0805
     35 C25         8.8500   -4.2929   11.1277 C.3       1 <0>        -0.1704
     36 C26         6.8748   -5.5365   12.0191 C.3       1 <0>        -0.1500
     37 H2          7.5577   -4.7307    4.6901 H         1 <0>         0.0764
     38 H3          8.4882   -4.4223    6.1758 H         1 <0>         0.0963
     39 H4          7.3739   -5.8079    6.0951 H         1 <0>         0.0959
     40 H5          1.1203    0.4629    7.0245 H         1 <0>         0.1615
     41 H6          1.7847   -1.2623    3.7629 H         1 <0>         0.1323
     42 H7          0.7589   -0.6685    1.6112 H         1 <0>         0.1430
     43 H8         -1.1309    2.7131    3.4266 H         1 <0>         0.1411
     44 H9         -0.1213    2.1287    5.5885 H         1 <0>         0.1354
     45 H10        -1.0697    3.4124    1.4652 H         1 <0>         0.0727
     46 H11        -2.4829    2.4048    1.8602 H         1 <0>         0.0726
     47 H12         2.9847   -4.3979    7.2389 H         1 <0>         0.1170
     48 H13         1.4537   -5.8020    8.5607 H         1 <0>         0.1332
     49 H14         3.5541   -4.7389   12.1195 H         1 <0>         0.1342
     50 H15         5.0902   -3.3433   10.7948 H         1 <0>         0.1396
     51 H16         7.9800   -6.0543   10.2439 H         1 <0>         0.0829
     52 H17         8.5107   -3.3900   11.6356 H         1 <0>         0.0640
     53 H18         9.5051   -4.8582   11.7905 H         1 <0>         0.0717
     54 H19         9.3956   -4.0186   10.2248 H         1 <0>         0.0608
     55 H20         6.0133   -6.1482   11.7512 H         1 <0>         0.0645
     56 H21         7.5299   -6.1019   12.6819 H         1 <0>         0.0756
     57 H22         6.5356   -4.6337   12.5269 H         1 <0>         0.0661
     58 O6         -2.9964    3.7754   -0.4913 O.co2     1 <0>        -0.7507
@<TRIPOS>BOND
     1    1    2 1
     2    1   37 1
     3    1   38 1
     4    1   39 1
     5    2   23 1
     6    2    3 2
     7    3    4 1
     8    3   31 1
     9    4    5 1
    10    4    6 1
    11    4   24 1
    12    6   22 1
    13    6    7 am
    14    7    8 2
    15    7    9 1
    16    9   10 2
    17    9   21 1
    18   10   11 1
    19   10   40 1
    20   11   16 ar
    21   11   12 ar
    22   12   13 ar
    23   12   41 1
    24   13   14 ar
    25   13   42 1
    26   14   15 ar
    27   14   17 1
    28   15   16 ar
    29   15   43 1
    30   16   44 1
    31   17   18 1
    32   18   19 1
    33   18   45 1
    34   18   46 1
    35   19   20 2
    36   19   58 1
    37   21   22 1
    38   22   23 2
    39   24   29 ar
    40   24   25 ar
    41   25   26 ar
    42   25   47 1
    43   26   27 ar
    44   26   48 1
    45   27   28 ar
    46   27   30 1
    47   28   29 ar
    48   28   49 1
    49   29   50 1
    50   31   32 2
    51   31   33 1
    52   33   34 1
    53   34   35 1
    54   34   36 1
    55   34   51 1
    56   35   52 1
    57   35   53 1
    58   35   54 1
    59   36   55 1
    60   36   56 1
    61   36   57 1
@<TRIPOS>MOLECULE
ZINC02049556
   55    58     0     0     0
SMALL
USER_CHARGES

@<TRIPOS>ATOM
      1 C1         -1.2752    0.6640   -0.7144 C.3       1 <0>        -0.1527
      2 C2         -1.0795   -0.8515   -0.7913 C.3       1 <0>         0.0637
      3 O1         -0.1465   -1.1593   -1.8290 O.3       1 <0>        -0.3507
      4 C3          0.1394   -2.4642   -2.0295 C.2       1 <0>         0.5329
      5 O2         -0.3910   -3.3168   -1.3399 O.2       1 <0>        -0.5111
      6 C4          1.0481   -2.8379   -3.0330 C.2       1 <0>        -0.2972
      7 C5          1.4666   -4.1332   -3.1558 C.2       1 <0>         0.2597
      8 N1          2.3254   -4.4776   -4.1069 N.2       1 <0>        -0.5241
      9 C6          2.8373   -3.6530   -4.9856 C.2       1 <0>         0.3960
     10 N2          2.5497   -2.3086   -5.0392 N.am      1 <0>        -0.5785
     11 C7          3.1358   -1.5633   -5.9851 C.2       1 <0>         0.5567
     12 O3          2.9122   -0.3699   -6.0710 O.2       1 <0>        -0.4667
     13 C8          4.0574   -2.2296   -6.9157 C.2       1 <0>        -0.2704
     14 C9          4.7695   -1.7071   -7.9476 C.2       1 <0>         0.1236
     15 C10         5.5225   -2.5938   -8.8431 C.ar      1 <0>        -0.1726
     16 C11         5.1920   -3.9522   -8.9282 C.ar      1 <0>        -0.0438
     17 C12         5.9012   -4.7790   -9.7699 C.ar      1 <0>        -0.1596
     18 C13         6.9436   -4.2679  -10.5346 C.ar      1 <0>         0.1811
     19 C14         7.2763   -2.9205  -10.4538 C.ar      1 <0>        -0.2243
     20 C15         6.5702   -2.0833   -9.6198 C.ar      1 <0>        -0.0239
     21 O4          7.6397   -5.0878  -11.3631 O.3       1 <0>        -0.2695
     22 C16         8.6984   -4.4981  -12.1204 C.3       1 <0>        -0.0124
     23 C17         9.3517   -5.5526  -12.9760 C.2       1 <0>         0.5009
     24 O5          8.9482   -6.7025  -12.9407 O.co2     1 <0>        -0.6683
     25 O6         10.2839   -5.2558  -13.7037 O.co2     1 <0>        -0.6833
     26 S1          3.9882   -3.9123   -6.3214 S.3       1 <0>         0.1398
     27 C18         1.5867   -1.8205   -4.0123 C.3       1 <0>         0.2449
     28 H1          2.0805   -1.0342   -3.4413 H         1 <0>         0.0990
     29 C19         0.4144   -1.2000   -4.7277 C.ar      1 <0>        -0.0939
     30 C20        -0.1914   -1.8717   -5.7731 C.ar      1 <0>        -0.0899
     31 C21        -1.2666   -1.3031   -6.4296 C.ar      1 <0>        -0.1102
     32 C22        -1.7366   -0.0614   -6.0403 C.ar      1 <0>        -0.0264
     33 C23        -1.1298    0.6103   -4.9940 C.ar      1 <0>        -0.1112
     34 C24        -0.0583    0.0382   -4.3346 C.ar      1 <0>        -0.0588
     35 Cl1        -3.0866    0.6536   -6.8647 Cl        1 <0>        -0.0705
     36 C25         0.9486   -5.1792   -2.2026 C.3       1 <0>        -0.1140
     37 H2         -0.3203    1.1431   -0.4983 H         1 <0>         0.0657
     38 H3         -1.6578    1.0297   -1.6673 H         1 <0>         0.0662
     39 H4         -1.9869    0.8987    0.0771 H         1 <0>         0.0779
     40 H5         -0.6969   -1.2173    0.1616 H         1 <0>         0.0658
     41 H6         -2.0344   -1.3307   -1.0074 H         1 <0>         0.0656
     42 H7          4.7818   -0.6394   -8.1093 H         1 <0>         0.1609
     43 H8          4.3826   -4.3504   -8.3343 H         1 <0>         0.1332
     44 H9          5.6474   -5.8266   -9.8361 H         1 <0>         0.1425
     45 H10         8.0876   -2.5289  -11.0496 H         1 <0>         0.1395
     46 H11         6.8266   -1.0359   -9.5612 H         1 <0>         0.1341
     47 H12         8.2946   -3.7116  -12.7580 H         1 <0>         0.0653
     48 H13         9.4371   -4.0720  -11.4415 H         1 <0>         0.0654
     49 H14         0.1757   -2.8408   -6.0771 H         1 <0>         0.1186
     50 H15        -1.7396   -1.8278   -7.2465 H         1 <0>         0.1340
     51 H16        -1.4960    1.5798   -4.6899 H         1 <0>         0.1350
     52 H17         0.4124    0.5604   -3.5147 H         1 <0>         0.1366
     53 H18        -0.0158   -5.5458   -2.5544 H         1 <0>         0.0939
     54 H19         1.6557   -6.0072   -2.1525 H         1 <0>         0.0771
     55 H20         0.8311   -4.7412   -1.2114 H         1 <0>         0.1084
@<TRIPOS>BOND
     1    1    2 1
     2    1   37 1
     3    1   38 1
     4    1   39 1
     5    2    3 1
     6    2   40 1
     7    2   41 1
     8    3    4 1
     9    4    5 2
    10    4    6 1
    11    6   27 1
    12    6    7 2
    13    7    8 1
    14    7   36 1
    15    8    9 2
    16    9   26 1
    17    9   10 1
    18   10   11 am
    19   10   27 1
    20   11   12 2
    21   11   13 1
    22   13   14 2
    23   13   26 1
    24   14   15 1
    25   14   42 1
    26   15   20 ar
    27   15   16 ar
    28   16   17 ar
    29   16   43 1
    30   17   18 ar
    31   17   44 1
    32   18   19 ar
    33   18   21 1
    34   19   20 ar
    35   19   45 1
    36   20   46 1
    37   21   22 1
    38   22   23 1
    39   22   47 1
    40   22   48 1
    41   23   24 2
    42   23   25 1
    43   27   28 1
    44   27   29 1
    45   29   34 ar
    46   29   30 ar
    47   30   31 ar
    48   30   49 1
    49   31   32 ar
    50   31   50 1
    51   32   33 ar
    52   32   35 1
    53   33   34 ar
    54   33   51 1
    55   34   52 1
    56   36   53 1
    57   36   54 1
    58   36   55 1
@<TRIPOS>MOLECULE
ZINC02049558
   55    58     0     0     0
SMALL
USER_CHARGES

@<TRIPOS>ATOM
      1 C1         -2.0149    0.9879   -1.4799 C.3       1 <0>        -0.1524
      2 C2         -1.9554   -0.5367   -1.5926 C.3       1 <0>         0.0629
      3 O1         -0.9246   -0.9066   -2.5106 O.3       1 <0>        -0.3477
      4 C3         -0.7396   -2.2274   -2.7252 C.2       1 <0>         0.5316
      5 O2         -1.4365   -3.0420   -2.1469 O.2       1 <0>        -0.5117
      6 C4          0.2565   -2.6614   -3.6153 C.2       1 <0>        -0.2983
      7 C5          0.5593   -3.9885   -3.7388 C.2       1 <0>         0.2601
      8 N1          1.5019   -4.3898   -4.5822 N.2       1 <0>        -0.5251
      9 C6          2.2066   -3.5956   -5.3481 C.2       1 <0>         0.3913
     10 N2          2.0615   -2.2278   -5.3797 N.am      1 <0>        -0.5782
     11 C7          2.8409   -1.5179   -6.2058 C.2       1 <0>         0.5575
     12 O3          2.7486   -0.3058   -6.2676 O.2       1 <0>        -0.4672
     13 C8          3.8110   -2.2463   -7.0349 C.2       1 <0>        -0.2729
     14 C9          4.7045   -1.7683   -7.9394 C.2       1 <0>         0.1228
     15 C10         5.4137   -2.6945   -8.8305 C.ar      1 <0>        -0.1721
     16 C11         5.0373   -4.0424   -8.8871 C.ar      1 <0>        -0.0373
     17 C12         5.7056   -4.9063   -9.7249 C.ar      1 <0>        -0.1599
     18 C13         6.7523   -4.4432  -10.5140 C.ar      1 <0>         0.1834
     19 C14         7.1305   -3.1064  -10.4615 C.ar      1 <0>        -0.2247
     20 C15         6.4656   -2.2323   -9.6317 C.ar      1 <0>        -0.0216
     21 O4          7.4079   -5.2996  -11.3385 O.3       1 <0>        -0.2687
     22 C16         8.4736   -4.7583  -12.1216 C.3       1 <0>        -0.0129
     23 C17         9.0784   -5.8482  -12.9686 C.2       1 <0>         0.5009
     24 O5          8.6377   -6.9833  -12.9073 O.co2     1 <0>        -0.6682
     25 O6         10.0084   -5.5948  -13.7152 O.co2     1 <0>        -0.6830
     26 S1          3.4977   -3.9305   -6.5300 S.3       1 <0>         0.1392
     27 C18         1.0200   -1.6751   -4.4687 C.3       1 <0>         0.2446
     28 H1          0.2983   -1.1259   -5.0734 H         1 <0>         0.0970
     29 C19         1.6917   -0.6886   -3.5485 C.ar      1 <0>        -0.0909
     30 C20         2.8741   -1.0271   -2.9172 C.ar      1 <0>        -0.0900
     31 C21         3.4906   -0.1228   -2.0732 C.ar      1 <0>        -0.1113
     32 C22         2.9242    1.1213   -1.8601 C.ar      1 <0>        -0.0262
     33 C23         1.7409    1.4595   -2.4922 C.ar      1 <0>        -0.1116
     34 C24         1.1282    0.5565   -3.3404 C.ar      1 <0>        -0.0511
     35 Cl1         3.6977    2.2575   -0.7996 Cl        1 <0>        -0.0721
     36 C25        -0.1832   -5.0045   -2.9097 C.3       1 <0>        -0.1162
     37 H2         -1.0566    1.3634   -1.1207 H         1 <0>         0.0664
     38 H3         -2.2292    1.4166   -2.4589 H         1 <0>         0.0654
     39 H4         -2.8011    1.2701   -0.7797 H         1 <0>         0.0773
     40 H5         -1.7411   -0.9654   -0.6136 H         1 <0>         0.0651
     41 H6         -2.9136   -0.9122   -1.9517 H         1 <0>         0.0656
     42 H7          4.8932   -0.7068   -8.0029 H         1 <0>         0.1612
     43 H8          4.2245   -4.4033   -8.2743 H         1 <0>         0.1294
     44 H9          5.4164   -5.9459   -9.7691 H         1 <0>         0.1434
     45 H10         7.9449   -2.7522  -11.0762 H         1 <0>         0.1403
     46 H11         6.7573   -1.1931   -9.5950 H         1 <0>         0.1352
     47 H12         8.0862   -3.9696  -12.7667 H         1 <0>         0.0657
     48 H13         9.2364   -4.3457  -11.4614 H         1 <0>         0.0658
     49 H14         3.3160   -1.9985   -3.0834 H         1 <0>         0.1177
     50 H15         4.4141   -0.3875   -1.5798 H         1 <0>         0.1329
     51 H16         1.2981    2.4304   -2.3260 H         1 <0>         0.1340
     52 H17         0.2070    0.8221   -3.8376 H         1 <0>         0.1339
     53 H18        -1.1103   -5.2774   -3.4139 H         1 <0>         0.0940
     54 H19         0.4362   -5.8924   -2.7827 H         1 <0>         0.0767
     55 H20        -0.4126   -4.5788   -1.9329 H         1 <0>         0.1100
@<TRIPOS>BOND
     1    1    2 1
     2    1   37 1
     3    1   38 1
     4    1   39 1
     5    2    3 1
     6    2   40 1
     7    2   41 1
     8    3    4 1
     9    4    5 2
    10    4    6 1
    11    6   27 1
    12    6    7 2
    13    7    8 1
    14    7   36 1
    15    8    9 2
    16    9   26 1
    17    9   10 1
    18   10   11 am
    19   10   27 1
    20   11   12 2
    21   11   13 1
    22   13   14 2
    23   13   26 1
    24   14   15 1
    25   14   42 1
    26   15   20 ar
    27   15   16 ar
    28   16   17 ar
    29   16   43 1
    30   17   18 ar
    31   17   44 1
    32   18   19 ar
    33   18   21 1
    34   19   20 ar
    35   19   45 1
    36   20   46 1
    37   21   22 1
    38   22   23 1
    39   22   47 1
    40   22   48 1
    41   23   24 2
    42   23   25 1
    43   27   28 1
    44   27   29 1
    45   29   34 ar
    46   29   30 ar
    47   30   31 ar
    48   30   49 1
    49   31   32 ar
    50   31   50 1
    51   32   33 ar
    52   32   35 1
    53   33   34 ar
    54   33   51 1
    55   34   52 1
    56   36   53 1
    57   36   54 1
    58   36   55 1
@<TRIPOS>MOLECULE
ZINC02049560
   59    62     0     0     0
SMALL
USER_CHARGES
2-[4-[[4-ethoxycarbonyl-3-methyl-5-(4-methylsulfanylphenyl)-7-oxo-9-thia-2,6-diazabicyclo[4.3.0]nona-1,3-dien-8-ylidene]methyl]phenoxy]acetic acid
@<TRIPOS>ATOM
      1 C1          0.1272   -5.7197   -4.1856 C.3       1 <0>        -0.1528
      2 C2          0.3089   -5.0508   -5.5496 C.3       1 <0>         0.0633
      3 O1          1.3645   -4.0906   -5.4724 O.3       1 <0>        -0.3485
      4 C3          1.6547   -3.4063   -6.6003 C.2       1 <0>         0.5316
      5 O2          1.0265   -3.6210   -7.6216 O.2       1 <0>        -0.5135
      6 C4          2.6808   -2.4473   -6.5954 C.2       1 <0>        -0.2949
      7 C5          2.9894   -1.7438   -7.7251 C.2       1 <0>         0.2560
      8 N1          3.9605   -0.8395   -7.7123 N.2       1 <0>        -0.5239
      9 C6          4.6890   -0.5403   -6.6664 C.2       1 <0>         0.3884
     10 N2          4.5424   -1.1291   -5.4316 N.am      1 <0>        -0.5775
     11 C7          5.3469   -0.7393   -4.4343 C.2       1 <0>         0.5572
     12 O3          5.2539   -1.2315   -3.3249 O.2       1 <0>        -0.4659
     13 C8          6.3449    0.3008   -4.7195 C.2       1 <0>        -0.2681
     14 C9          7.2659    0.8629   -3.8945 C.2       1 <0>         0.1174
     15 C10         8.2812    1.7726   -4.4393 C.ar      1 <0>        -0.1680
     16 C11         8.4220    1.9199   -5.8250 C.ar      1 <0>        -0.0303
     17 C12         9.3716    2.7791   -6.3301 C.ar      1 <0>        -0.2171
     18 C13        10.1982    3.4903   -5.4679 C.ar      1 <0>         0.1830
     19 C14        10.0667    3.3437   -4.0917 C.ar      1 <0>        -0.1638
     20 C15         9.1165    2.4920   -3.5753 C.ar      1 <0>        -0.0276
     21 O4         11.1371    4.3316   -5.9716 O.3       1 <0>        -0.2751
     22 C16        11.2188    4.4353   -7.3945 C.3       1 <0>         0.0115
     23 C17        12.3089    5.4074   -7.7656 C.2       1 <0>         0.4690
     24 O5         12.9501    5.9552   -6.9003 O.co2     1 <0>        -0.6121
     25 S1          6.0186    0.6256   -6.4451 S.3       1 <0>         0.1358
     26 C18         3.4739   -2.1636   -5.3406 C.3       1 <0>         0.2452
     27 H1          3.9370   -3.0964   -5.0186 H         1 <0>         0.0968
     28 C19         2.5061   -1.7371   -4.2671 C.ar      1 <0>        -0.1001
     29 C20         2.0357   -2.6638   -3.3545 C.ar      1 <0>        -0.0481
     30 C21         1.1485   -2.2768   -2.3698 C.ar      1 <0>        -0.1005
     31 C22         0.7286   -0.9540   -2.2961 C.ar      1 <0>        -0.0750
     32 C23         1.1992   -0.0267   -3.2180 C.ar      1 <0>        -0.1332
     33 C24         2.0907   -0.4198   -4.1965 C.ar      1 <0>        -0.0821
     34 S2         -0.4034   -0.4555   -1.0413 S.3       1 <0>        -0.1213
     35 C25        -0.6450    1.3162   -1.3469 C.3       1 <0>        -0.1433
     36 C26         2.2215   -1.9974   -8.9967 C.3       1 <0>        -0.1003
     37 H2          1.0528   -6.2195   -3.8999 H         1 <0>         0.0655
     38 H3         -0.1227   -4.9642   -3.4408 H         1 <0>         0.0668
     39 H4         -0.6780   -6.4521   -4.2445 H         1 <0>         0.0773
     40 H5         -0.6167   -4.5510   -5.8353 H         1 <0>         0.0649
     41 H6          0.5587   -5.8063   -6.2944 H         1 <0>         0.0652
     42 H7          7.2514    0.6405   -2.8378 H         1 <0>         0.1622
     43 H8          7.7836    1.3642   -6.4958 H         1 <0>         0.1242
     44 H9          9.4778    2.8971   -7.3984 H         1 <0>         0.1422
     45 H10        10.7111    3.8992   -3.4264 H         1 <0>         0.1428
     46 H11         9.0155    2.3786   -2.5060 H         1 <0>         0.1399
     47 H12        11.4452    3.4567   -7.8177 H         1 <0>         0.0732
     48 H13        10.2663    4.7899   -7.7883 H         1 <0>         0.0733
     49 H14         2.3625   -3.6916   -3.4124 H         1 <0>         0.1333
     50 H15         0.7811   -3.0011   -1.6580 H         1 <0>         0.1288
     51 H16         0.8716    1.0011   -3.1665 H         1 <0>         0.1225
     52 H17         2.4604    0.3012   -4.9106 H         1 <0>         0.1111
     53 H18         0.3114    1.8326   -1.2659 H         1 <0>         0.0842
     54 H19        -1.0520    1.4601   -2.3479 H         1 <0>         0.0834
     55 H20        -1.3397    1.7205   -0.6107 H         1 <0>         0.1094
     56 H21         2.6034   -1.3509   -9.7869 H         1 <0>         0.0761
     57 H22         2.3404   -3.0401   -9.2912 H         1 <0>         0.0962
     58 H23         1.1652   -1.7846   -8.8319 H         1 <0>         0.0952
     59 O6         12.5676    5.6647   -9.0573 O.co2     1 <0>        -0.7498
@<TRIPOS>BOND
     1    1    2 1
     2    1   37 1
     3    1   38 1
     4    1   39 1
     5    2    3 1
     6    2   40 1
     7    2   41 1
     8    3    4 1
     9    4    5 2
    10    4    6 1
    11    6   26 1
    12    6    7 2
    13    7    8 1
    14    7   36 1
    15    8    9 2
    16    9   25 1
    17    9   10 1
    18   10   11 am
    19   10   26 1
    20   11   12 2
    21   11   13 1
    22   13   14 2
    23   13   25 1
    24   14   15 1
    25   14   42 1
    26   15   20 ar
    27   15   16 ar
    28   16   17 ar
    29   16   43 1
    30   17   18 ar
    31   17   44 1
    32   18   19 ar
    33   18   21 1
    34   19   20 ar
    35   19   45 1
    36   20   46 1
    37   21   22 1
    38   22   23 1
    39   22   47 1
    40   22   48 1
    41   23   24 2
    42   23   59 1
    43   26   27 1
    44   26   28 1
    45   28   33 ar
    46   28   29 ar
    47   29   30 ar
    48   29   49 1
    49   30   31 ar
    50   30   50 1
    51   31   32 ar
    52   31   34 1
    53   32   33 ar
    54   32   51 1
    55   33   52 1
    56   34   35 1
    57   35   53 1
    58   35   54 1
    59   35   55 1
    60   36   56 1
    61   36   57 1
    62   36   58 1
@<TRIPOS>MOLECULE
ZINC02049562
   59    62     0     0     0
SMALL
USER_CHARGES
2-[4-[[4-ethoxycarbonyl-3-methyl-5-(4-methylsulfanylphenyl)-7-oxo-9-thia-2,6-diazabicyclo[4.3.0]nona-1,3-dien-8-ylidene]methyl]phenoxy]acetic acid
@<TRIPOS>ATOM
      1 C1          1.8951   -1.9423    2.7356 C.3       1 <0>        -0.1517
      2 C2          2.0106   -0.5158    3.2766 C.3       1 <0>         0.0638
      3 O1          2.0942    0.4023    2.1848 O.3       1 <0>        -0.3500
      4 C3          2.2016    1.7132    2.4927 C.2       1 <0>         0.5330
      5 O2          2.2234    2.0651    3.6587 O.2       1 <0>        -0.5129
      6 C4          2.2881    2.6703    1.4686 C.2       1 <0>        -0.2951
      7 C5          2.5173    3.9871    1.7543 C.2       1 <0>         0.2569
      8 N1          2.5971    4.8849    0.7804 N.2       1 <0>        -0.5233
      9 C6          2.4708    4.6171   -0.4949 C.2       1 <0>         0.3935
     10 N2          2.2365    3.3581   -0.9980 N.am      1 <0>        -0.5776
     11 C7          2.1259    3.2065   -2.3241 C.2       1 <0>         0.5572
     12 O3          1.9184    2.1121   -2.8148 O.2       1 <0>        -0.4666
     13 C8          2.2621    4.4011   -3.1688 C.2       1 <0>        -0.2685
     14 C9          2.1916    4.5153   -4.5204 C.2       1 <0>         0.1200
     15 C10         2.1897    5.8435   -5.1457 C.ar      1 <0>        -0.1690
     16 C11         1.9181    6.9821   -4.3767 C.ar      1 <0>        -0.0371
     17 C12         1.9239    8.2256   -4.9671 C.ar      1 <0>        -0.2171
     18 C13         2.1864    8.3513   -6.3265 C.ar      1 <0>         0.1818
     19 C14         2.4510    7.2240   -7.0959 C.ar      1 <0>        -0.1641
     20 C15         2.4540    5.9761   -6.5148 C.ar      1 <0>        -0.0288
     21 O4          2.1847    9.5796   -6.9048 O.3       1 <0>        -0.2758
     22 C16         1.9054   10.6955   -6.0570 C.3       1 <0>         0.0118
     23 C17         1.9467   11.9651   -6.8677 C.2       1 <0>         0.4690
     24 O5          2.1905   11.9191   -8.0502 O.co2     1 <0>        -0.6122
     25 S1          2.5446    5.6624   -1.9364 S.3       1 <0>         0.1372
     26 C18         2.1298    2.2741    0.0187 C.3       1 <0>         0.2460
     27 H1          2.8888    1.5257   -0.2091 H         1 <0>         0.0967
     28 C19         0.7803    1.6221   -0.1390 C.ar      1 <0>        -0.1014
     29 C20        -0.3556    2.4041   -0.2438 C.ar      1 <0>        -0.0826
     30 C21        -1.5937    1.8102   -0.3888 C.ar      1 <0>        -0.0989
     31 C22        -1.6976    0.4250   -0.4294 C.ar      1 <0>        -0.0747
     32 C23        -0.5540   -0.3576   -0.3237 C.ar      1 <0>        -0.1339
     33 C24         0.6808    0.2433   -0.1789 C.ar      1 <0>        -0.0493
     34 S2         -3.2754   -0.3373   -0.6137 S.3       1 <0>        -0.1198
     35 C25        -2.9074   -2.1136   -0.6123 C.3       1 <0>        -0.1432
     36 C26         2.6814    4.4230    3.1875 C.3       1 <0>        -0.1009
     37 H2          1.8313   -2.6427    3.5684 H         1 <0>         0.0774
     38 H3          0.9990   -2.0263    2.1208 H         1 <0>         0.0644
     39 H4          2.7728   -2.1743    2.1323 H         1 <0>         0.0655
     40 H5          2.9067   -0.4318    3.8914 H         1 <0>         0.0656
     41 H6          1.1330   -0.2839    3.8799 H         1 <0>         0.0650
     42 H7          2.1369    3.6289   -5.1351 H         1 <0>         0.1617
     43 H8          1.7091    6.8851   -3.3215 H         1 <0>         0.1292
     44 H9          1.7193    9.1048   -4.3741 H         1 <0>         0.1415
     45 H10         2.6542    7.3275   -8.1515 H         1 <0>         0.1420
     46 H11         2.6600    5.1011   -7.1134 H         1 <0>         0.1390
     47 H12         0.9154   10.5780   -5.6161 H         1 <0>         0.0728
     48 H13         2.6523   10.7458   -5.2647 H         1 <0>         0.0732
     49 H14        -0.2741    3.4806   -0.2126 H         1 <0>         0.1143
     50 H15        -2.4798    2.4216   -0.4751 H         1 <0>         0.1283
     51 H16        -0.6310   -1.4344   -0.3545 H         1 <0>         0.1240
     52 H17         1.5699   -0.3642   -0.0964 H         1 <0>         0.1297
     53 H18        -2.2393   -2.3469   -1.4413 H         1 <0>         0.0843
     54 H19        -2.4278   -2.3846    0.3283 H         1 <0>         0.0833
     55 H20        -3.8341   -2.6767   -0.7230 H         1 <0>         0.1089
     56 H21         3.5010    3.8685    3.6444 H         1 <0>         0.0938
     57 H22         2.9020    5.4900    3.2198 H         1 <0>         0.0768
     58 H23         1.7597    4.2259    3.7350 H         1 <0>         0.0974
     59 O6          1.7128   13.1471   -6.2761 O.co2     1 <0>        -0.7501
@<TRIPOS>BOND
     1    1    2 1
     2    1   37 1
     3    1   38 1
     4    1   39 1
     5    2    3 1
     6    2   40 1
     7    2   41 1
     8    3    4 1
     9    4    5 2
    10    4    6 1
    11    6   26 1
    12    6    7 2
    13    7    8 1
    14    7   36 1
    15    8    9 2
    16    9   25 1
    17    9   10 1
    18   10   11 am
    19   10   26 1
    20   11   12 2
    21   11   13 1
    22   13   14 2
    23   13   25 1
    24   14   15 1
    25   14   42 1
    26   15   20 ar
    27   15   16 ar
    28   16   17 ar
    29   16   43 1
    30   17   18 ar
    31   17   44 1
    32   18   19 ar
    33   18   21 1
    34   19   20 ar
    35   19   45 1
    36   20   46 1
    37   21   22 1
    38   22   23 1
    39   22   47 1
    40   22   48 1
    41   23   24 2
    42   23   59 1
    43   26   27 1
    44   26   28 1
    45   28   33 ar
    46   28   29 ar
    47   29   30 ar
    48   29   49 1
    49   30   31 ar
    50   30   50 1
    51   31   32 ar
    52   31   34 1
    53   32   33 ar
    54   32   51 1
    55   33   52 1
    56   34   35 1
    57   35   53 1
    58   35   54 1
    59   35   55 1
    60   36   56 1
    61   36   57 1
    62   36   58 1
@<TRIPOS>MOLECULE
ZINC49670025
   65    69     0     0     0
SMALL
USER_CHARGES

@<TRIPOS>ATOM
      1 C1         -0.0167    1.3786    0.0096 C.ar      1 <0>        -0.1199
      2 C2          1.1696    2.0892    0.0021 C.ar      1 <0>        -0.0967
      3 C3          2.3774    1.4195   -0.0135 C.ar      1 <0>        -0.1113
      4 C4          2.3996    0.0309   -0.0212 C.ar      1 <0>         0.1415
      5 C5          1.2065   -0.6797   -0.0132 C.ar      1 <0>        -0.1334
      6 C6          0.0021   -0.0041    0.0020 C.ar      1 <0>        -0.0894
      7 N1          3.6227   -0.6513   -0.0375 N.pl3     1 <0>        -0.2987
      8 C7          3.7640   -1.9904   -0.0515 C.2       1 <0>         0.1104
      9 C8          5.1174   -2.2722   -0.0658 C.2       1 <0>        -0.2198
     10 C9          5.8091   -0.9776   -0.0594 C.2       1 <0>         0.1507
     11 N2          4.8823   -0.0457   -0.0477 N.2       1 <0>        -0.2575
     12 C10         7.2754   -0.7619   -0.0698 C.ar      1 <0>         0.0356
     13 C11         8.1178   -1.6471    0.6015 C.ar      1 <0>        -0.1154
     14 C12         9.4822   -1.4412    0.5882 C.ar      1 <0>        -0.0143
     15 C13        10.0146   -0.3589   -0.0894 C.ar      1 <0>        -0.6674
     16 C14         9.1837    0.5228   -0.7572 C.ar      1 <0>        -0.0182
     17 C15         7.8182    0.3238   -0.7558 C.ar      1 <0>        -0.1054
     18 S1         11.7577   -0.1022   -0.1013 S.o2      1 <0>         2.6894
     19 O1         11.9626    1.2824   -0.3466 O.2       1 <0>        -0.9535
     20 O2         12.2724   -0.7561    1.0505 O.2       1 <0>        -0.9500
     21 N3         12.3626   -0.9100   -1.4142 N.pl3     1 <0>        -0.9947
     22 C16        12.7877   -2.3118   -1.3000 C.3       1 <0>         0.1182
     23 C17        12.0705   -3.1337   -2.3756 C.3       1 <0>        -0.1388
     24 C18        12.3302   -2.5080   -3.7478 C.3       1 <0>        -0.1179
     25 C19        11.7707   -1.0838   -3.7751 C.3       1 <0>        -0.1375
     26 C20        12.4788   -0.2405   -2.7169 C.3       1 <0>         0.1196
     27 C21         5.7387   -3.6008   -0.0835 C.2       1 <0>         0.1168
     28 C22         4.9605   -4.7146   -0.0875 C.2       1 <0>        -0.2404
     29 C23         5.3535   -6.1353   -0.0981 C.2       1 <0>         0.5419
     30 O3          6.5227   -6.4747   -0.1044 O.2       1 <0>        -0.4465
     31 N4          4.3732   -7.0228   -0.0999 N.am      1 <0>        -0.5105
     32 C24         3.0792   -6.6426   -0.0925 C.2       1 <0>         0.2845
     33 S2          1.6805   -7.6298   -0.0934 S.2       1 <0>        -0.3147
     34 S3          3.1789   -4.8599   -0.0736 S.3       1 <0>         0.0119
     35 C25         4.7001   -8.4508   -0.1108 C.3       1 <0>         0.1095
     36 C26         4.8198   -8.9576    1.3279 C.3       1 <0>        -0.6924
     37 S4          5.2245  -10.7258    1.3144 S.o2      1 <0>         2.6423
     38 O4          5.3435  -11.2302    2.6736 O.2       1 <0>        -1.0551
     39 O5          4.1566  -11.4192    0.6109 O.2       1 <0>        -1.0509
     40 O6          6.4842  -10.8865    0.6048 O.3       1 <0>        -1.0567
     41 H1         -0.9598    1.9047    0.0260 H         1 <0>         0.1323
     42 H2          1.1517    3.1690    0.0081 H         1 <0>         0.1350
     43 H3          3.3035    1.9750   -0.0201 H         1 <0>         0.1397
     44 H4          1.2205   -1.7596   -0.0195 H         1 <0>         0.1335
     45 H5         -0.9261   -0.5562    0.0079 H         1 <0>         0.1388
     46 H6          2.9630   -2.7148   -0.0511 H         1 <0>         0.1913
     47 H7          7.7033   -2.4922    1.1311 H         1 <0>         0.1418
     48 H8         10.1357   -2.1260    1.1081 H         1 <0>         0.1490
     49 H9          9.6050    1.3661   -1.2842 H         1 <0>         0.1453
     50 H10         7.1708    1.0103   -1.2813 H         1 <0>         0.1396
     51 H11        13.8657   -2.3798   -1.4464 H         1 <0>         0.0775
     52 H12        12.5261   -2.6937   -0.3132 H         1 <0>         0.0924
     53 H13        12.4485   -4.1561   -2.3645 H         1 <0>         0.0792
     54 H14        10.9991   -3.1392   -2.1751 H         1 <0>         0.0691
     55 H15        13.4033   -2.4802   -3.9371 H         1 <0>         0.0650
     56 H16        11.8413   -3.1050   -4.5176 H         1 <0>         0.0660
     57 H17        11.9352   -0.6471   -4.7601 H         1 <0>         0.0760
     58 H18        10.7021   -1.1086   -3.5615 H         1 <0>         0.0674
     59 H19        12.0134    0.7438   -2.6646 H         1 <0>         0.0897
     60 H20        13.5310   -0.1358   -2.9814 H         1 <0>         0.0764
     61 H21         6.8146   -3.6938   -0.0932 H         1 <0>         0.1666
     62 H22         3.9114   -9.0001   -0.6250 H         1 <0>         0.1246
     63 H23         5.6465   -8.6030   -0.6296 H         1 <0>         0.1173
     64 H24         5.6084   -8.4082    1.8421 H         1 <0>         0.1081
     65 H25         3.8734   -8.8054    1.8466 H         1 <0>         0.1127
@<TRIPOS>BOND
     1    1    6 ar
     2    1    2 ar
     3    1   41 1
     4    2    3 ar
     5    2   42 1
     6    3    4 ar
     7    3   43 1
     8    4    5 ar
     9    4    7 1
    10    5    6 ar
    11    5   44 1
    12    6   45 1
    13    7   11 1
    14    7    8 1
    15    8    9 2
    16    8   46 1
    17    9   10 1
    18    9   27 1
    19   10   11 2
    20   10   12 1
    21   12   17 ar
    22   12   13 ar
    23   13   14 ar
    24   13   47 1
    25   14   15 ar
    26   14   48 1
    27   15   16 ar
    28   15   18 1
    29   16   17 ar
    30   16   49 1
    31   17   50 1
    32   18   19 2
    33   18   20 2
    34   18   21 1
    35   21   26 1
    36   21   22 1
    37   22   23 1
    38   22   51 1
    39   22   52 1
    40   23   24 1
    41   23   53 1
    42   23   54 1
    43   24   25 1
    44   24   55 1
    45   24   56 1
    46   25   26 1
    47   25   57 1
    48   25   58 1
    49   26   59 1
    50   26   60 1
    51   27   28 2
    52   27   61 1
    53   28   34 1
    54   28   29 1
    55   29   30 2
    56   29   31 am
    57   31   32 1
    58   31   35 1
    59   32   33 2
    60   32   34 1
    61   35   36 1
    62   35   62 1
    63   35   63 1
    64   36   37 1
    65   36   64 1
    66   36   65 1
    67   37   38 2
    68   37   39 2
    69   37   40 1
@<TRIPOS>MOLECULE
ZINC49670134
   61    65     0     0     0
SMALL
USER_CHARGES

@<TRIPOS>ATOM
      1 C1         -0.0167    1.3786    0.0096 C.ar      1 <0>        -0.1226
      2 C2          1.1696    2.0892    0.0021 C.ar      1 <0>        -0.0970
      3 C3          2.3774    1.4195   -0.0134 C.ar      1 <0>        -0.1129
      4 C4          2.3996    0.0310   -0.0211 C.ar      1 <0>         0.1459
      5 C5          1.2065   -0.6797   -0.0130 C.ar      1 <0>        -0.1357
      6 C6          0.0021   -0.0041    0.0020 C.ar      1 <0>        -0.0893
      7 N1          3.6227   -0.6513   -0.0373 N.pl3     1 <0>        -0.3031
      8 C7          3.7638   -1.9902   -0.0512 C.2       1 <0>         0.1105
      9 C8          5.1174   -2.2722   -0.0646 C.2       1 <0>        -0.2275
     10 C9          5.8092   -0.9775   -0.0577 C.2       1 <0>         0.1746
     11 N2          4.8822   -0.0456   -0.0475 N.2       1 <0>        -0.2714
     12 C10         7.2752   -0.7618   -0.0668 C.ar      1 <0>        -0.0650
     13 C11         8.1161   -1.6479    0.6061 C.ar      1 <0>        -0.0516
     14 C12         9.4798   -1.4442    0.5957 C.ar      1 <0>        -0.1451
     15 C13        10.0160   -0.3585   -0.0837 C.ar      1 <0>         0.1471
     16 C14         9.1816    0.5258   -0.7542 C.ar      1 <0>        -0.2104
     17 C15         7.8175    0.3245   -0.7530 C.ar      1 <0>        -0.0400
     18 O1         11.3602   -0.1607   -0.0920 O.3       1 <0>        -0.3043
     19 C16        11.8443    0.9758   -0.8103 C.3       1 <0>         0.0995
     20 C17        13.3468    1.0317   -0.7086 C.ar      1 <0>        -0.0938
     21 C18        13.9439    1.7181    0.3323 C.ar      1 <0>        -0.0811
     22 C19        15.3219    1.7697    0.4260 C.ar      1 <0>        -0.1138
     23 C20        16.1037    1.1342   -0.5221 C.ar      1 <0>        -0.0243
     24 C21        15.5057    0.4474   -1.5636 C.ar      1 <0>        -0.1131
     25 C22        14.1275    0.3918   -1.6532 C.ar      1 <0>        -0.0803
     26 Cl1        17.8346    1.1990   -0.4053 Cl        1 <0>        -0.0661
     27 C23         5.7385   -3.6007   -0.0818 C.2       1 <0>         0.1240
     28 C24         4.9602   -4.7145   -0.0864 C.2       1 <0>        -0.2466
     29 C25         5.3531   -6.1350   -0.0967 C.2       1 <0>         0.5419
     30 O2          6.5223   -6.4745   -0.1026 O.2       1 <0>        -0.4479
     31 N3          4.3728   -7.0226   -0.0987 N.am      1 <0>        -0.5105
     32 C26         3.0788   -6.6424   -0.0921 C.2       1 <0>         0.2857
     33 S1          1.6801   -7.6296   -0.0934 S.2       1 <0>        -0.3220
     34 S2          3.1785   -4.8597   -0.0736 S.3       1 <0>         0.0132
     35 C27         4.6997   -8.4506   -0.1088 C.3       1 <0>         0.1077
     36 C28         4.8186   -8.9568    1.3302 C.3       1 <0>        -0.6916
     37 S3          5.2234  -10.7250    1.3177 S.o2      1 <0>         2.6424
     38 O3          5.3320  -11.1867    2.6928 O.2       1 <0>        -1.0578
     39 O4          4.1610  -11.4402    0.6278 O.2       1 <0>        -1.0502
     40 O5          6.4883  -10.9075    0.6228 O.3       1 <0>        -1.0560
     41 H1         -0.9598    1.9047    0.0260 H         1 <0>         0.1312
     42 H2          1.1517    3.1691    0.0080 H         1 <0>         0.1338
     43 H3          3.3035    1.9750   -0.0200 H         1 <0>         0.1393
     44 H4          1.2205   -1.7596   -0.0193 H         1 <0>         0.1331
     45 H5         -0.9261   -0.5562    0.0079 H         1 <0>         0.1378
     46 H6          2.9628   -2.7146   -0.0515 H         1 <0>         0.1888
     47 H7          7.6996   -2.4924    1.1350 H         1 <0>         0.1383
     48 H8         10.1315   -2.1298    1.1168 H         1 <0>         0.1414
     49 H9          9.6018    1.3697   -1.2811 H         1 <0>         0.1338
     50 H10         7.1694    1.0098   -1.2791 H         1 <0>         0.1321
     51 H11        11.5538    0.8944   -1.8577 H         1 <0>         0.0768
     52 H12        11.4173    1.8837   -0.3843 H         1 <0>         0.0762
     53 H13        13.3334    2.2144    1.0721 H         1 <0>         0.1353
     54 H14        15.7882    2.3062    1.2391 H         1 <0>         0.1372
     55 H15        16.1155   -0.0486   -2.3042 H         1 <0>         0.1378
     56 H16        13.6605   -0.1483   -2.4635 H         1 <0>         0.1362
     57 H17         6.8145   -3.6937   -0.0909 H         1 <0>         0.1668
     58 H18         3.9114   -9.0002   -0.6232 H         1 <0>         0.1238
     59 H19         5.6465   -8.6030   -0.6270 H         1 <0>         0.1165
     60 H20         5.6070   -8.4072    1.8446 H         1 <0>         0.1090
     61 H21         3.8719   -8.8044    1.8484 H         1 <0>         0.1136
@<TRIPOS>BOND
     1    1    6 ar
     2    1    2 ar
     3    1   41 1
     4    2    3 ar
     5    2   42 1
     6    3    4 ar
     7    3   43 1
     8    4    5 ar
     9    4    7 1
    10    5    6 ar
    11    5   44 1
    12    6   45 1
    13    7   11 1
    14    7    8 1
    15    8    9 2
    16    8   46 1
    17    9   10 1
    18    9   27 1
    19   10   11 2
    20   10   12 1
    21   12   17 ar
    22   12   13 ar
    23   13   14 ar
    24   13   47 1
    25   14   15 ar
    26   14   48 1
    27   15   16 ar
    28   15   18 1
    29   16   17 ar
    30   16   49 1
    31   17   50 1
    32   18   19 1
    33   19   20 1
    34   19   51 1
    35   19   52 1
    36   20   25 ar
    37   20   21 ar
    38   21   22 ar
    39   21   53 1
    40   22   23 ar
    41   22   54 1
    42   23   24 ar
    43   23   26 1
    44   24   25 ar
    45   24   55 1
    46   25   56 1
    47   27   28 2
    48   27   57 1
    49   28   34 1
    50   28   29 1
    51   29   30 2
    52   29   31 am
    53   31   32 1
    54   31   35 1
    55   32   33 2
    56   32   34 1
    57   35   36 1
    58   35   58 1
    59   35   59 1
    60   36   37 1
    61   36   60 1
    62   36   61 1
    63   37   38 2
    64   37   39 2
    65   37   40 1
@<TRIPOS>MOLECULE
ZINC49670037
   61    65     0     0     0
SMALL
USER_CHARGES

@<TRIPOS>ATOM
      1 C1         -0.0167    1.3781    0.0096 C.ar      1 <0>        -0.1090
      2 C2          1.1709    2.0855    0.0021 C.ar      1 <0>        -0.1229
      3 C3          2.3773    1.4107   -0.0130 C.ar      1 <0>        -0.0941
      4 C4          2.3960    0.0285   -0.0201 C.ar      1 <0>        -0.0987
      5 C5          1.2084   -0.6789   -0.0117 C.ar      1 <0>        -0.0949
      6 C6          0.0021   -0.0041    0.0020 C.ar      1 <0>        -0.1237
      7 C7          3.7112   -0.7071   -0.0376 C.3       1 <0>         0.1004
      8 O1          4.1410   -0.9464    1.3041 O.3       1 <0>        -0.3043
      9 C8          5.3183   -1.6048    1.4665 C.ar      1 <0>         0.1480
     10 C9          6.0465   -2.0064    0.3546 C.ar      1 <0>        -0.2110
     11 C10         7.2419   -2.6744    0.5158 C.ar      1 <0>        -0.0397
     12 C11         7.7194   -2.9465    1.7976 C.ar      1 <0>        -0.0666
     13 C12         6.9855   -2.5417    2.9124 C.ar      1 <0>        -0.0514
     14 C13         5.7935   -1.8695    2.7440 C.ar      1 <0>        -0.1461
     15 C14         9.0034   -3.6646    1.9748 C.2       1 <0>         0.1755
     16 C15         9.9846   -3.4473    3.0448 C.2       1 <0>        -0.2276
     17 C16        11.0186   -4.3350    2.8108 C.2       1 <0>         0.1104
     18 N1         10.7144   -5.0382    1.7036 N.pl3     1 <0>        -0.3034
     19 N2          9.4766   -4.6206    1.2067 N.2       1 <0>        -0.2717
     20 C17        11.5142   -6.0396    1.1387 C.ar      1 <0>         0.1462
     21 C18        12.7248   -6.3787    1.7287 C.ar      1 <0>        -0.1358
     22 C19        13.5113   -7.3666    1.1693 C.ar      1 <0>        -0.0894
     23 C20        13.0944   -8.0178    0.0228 C.ar      1 <0>        -0.1228
     24 C21        11.8895   -7.6825   -0.5671 C.ar      1 <0>        -0.0970
     25 C22        11.0957   -6.6995   -0.0093 C.ar      1 <0>        -0.1129
     26 C23         9.8874   -2.4808    4.1436 C.2       1 <0>         0.1244
     27 C24        10.8834   -2.3962    5.0641 C.2       1 <0>        -0.2470
     28 C25        11.0017   -1.5185    6.2422 C.2       1 <0>         0.5414
     29 O2         10.1359   -0.7113    6.5271 O.2       1 <0>        -0.4461
     30 N3         12.0946   -1.6515    6.9748 N.am      1 <0>        -0.5104
     31 C26        13.0514   -2.5469    6.6558 C.2       1 <0>         0.2868
     32 S1         14.5236   -2.8658    7.4694 S.2       1 <0>        -0.3261
     33 S2         12.4066   -3.3242    5.1833 S.3       1 <0>         0.0137
     34 C27        12.2701   -0.8070    8.1590 C.3       1 <0>         0.1095
     35 C28        11.6688   -1.5078    9.3788 C.3       1 <0>        -0.6916
     36 S3         11.8861   -0.4622   10.8451 S.o2      1 <0>         2.6426
     37 O3         11.3210   -1.1094   12.0189 O.2       1 <0>        -1.0556
     38 O4         13.2958   -0.1738   11.0590 O.2       1 <0>        -1.0484
     39 O5         11.1603    0.7623   10.5453 O.3       1 <0>        -1.0598
     40 H1         -0.9591    1.9053    0.0259 H         1 <0>         0.1244
     41 H2          1.1563    3.1654    0.0076 H         1 <0>         0.1260
     42 H3          3.3051    1.9634   -0.0196 H         1 <0>         0.1253
     43 H4          1.2231   -1.7588   -0.0176 H         1 <0>         0.1244
     44 H5         -0.9258   -0.5567    0.0082 H         1 <0>         0.1254
     45 H6          3.5884   -1.6586   -0.5549 H         1 <0>         0.0734
     46 H7          4.4573   -0.1052   -0.5563 H         1 <0>         0.0740
     47 H8          5.6760   -1.7957   -0.6377 H         1 <0>         0.1336
     48 H9          7.8076   -2.9868   -0.3495 H         1 <0>         0.1318
     49 H10         7.3525   -2.7509    3.9063 H         1 <0>         0.1381
     50 H11         5.2269   -1.5518    3.6068 H         1 <0>         0.1411
     51 H12        11.9109   -4.4447    3.4092 H         1 <0>         0.1887
     52 H13        13.0511   -5.8702    2.6239 H         1 <0>         0.1331
     53 H14        14.4530   -7.6305    1.6274 H         1 <0>         0.1377
     54 H15        13.7114   -8.7897   -0.4130 H         1 <0>         0.1311
     55 H16        11.5667   -8.1930   -1.4625 H         1 <0>         0.1338
     56 H17        10.1526   -6.4414   -0.4678 H         1 <0>         0.1393
     57 H18         9.0242   -1.8364    4.2212 H         1 <0>         0.1669
     58 H19        13.3329   -0.6332    8.3270 H         1 <0>         0.1224
     59 H20        11.7662    0.1469    8.0029 H         1 <0>         0.1188
     60 H21        10.6059   -1.6816    9.2108 H         1 <0>         0.1105
     61 H22        12.1726   -2.4617    9.5349 H         1 <0>         0.1098
@<TRIPOS>BOND
     1    1    6 ar
     2    1    2 ar
     3    1   40 1
     4    2    3 ar
     5    2   41 1
     6    3    4 ar
     7    3   42 1
     8    4    5 ar
     9    4    7 1
    10    5    6 ar
    11    5   43 1
    12    6   44 1
    13    7    8 1
    14    7   45 1
    15    7   46 1
    16    8    9 1
    17    9   14 ar
    18    9   10 ar
    19   10   11 ar
    20   10   47 1
    21   11   12 ar
    22   11   48 1
    23   12   13 ar
    24   12   15 1
    25   13   14 ar
    26   13   49 1
    27   14   50 1
    28   15   19 2
    29   15   16 1
    30   16   17 2
    31   16   26 1
    32   17   18 1
    33   17   51 1
    34   18   19 1
    35   18   20 1
    36   20   25 ar
    37   20   21 ar
    38   21   22 ar
    39   21   52 1
    40   22   23 ar
    41   22   53 1
    42   23   24 ar
    43   23   54 1
    44   24   25 ar
    45   24   55 1
    46   25   56 1
    47   26   27 2
    48   26   57 1
    49   27   33 1
    50   27   28 1
    51   28   29 2
    52   28   30 am
    53   30   31 1
    54   30   34 1
    55   31   32 2
    56   31   33 1
    57   34   35 1
    58   34   58 1
    59   34   59 1
    60   35   36 1
    61   35   60 1
    62   35   61 1
    63   36   37 2
    64   36   38 2
    65   36   39 1
@<TRIPOS>MOLECULE
ZINC49694485
   61    65     0     0     0
SMALL
USER_CHARGES

@<TRIPOS>ATOM
      1 C1         -0.0167    1.3786    0.0096 C.ar      1 <0>        -0.1226
      2 C2          1.1696    2.0892    0.0021 C.ar      1 <0>        -0.0970
      3 C3          2.3774    1.4195   -0.0134 C.ar      1 <0>        -0.1128
      4 C4          2.3996    0.0310   -0.0211 C.ar      1 <0>         0.1459
      5 C5          1.2065   -0.6797   -0.0130 C.ar      1 <0>        -0.1357
      6 C6          0.0021   -0.0041    0.0020 C.ar      1 <0>        -0.0894
      7 N1          3.6227   -0.6513   -0.0373 N.pl3     1 <0>        -0.3030
      8 C7          3.7638   -1.9902   -0.0512 C.2       1 <0>         0.1104
      9 C8          5.1174   -2.2722   -0.0646 C.2       1 <0>        -0.2274
     10 C9          5.8092   -0.9775   -0.0577 C.2       1 <0>         0.1744
     11 N2          4.8822   -0.0456   -0.0475 N.2       1 <0>        -0.2710
     12 C10         7.2752   -0.7618   -0.0668 C.ar      1 <0>        -0.0640
     13 C11         8.1161   -1.6479    0.6061 C.ar      1 <0>        -0.0519
     14 C12         9.4798   -1.4442    0.5957 C.ar      1 <0>        -0.1442
     15 C13        10.0160   -0.3585   -0.0837 C.ar      1 <0>         0.1480
     16 C14         9.1816    0.5258   -0.7542 C.ar      1 <0>        -0.2087
     17 C15         7.8175    0.3245   -0.7530 C.ar      1 <0>        -0.0396
     18 O1         11.3602   -0.1607   -0.0920 O.3       1 <0>        -0.3067
     19 C16        11.8443    0.9758   -0.8103 C.3       1 <0>         0.1007
     20 C17        13.3468    1.0317   -0.7086 C.ar      1 <0>        -0.0842
     21 C18        14.0284    0.0600   -0.0000 C.ar      1 <0>        -0.0848
     22 C19        15.4065    0.1110    0.0933 C.ar      1 <0>        -0.1124
     23 C20        16.1042    1.1339   -0.5220 C.ar      1 <0>        -0.1054
     24 C21        15.4239    2.1059   -1.2307 C.ar      1 <0>        -0.1086
     25 C22        14.0447    2.0521   -1.3292 C.ar      1 <0>        -0.0307
     26 Cl1        13.1900    3.2691   -2.2249 Cl        1 <0>        -0.0668
     27 C23         5.7385   -3.6007   -0.0818 C.2       1 <0>         0.1241
     28 C24         4.9602   -4.7145   -0.0864 C.2       1 <0>        -0.2467
     29 C25         5.3531   -6.1350   -0.0967 C.2       1 <0>         0.5415
     30 O2          6.5223   -6.4745   -0.1026 O.2       1 <0>        -0.4463
     31 N3          4.3728   -7.0226   -0.0987 N.am      1 <0>        -0.5104
     32 C26         3.0788   -6.6424   -0.0921 C.2       1 <0>         0.2866
     33 S1          1.6801   -7.6296   -0.0934 S.2       1 <0>        -0.3255
     34 S2          3.1785   -4.8597   -0.0736 S.3       1 <0>         0.0135
     35 C27         4.6997   -8.4506   -0.1088 C.3       1 <0>         0.1096
     36 C28         4.8186   -8.9568    1.3302 C.3       1 <0>        -0.6917
     37 S3          5.2234  -10.7250    1.3177 S.o2      1 <0>         2.6427
     38 O3          5.3927  -11.2169    2.6761 O.2       1 <0>        -1.0556
     39 O4          4.1836  -11.4793    0.6351 O.2       1 <0>        -1.0483
     40 O5          6.4776  -10.8190    0.5868 O.3       1 <0>        -1.0599
     41 H1         -0.9598    1.9047    0.0260 H         1 <0>         0.1312
     42 H2          1.1517    3.1691    0.0080 H         1 <0>         0.1338
     43 H3          3.3035    1.9750   -0.0200 H         1 <0>         0.1394
     44 H4          1.2205   -1.7596   -0.0193 H         1 <0>         0.1331
     45 H5         -0.9261   -0.5562    0.0079 H         1 <0>         0.1378
     46 H6          2.9628   -2.7146   -0.0515 H         1 <0>         0.1888
     47 H7          7.6996   -2.4924    1.1350 H         1 <0>         0.1388
     48 H8         10.1315   -2.1298    1.1168 H         1 <0>         0.1419
     49 H9          9.6018    1.3697   -1.2811 H         1 <0>         0.1340
     50 H10         7.1694    1.0098   -1.2791 H         1 <0>         0.1325
     51 H11        11.5538    0.8944   -1.8577 H         1 <0>         0.0837
     52 H12        11.4173    1.8837   -0.3843 H         1 <0>         0.0832
     53 H13        13.4839   -0.7391    0.4811 H         1 <0>         0.1437
     54 H14        15.9385   -0.6482    0.6474 H         1 <0>         0.1332
     55 H15        17.1809    1.1735   -0.4484 H         1 <0>         0.1341
     56 H16        15.9690    2.9051   -1.7110 H         1 <0>         0.1364
     57 H17         6.8145   -3.6937   -0.0909 H         1 <0>         0.1669
     58 H18         3.9114   -9.0002   -0.6232 H         1 <0>         0.1218
     59 H19         5.6465   -8.6030   -0.6270 H         1 <0>         0.1195
     60 H20         5.6070   -8.4072    1.8446 H         1 <0>         0.1104
     61 H21         3.8719   -8.8044    1.8484 H         1 <0>         0.1098
@<TRIPOS>BOND
     1    1    6 ar
     2    1    2 ar
     3    1   41 1
     4    2    3 ar
     5    2   42 1
     6    3    4 ar
     7    3   43 1
     8    4    5 ar
     9    4    7 1
    10    5    6 ar
    11    5   44 1
    12    6   45 1
    13    7   11 1
    14    7    8 1
    15    8    9 2
    16    8   46 1
    17    9   10 1
    18    9   27 1
    19   10   11 2
    20   10   12 1
    21   12   17 ar
    22   12   13 ar
    23   13   14 ar
    24   13   47 1
    25   14   15 ar
    26   14   48 1
    27   15   16 ar
    28   15   18 1
    29   16   17 ar
    30   16   49 1
    31   17   50 1
    32   18   19 1
    33   19   20 1
    34   19   51 1
    35   19   52 1
    36   20   25 ar
    37   20   21 ar
    38   21   22 ar
    39   21   53 1
    40   22   23 ar
    41   22   54 1
    42   23   24 ar
    43   23   55 1
    44   24   25 ar
    45   24   56 1
    46   25   26 1
    47   27   28 2
    48   27   57 1
    49   28   34 1
    50   28   29 1
    51   29   30 2
    52   29   31 am
    53   31   32 1
    54   31   35 1
    55   32   33 2
    56   32   34 1
    57   35   36 1
    58   35   58 1
    59   35   59 1
    60   36   37 1
    61   36   60 1
    62   36   61 1
    63   37   38 2
    64   37   39 2
    65   37   40 1
@<TRIPOS>MOLECULE
ZINC49723001
   61    65     0     0     0
SMALL
USER_CHARGES

@<TRIPOS>ATOM
      1 C1         -0.0167    1.3786    0.0096 C.ar      1 <0>        -0.1226
      2 C2          1.1696    2.0892    0.0021 C.ar      1 <0>        -0.0970
      3 C3          2.3774    1.4195   -0.0134 C.ar      1 <0>        -0.1128
      4 C4          2.3996    0.0310   -0.0211 C.ar      1 <0>         0.1458
      5 C5          1.2065   -0.6797   -0.0130 C.ar      1 <0>        -0.1356
      6 C6          0.0021   -0.0041    0.0020 C.ar      1 <0>        -0.0894
      7 N1          3.6227   -0.6513   -0.0373 N.pl3     1 <0>        -0.3030
      8 C7          3.7638   -1.9902   -0.0512 C.2       1 <0>         0.1104
      9 C8          5.1174   -2.2722   -0.0646 C.2       1 <0>        -0.2274
     10 C9          5.8092   -0.9775   -0.0577 C.2       1 <0>         0.1743
     11 N2          4.8822   -0.0456   -0.0475 N.2       1 <0>        -0.2710
     12 C10         7.2752   -0.7618   -0.0668 C.ar      1 <0>        -0.0638
     13 C11         8.1161   -1.6479    0.6061 C.ar      1 <0>        -0.0520
     14 C12         9.4798   -1.4442    0.5957 C.ar      1 <0>        -0.1439
     15 C13        10.0160   -0.3585   -0.0837 C.ar      1 <0>         0.1475
     16 C14         9.1816    0.5258   -0.7542 C.ar      1 <0>        -0.2089
     17 C15         7.8175    0.3245   -0.7530 C.ar      1 <0>        -0.0397
     18 O1         11.3602   -0.1607   -0.0920 O.3       1 <0>        -0.3059
     19 C16        11.8443    0.9758   -0.8103 C.3       1 <0>         0.1044
     20 C17        13.3468    1.0317   -0.7086 C.ar      1 <0>        -0.1275
     21 C18        14.0284    0.0601   -0.0001 C.ar      1 <0>        -0.0687
     22 C19        15.4066    0.1111    0.0933 C.ar      1 <0>        -0.1275
     23 C20        16.1049    1.1338   -0.5218 C.ar      1 <0>        -0.0888
     24 C21        15.4257    2.1058   -1.2310 C.ar      1 <0>        -0.1521
     25 C22        14.0454    2.0529   -1.3297 C.ar      1 <0>         0.1043
     26 F1         13.3806    3.0002   -2.0267 F         1 <0>        -0.1373
     27 C23         5.7385   -3.6007   -0.0818 C.2       1 <0>         0.1241
     28 C24         4.9602   -4.7145   -0.0864 C.2       1 <0>        -0.2466
     29 C25         5.3531   -6.1350   -0.0967 C.2       1 <0>         0.5415
     30 O2          6.5223   -6.4745   -0.1026 O.2       1 <0>        -0.4462
     31 N3          4.3728   -7.0226   -0.0987 N.am      1 <0>        -0.5104
     32 C26         3.0788   -6.6424   -0.0921 C.2       1 <0>         0.2866
     33 S1          1.6801   -7.6296   -0.0934 S.2       1 <0>        -0.3254
     34 S2          3.1785   -4.8597   -0.0736 S.3       1 <0>         0.0136
     35 C27         4.6997   -8.4506   -0.1088 C.3       1 <0>         0.1095
     36 C28         4.8186   -8.9568    1.3302 C.3       1 <0>        -0.6916
     37 S3          5.2234  -10.7250    1.3177 S.o2      1 <0>         2.6427
     38 O3          5.3672  -11.2228    2.6769 O.2       1 <0>        -1.0556
     39 O4          4.1965  -11.4762    0.6125 O.2       1 <0>        -1.0484
     40 O5          6.4910  -10.8161    0.6100 O.3       1 <0>        -1.0599
     41 H1         -0.9598    1.9047    0.0260 H         1 <0>         0.1312
     42 H2          1.1517    3.1691    0.0080 H         1 <0>         0.1339
     43 H3          3.3035    1.9750   -0.0200 H         1 <0>         0.1394
     44 H4          1.2205   -1.7596   -0.0193 H         1 <0>         0.1331
     45 H5         -0.9261   -0.5562    0.0079 H         1 <0>         0.1378
     46 H6          2.9628   -2.7146   -0.0515 H         1 <0>         0.1888
     47 H7          7.6996   -2.4924    1.1350 H         1 <0>         0.1389
     48 H8         10.1315   -2.1298    1.1168 H         1 <0>         0.1421
     49 H9          9.6018    1.3697   -1.2811 H         1 <0>         0.1340
     50 H10         7.1694    1.0098   -1.2791 H         1 <0>         0.1326
     51 H11        11.5538    0.8944   -1.8577 H         1 <0>         0.0820
     52 H12        11.4173    1.8837   -0.3843 H         1 <0>         0.0814
     53 H13        13.4840   -0.7389    0.4810 H         1 <0>         0.1441
     54 H14        15.9383   -0.6483    0.6474 H         1 <0>         0.1337
     55 H15        17.1816    1.1730   -0.4475 H         1 <0>         0.1347
     56 H16        15.9713    2.9047   -1.7111 H         1 <0>         0.1384
     57 H17         6.8145   -3.6937   -0.0909 H         1 <0>         0.1669
     58 H18         3.9114   -9.0002   -0.6232 H         1 <0>         0.1221
     59 H19         5.6465   -8.6030   -0.6270 H         1 <0>         0.1191
     60 H20         5.6070   -8.4072    1.8446 H         1 <0>         0.1105
     61 H21         3.8719   -8.8044    1.8484 H         1 <0>         0.1098
@<TRIPOS>BOND
     1    1    6 ar
     2    1    2 ar
     3    1   41 1
     4    2    3 ar
     5    2   42 1
     6    3    4 ar
     7    3   43 1
     8    4    5 ar
     9    4    7 1
    10    5    6 ar
    11    5   44 1
    12    6   45 1
    13    7   11 1
    14    7    8 1
    15    8    9 2
    16    8   46 1
    17    9   10 1
    18    9   27 1
    19   10   11 2
    20   10   12 1
    21   12   17 ar
    22   12   13 ar
    23   13   14 ar
    24   13   47 1
    25   14   15 ar
    26   14   48 1
    27   15   16 ar
    28   15   18 1
    29   16   17 ar
    30   16   49 1
    31   17   50 1
    32   18   19 1
    33   19   20 1
    34   19   51 1
    35   19   52 1
    36   20   25 ar
    37   20   21 ar
    38   21   22 ar
    39   21   53 1
    40   22   23 ar
    41   22   54 1
    42   23   24 ar
    43   23   55 1
    44   24   25 ar
    45   24   56 1
    46   25   26 1
    47   27   28 2
    48   27   57 1
    49   28   34 1
    50   28   29 1
    51   29   30 2
    52   29   31 am
    53   31   32 1
    54   31   35 1
    55   32   33 2
    56   32   34 1
    57   35   36 1
    58   35   58 1
    59   35   59 1
    60   36   37 1
    61   36   60 1
    62   36   61 1
    63   37   38 2
    64   37   39 2
    65   37   40 1
