@<TRIPOS>MOLECULE
ZINC03813668
   24    24     0     0     0
SMALL
USER_CHARGES
5-(hydroxymethyl)piperidine-3,4-diol
@<TRIPOS>ATOM
      1 C1         -0.0127    1.0858    0.0080 C.3       1 <0>         0.0019
      2 C2         -0.7286    1.5791    1.2674 C.3       1 <0>        -0.1023
      3 H1         -0.7316    2.6691    1.2810 H         1 <0>         0.1126
      4 C3         -2.1703    1.0639    1.2644 C.3       1 <0>         0.1089
      5 H2         -2.1688   -0.0258    1.2907 H         1 <0>         0.0820
      6 C4         -2.8727    1.5441   -0.0087 C.3       1 <0>         0.0566
      7 H3         -2.9100    2.6334   -0.0156 H         1 <0>         0.0901
      8 C5         -2.0949    1.0518   -1.2313 C.3       1 <0>        -0.0409
      9 O1         -4.2019    1.0209   -0.0465 O.3       1 <0>        -0.5391
     10 O2         -2.8602    1.5683    2.4096 O.3       1 <0>        -0.5462
     11 C6         -0.0015    1.0541    2.5071 C.3       1 <0>         0.0845
     12 O3          1.3073    1.6242    2.5688 O.3       1 <0>        -0.5791
     13 H4          0.0021   -0.0041    0.0020 H         1 <0>         0.1346
     14 H5          1.0099    1.4629    0.0003 H         1 <0>         0.1504
     15 H6         -2.5844    1.4040   -2.1392 H         1 <0>         0.1385
     16 H7         -2.0703   -0.0380   -1.2313 H         1 <0>         0.1401
     17 H8         -4.7056    1.2828   -0.8292 H         1 <0>         0.4002
     18 H9         -3.7828    1.2851    2.4693 H         1 <0>         0.4024
     19 H10        -0.5609    1.3308    3.4008 H         1 <0>         0.0787
     20 H11         0.0774   -0.0315    2.4494 H         1 <0>         0.0582
     21 H12         1.8268    1.3350    3.3314 H         1 <0>         0.4003
     22 N1         -0.7177    1.5794   -1.1903 N.4       1 <0>        -0.5113
     23 H13        -0.2128    1.2727   -2.0301 H         1 <0>         0.4429
     24 H14        -0.7491    2.6054   -1.1656 H         1 <0>         0.4358
@<TRIPOS>BOND
     1    1    2 1
     2    1   13 1
     3    1   14 1
     4    1   22 1
     5    2    3 1
     6    2    4 1
     7    2   11 1
     8    4    5 1
     9    4    6 1
    10    4   10 1
    11    6    7 1
    12    6    8 1
    13    6    9 1
    14    8   15 1
    15    8   16 1
    16    8   22 1
    17    9   17 1
    18   10   18 1
    19   11   12 1
    20   11   19 1
    21   11   20 1
    22   12   21 1
    23   22   23 1
    24   22   24 1
@<TRIPOS>MOLECULE
ZINC01492250
   21    21     0     0     0
SMALL
USER_CHARGES

@<TRIPOS>ATOM
      1 C1         -0.0181    1.4814    0.0102 C.3       1 <0>        -0.0360
      2 C2          1.4704    1.8907   -0.0018 C.3       1 <0>         0.0487
      3 H1          1.6139    2.7789   -0.6172 H         1 <0>         0.1181
      4 C3          2.2123    0.6866   -0.6178 C.3       1 <0>         0.1006
      5 H2          2.9273    0.2771    0.0957 H         1 <0>         0.1105
      6 C4          1.1096   -0.3490   -0.9261 C.3       1 <0>         0.0419
      7 H3          0.7806   -0.2572   -1.9612 H         1 <0>         0.1632
      8 N1          0.0021   -0.0041    0.0020 N.4       1 <0>        -0.5084
      9 C5          1.6169   -1.7662   -0.6523 C.3       1 <0>         0.0591
     10 O1          0.6246   -2.7131   -1.0532 O.3       1 <0>        -0.5766
     11 O2          2.8797    1.0767   -1.8196 O.3       1 <0>        -0.5400
     12 O3          1.9299    2.1310    1.3298 O.3       1 <0>        -0.5502
     13 H4         -0.5064    1.8500    0.9123 H         1 <0>         0.1450
     14 H5         -0.5235    1.8596   -0.8784 H         1 <0>         0.1478
     15 H6          0.1931   -0.3595    0.9268 H         1 <0>         0.4333
     16 H7          2.5333   -1.9394   -1.2164 H         1 <0>         0.1010
     17 H8          1.8188   -1.8804    0.4128 H         1 <0>         0.0752
     18 H9          0.8790   -3.6347   -0.9082 H         1 <0>         0.4115
     19 H10         3.5534    1.7585   -1.6919 H         1 <0>         0.4100
     20 H11         1.4670    2.8496    1.7819 H         1 <0>         0.4029
     21 H12        -0.8738   -0.3670   -0.3434 H         1 <0>         0.4424
@<TRIPOS>BOND
     1    1    8 1
     2    1    2 1
     3    1   13 1
     4    1   14 1
     5    2    3 1
     6    2    4 1
     7    2   12 1
     8    4    5 1
     9    4    6 1
    10    4   11 1
    11    6    7 1
    12    6    8 1
    13    6    9 1
    14    8   15 1
    15    8   21 1
    16    9   10 1
    17    9   16 1
    18    9   17 1
    19   10   18 1
    20   11   19 1
    21   12   20 1
@<TRIPOS>MOLECULE
ZINC03872694
   29    30     0     0     0
SMALL
USER_CHARGES

@<TRIPOS>ATOM
      1 C1         -0.0187    1.5258    0.0104 C.3       1 <0>         0.0824
      2 C2          0.0021   -0.0041    0.0020 C.3       1 <0>         0.0517
      3 H1          0.5883   -0.3551   -0.8472 H         1 <0>         0.0814
      4 C3         -1.4298   -0.5336   -0.1120 C.3       1 <0>         0.0494
      5 H2         -1.8665   -0.2020   -1.0541 H         1 <0>         0.0795
      6 C4         -1.4074   -2.0646   -0.0695 C.3       1 <0>         0.0814
      7 H3         -0.8479   -2.4452   -0.9241 H         1 <0>         0.0806
      8 C5         -0.7310   -2.5172    1.2293 C.3       1 <0>         0.1049
      9 H4         -0.6473   -3.6039    1.2367 H         1 <0>         0.0834
     10 C6          0.6611   -1.8980    1.3118 C.3       1 <0>         0.2830
     11 O1          0.5891   -0.4799    1.2161 O.3       1 <0>        -0.3117
     12 C7          1.3438   -2.3086    2.5962 C.2       1 <0>         0.5439
     13 O2          0.9795   -2.0740    3.7285 O.2       1 <0>        -0.3918
     14 N1          2.4437   -2.9919    2.2172 N.am      1 <0>        -0.6362
     15 C8          2.5434   -3.0655    0.8843 C.2       1 <0>         0.5536
     16 S1          3.8197   -3.8624    0.0676 S.2       1 <0>        -0.5112
     17 N2          1.5269   -2.4427    0.2580 N.pl3     1 <0>        -0.6756
     18 O3         -1.5115   -2.0908    2.3478 O.3       1 <0>        -0.5138
     19 O4         -2.7457   -2.5639   -0.1133 O.3       1 <0>        -0.5428
     20 O5         -2.2104   -0.0366    0.9769 O.3       1 <0>        -0.5214
     21 O6          1.3220    2.0204    0.0003 O.3       1 <0>        -0.5615
     22 H5         -0.5459    1.8868   -0.8726 H         1 <0>         0.0717
     23 H6         -0.5289    1.8773    0.9072 H         1 <0>         0.0652
     24 H7          3.0829   -3.3815    2.8340 H         1 <0>         0.4514
     25 H8          1.3931   -2.3683   -0.6999 H         1 <0>         0.4504
     26 H9         -2.4115   -2.4444    2.3570 H         1 <0>         0.3957
     27 H10        -3.2350   -2.3084   -0.9072 H         1 <0>         0.3912
     28 H11        -2.2654    0.9281    1.0133 H         1 <0>         0.3763
     29 H12         1.3852    2.9853    0.0049 H         1 <0>         0.3889
@<TRIPOS>BOND
     1    1    2 1
     2    1   21 1
     3    1   22 1
     4    1   23 1
     5    2    3 1
     6    2   11 1
     7    2    4 1
     8    4    5 1
     9    4    6 1
    10    4   20 1
    11    6    7 1
    12    6    8 1
    13    6   19 1
    14    8    9 1
    15    8   10 1
    16    8   18 1
    17   10   17 1
    18   10   11 1
    19   10   12 1
    20   12   13 2
    21   12   14 am
    22   14   15 1
    23   14   24 1
    24   15   16 2
    25   15   17 1
    26   17   25 1
    27   18   26 1
    28   19   27 1
    29   20   28 1
    30   21   29 1
@<TRIPOS>MOLECULE
ZINC03872695
   29    30     0     0     0
SMALL
USER_CHARGES

@<TRIPOS>ATOM
      1 C1         -0.0187    1.5258    0.0104 C.3       1 <0>         0.0824
      2 C2          0.0021   -0.0041    0.0020 C.3       1 <0>         0.0530
      3 H1          0.6044   -0.3641    0.8361 H         1 <0>         0.1077
      4 C3         -1.4274   -0.5349    0.1378 C.3       1 <0>         0.0508
      5 H2         -2.0382   -0.1490   -0.6784 H         1 <0>         0.0808
      6 C4         -1.4042   -2.0655    0.0801 C.3       1 <0>         0.0750
      7 H3         -2.4237   -2.4480    0.1286 H         1 <0>         0.0855
      8 C5         -0.7537   -2.5047   -1.2362 C.3       1 <0>         0.0997
      9 H4         -1.3665   -2.1718   -2.0739 H         1 <0>         0.1030
     10 C6          0.6358   -1.8834   -1.3427 C.3       1 <0>         0.2886
     11 O1          0.5658   -0.4667   -1.2279 O.3       1 <0>        -0.3345
     12 C7          1.5501   -2.4560   -0.2842 C.2       1 <0>         0.5096
     13 O2          1.4167   -2.3826    0.9186 O.2       1 <0>        -0.3840
     14 N1          2.5458   -3.0664   -0.9596 N.am      1 <0>        -0.6356
     15 C8          2.3831   -2.9563   -2.2837 C.2       1 <0>         0.5648
     16 S1          3.4651   -3.6172   -3.4341 S.2       1 <0>        -0.5298
     17 N2          1.2725   -2.2677   -2.6092 N.pl3     1 <0>        -0.6401
     18 O3         -0.6436   -3.9292   -1.2621 O.3       1 <0>        -0.5390
     19 O4         -0.6496   -2.5743    1.1819 O.3       1 <0>        -0.5223
     20 O5         -1.9772   -0.1115    1.3869 O.3       1 <0>        -0.5484
     21 O6          1.3220    2.0204    0.0003 O.3       1 <0>        -0.5605
     22 H5         -0.5459    1.8868   -0.8726 H         1 <0>         0.0617
     23 H6         -0.5289    1.8773    0.9072 H         1 <0>         0.0706
     24 H7          3.2876   -3.5278   -0.5379 H         1 <0>         0.4456
     25 H8          0.9557   -2.0655   -3.5034 H         1 <0>         0.4558
     26 H9         -1.4908   -4.3905   -1.1950 H         1 <0>         0.3975
     27 H10        -1.0025   -2.3274    2.0477 H         1 <0>         0.3862
     28 H11        -2.0186    0.8488    1.4932 H         1 <0>         0.3879
     29 H12         1.3852    2.9853    0.0049 H         1 <0>         0.3879
@<TRIPOS>BOND
     1    1    2 1
     2    1   21 1
     3    1   22 1
     4    1   23 1
     5    2    3 1
     6    2   11 1
     7    2    4 1
     8    4    5 1
     9    4    6 1
    10    4   20 1
    11    6    7 1
    12    6    8 1
    13    6   19 1
    14    8    9 1
    15    8   10 1
    16    8   18 1
    17   10   17 1
    18   10   11 1
    19   10   12 1
    20   12   13 2
    21   12   14 am
    22   14   15 1
    23   14   24 1
    24   15   16 2
    25   15   17 1
    26   17   25 1
    27   18   26 1
    28   19   27 1
    29   20   28 1
    30   21   29 1
@<TRIPOS>MOLECULE
ZINC12502895
   29    30     0     0     0
SMALL
USER_CHARGES
(5R,6S,7S,8S,9S)-6,7,8-trihydroxy-9-(hydroxymethyl)-2-thioxo-10-oxa-1,3-diazaspiro[4.5]decan-4-one
@<TRIPOS>ATOM
      1 C1         -2.1735    1.3644   -1.2526 C.3       1 <0>         0.0815
      2 C2         -0.7532    1.9328   -1.2326 C.3       1 <0>         0.0526
      3 H1         -0.7973    3.0216   -1.2093 H         1 <0>         0.1062
      4 C3         -0.0173    1.4248    0.0099 C.3       1 <0>         0.0492
      5 H2         -0.5287    1.7769    0.9058 H         1 <0>         0.0861
      6 C4          1.4194    1.9558   -0.0010 C.3       1 <0>         0.0742
      7 H3          1.9617    1.5586    0.8571 H         1 <0>         0.0879
      8 C5          2.1061    1.5087   -1.2963 C.3       1 <0>         0.1034
      9 H4          2.1764    0.4211   -1.3146 H         1 <0>         0.1085
     10 C6          1.2847    1.9866   -2.4901 C.3       1 <0>         0.2919
     11 O1         -0.0532    1.5088   -2.4053 O.3       1 <0>        -0.3308
     12 C7          1.3028    3.4961   -2.5685 C.2       1 <0>         0.5100
     13 O2          0.8860    4.2791   -1.7420 O.2       1 <0>        -0.3909
     14 N1          1.8809    3.7885   -3.7519 N.am      1 <0>        -0.6357
     15 C8          2.2246    2.6805   -4.4198 C.2       1 <0>         0.5645
     16 S1          2.9793    2.6905   -5.9564 S.2       1 <0>        -0.5317
     17 N2          1.9092    1.5569   -3.7476 N.pl3     1 <0>        -0.6384
     18 O3          3.4174    2.0730   -1.3609 O.3       1 <0>        -0.5455
     19 O4          1.4022    3.3833    0.0631 O.3       1 <0>        -0.5181
     20 O5          0.0021   -0.0041    0.0020 O.3       1 <0>        -0.5498
     21 O6         -2.8973    1.9294   -2.3476 O.3       1 <0>        -0.5608
     22 H5         -2.1299    0.2812   -1.3662 H         1 <0>         0.0613
     23 H6         -2.6770    1.6117   -0.3180 H         1 <0>         0.0726
     24 H7          2.0292    4.6899   -4.0782 H         1 <0>         0.4451
     25 H8          2.0644    0.6441   -4.0368 H         1 <0>         0.4560
     26 H9          3.9936    1.8138   -0.6289 H         1 <0>         0.3960
     27 H10         0.9744    3.7363    0.8552 H         1 <0>         0.3800
     28 H11        -0.8759   -0.4094    0.0082 H         1 <0>         0.3866
     29 H12        -3.8082    1.6133   -2.4219 H         1 <0>         0.3880
@<TRIPOS>BOND
     1    1    2 1
     2    1   21 1
     3    1   22 1
     4    1   23 1
     5    2    3 1
     6    2   11 1
     7    2    4 1
     8    4    5 1
     9    4    6 1
    10    4   20 1
    11    6    7 1
    12    6    8 1
    13    6   19 1
    14    8    9 1
    15    8   10 1
    16    8   18 1
    17   10   17 1
    18   10   11 1
    19   10   12 1
    20   12   13 2
    21   12   14 am
    22   14   15 1
    23   14   24 1
    24   15   16 2
    25   15   17 1
    26   17   25 1
    27   18   26 1
    28   19   27 1
    29   20   28 1
    30   21   29 1
@<TRIPOS>MOLECULE
ZINC12502898
   29    30     0     0     0
SMALL
USER_CHARGES
(5R,6S,7S,8S,9R)-6,7,8-trihydroxy-9-(hydroxymethyl)-2-thioxo-10-oxa-1,3-diazaspiro[4.5]decan-4-one
@<TRIPOS>ATOM
      1 C1          1.2864    1.5618   -0.0018 C.3       1 <0>         0.0829
      2 C2          1.1449    3.0852    0.0077 C.3       1 <0>         0.0546
      3 H1          0.5164    3.3972   -0.8264 H         1 <0>         0.0839
      4 C3          2.5280    3.7274   -0.1269 C.3       1 <0>         0.0478
      5 H2          3.1673    3.3890    0.6885 H         1 <0>         0.0938
      6 C4          2.3857    5.2514   -0.0662 C.3       1 <0>         0.0864
      7 H3          1.7824    5.5965   -0.9058 H         1 <0>         0.0772
      8 C5          1.7009    5.6360    1.2500 C.3       1 <0>         0.1007
      9 H4          1.5318    6.7126    1.2715 H         1 <0>         0.0952
     10 C6          0.3638    4.9079    1.3511 C.3       1 <0>         0.2808
     11 O1          0.5459    3.5010    1.2379 O.3       1 <0>        -0.3159
     12 C7         -0.3243    5.2504    2.6524 C.2       1 <0>         0.5446
     13 O2          0.0788    5.0334    3.7750 O.2       1 <0>        -0.3928
     14 N1         -1.4817    5.8485    2.3016 N.am      1 <0>        -0.6352
     15 C8         -1.6126    5.9273    0.9717 C.2       1 <0>         0.5514
     16 S1         -2.9638    6.6278    0.1879 S.2       1 <0>        -0.5047
     17 N2         -0.5623    5.3930    0.3196 N.pl3     1 <0>        -0.6737
     18 O3          2.5334    5.2603    2.3489 O.3       1 <0>        -0.5306
     19 O4          3.6794    5.8554   -0.1266 O.3       1 <0>        -0.5503
     20 O5          3.1090    3.3515   -1.3772 O.3       1 <0>        -0.5540
     21 O6         -0.0110    0.9628    0.0073 O.3       1 <0>        -0.5609
     22 H5          1.8401    1.2428    0.8812 H         1 <0>         0.0657
     23 H6          1.8231    1.2523   -0.8987 H         1 <0>         0.0704
     24 H7         -2.1378    6.1797    2.9346 H         1 <0>         0.4522
     25 H8         -0.4415    5.3392   -0.6413 H         1 <0>         0.4524
     26 H9          3.4014    5.6865    2.3485 H         1 <0>         0.4002
     27 H10         4.1702    5.6538   -0.9350 H         1 <0>         0.3999
     28 H11         3.2258    2.3977   -1.4858 H         1 <0>         0.3889
     29 H12         0.0021   -0.0041    0.0020 H         1 <0>         0.3892
@<TRIPOS>BOND
     1    1    2 1
     2    1   21 1
     3    1   22 1
     4    1   23 1
     5    2    3 1
     6    2   11 1
     7    2    4 1
     8    4    5 1
     9    4    6 1
    10    4   20 1
    11    6    7 1
    12    6    8 1
    13    6   19 1
    14    8    9 1
    15    8   10 1
    16    8   18 1
    17   10   17 1
    18   10   11 1
    19   10   12 1
    20   12   13 2
    21   12   14 am
    22   14   15 1
    23   14   24 1
    24   15   16 2
    25   15   17 1
    26   17   25 1
    27   18   26 1
    28   19   27 1
    29   20   28 1
    30   21   29 1
