@<TRIPOS>MOLECULE
ZINC20233084
   34    36     0     0     0
SMALL
USER_CHARGES

@<TRIPOS>ATOM
      1 C1         -0.0164    1.3602    0.0095 C.2       1 <0>         0.1938
      2 N1          1.2016    1.8177    0.0003 N.2       1 <0>        -0.4309
      3 C2          2.0708    0.7784   -0.0135 C.2       1 <0>        -0.2185
      4 C3          1.3125   -0.3975   -0.0126 C.2       1 <0>         0.3558
      5 N2          0.0021   -0.0041    0.0020 N.pl3     1 <0>        -0.4686
      6 C4         -1.1674   -0.8864    0.0084 C.3       1 <0>         0.3123
      7 H1         -0.9754   -1.7741   -0.5943 H         1 <0>         0.1127
      8 C5         -1.5307   -1.2872    1.4554 C.3       1 <0>         0.0379
      9 H2         -1.1598   -0.5447    2.1620 H         1 <0>         0.0784
     10 C6         -3.0756   -1.3151    1.4606 C.3       1 <0>         0.0455
     11 H3         -3.4683   -0.5864    2.1697 H         1 <0>         0.0850
     12 C7         -3.4628   -0.9279    0.0161 C.3       1 <0>         0.0891
     13 H4         -3.6247   -1.8220   -0.5859 H         1 <0>         0.0931
     14 O1         -2.3292   -0.1850   -0.4855 O.3       1 <0>        -0.3342
     15 C8         -4.7182   -0.0533    0.0175 C.3       1 <0>         0.1428
     16 O2         -5.1260    0.1968   -1.3291 O.3       1 <0>        -0.7505
     17 P1         -6.4151    1.0853   -1.7043 P.3       1 <0>         2.1319
     18 O3         -7.6770    0.5077   -0.9772 O.2       1 <0>        -1.1915
     19 O4         -6.1804    2.5652   -1.2467 O.3       1 <0>        -1.1871
     20 O5         -6.6423    1.0476   -3.2539 O.3       1 <0>        -1.1690
     21 O6         -3.5516   -2.6251    1.7755 O.3       1 <0>        -0.5358
     22 O7         -1.0029   -2.5785    1.7649 O.3       1 <0>        -0.5236
     23 N3          1.9310   -1.5848   -0.0253 N.2       1 <0>        -0.6108
     24 C9          3.2401   -1.6678   -0.0386 C.2       1 <0>         0.6255
     25 O8          3.8188   -2.8875   -0.0511 O.3       1 <0>        -0.6846
     26 N4          4.0325   -0.5611   -0.0407 N.am      1 <0>        -0.6669
     27 H5          4.9975   -0.6588   -0.0513 H         1 <0>         0.3990
     28 C10         3.4819    0.6731   -0.0272 C.2       1 <0>         0.5926
     29 O9          4.1831    1.6704   -0.0289 O.2       1 <0>        -0.5744
     30 H6         -0.9083    1.9691    0.0254 H         1 <0>         0.2128
     31 H7         -5.5185   -0.5673    0.5499 H         1 <0>         0.0574
     32 H8         -4.5013    0.8929    0.5131 H         1 <0>         0.0441
     33 H9         -3.2854   -2.9407    2.6499 H         1 <0>         0.3684
     34 H10        -1.2015   -2.8800    2.6620 H         1 <0>         0.3683
@<TRIPOS>BOND
     1    1    5 1
     2    1    2 2
     3    1   30 1
     4    2    3 1
     5    3   28 1
     6    3    4 2
     7    4    5 1
     8    4   23 1
     9    5    6 1
    10    6    7 1
    11    6   14 1
    12    6    8 1
    13    8    9 1
    14    8   10 1
    15    8   22 1
    16   10   11 1
    17   10   12 1
    18   10   21 1
    19   12   13 1
    20   12   14 1
    21   12   15 1
    22   15   16 1
    23   15   31 1
    24   15   32 1
    25   16   17 1
    26   17   18 2
    27   17   19 1
    28   17   20 1
    29   21   33 1
    30   22   34 1
    31   23   24 2
    32   24   25 1
    33   24   26 1
    34   26   27 1
    35   26   28 am
    36   28   29 2
@<TRIPOS>MOLECULE
ZINC20233084
   35    37     0     0     0
SMALL
USER_CHARGES

@<TRIPOS>ATOM
      1 C1         -0.0164    1.3602    0.0095 C.2       1 <0>         0.1825
      2 N1          1.2016    1.8177    0.0003 N.2       1 <0>        -0.4241
      3 C2          2.0708    0.7784   -0.0135 C.2       1 <0>        -0.2188
      4 C3          1.3125   -0.3975   -0.0126 C.2       1 <0>         0.3600
      5 N2          0.0021   -0.0041    0.0020 N.pl3     1 <0>        -0.4730
      6 C4         -1.1674   -0.8864    0.0084 C.3       1 <0>         0.3176
      7 H1         -0.9754   -1.7741   -0.5943 H         1 <0>         0.1151
      8 C5         -1.5307   -1.2872    1.4554 C.3       1 <0>         0.0373
      9 H2         -1.1598   -0.5447    2.1620 H         1 <0>         0.0820
     10 C6         -3.0756   -1.3151    1.4606 C.3       1 <0>         0.0457
     11 H3         -3.4683   -0.5864    2.1697 H         1 <0>         0.0867
     12 C7         -3.4628   -0.9279    0.0161 C.3       1 <0>         0.0867
     13 H4         -3.6247   -1.8220   -0.5859 H         1 <0>         0.0981
     14 O1         -2.3292   -0.1850   -0.4855 O.3       1 <0>        -0.3414
     15 C8         -4.7182   -0.0533    0.0175 C.3       1 <0>         0.1486
     16 O2         -5.1260    0.1968   -1.3291 O.3       1 <0>        -0.7532
     17 P1         -6.4151    1.0853   -1.7043 P.3       1 <0>         2.2147
     18 O3         -6.2957    2.4735   -1.0366 O.2       1 <0>        -1.1086
     19 O4         -6.4974    1.2636   -3.3022 O.3       1 <0>        -0.8954
     20 O5         -7.6925    0.3787   -1.1984 O.3       1 <0>        -1.1091
     21 O6         -3.5516   -2.6251    1.7755 O.3       1 <0>        -0.5377
     22 O7         -1.0029   -2.5785    1.7649 O.3       1 <0>        -0.5216
     23 N3          1.9310   -1.5848   -0.0253 N.2       1 <0>        -0.6134
     24 C9          3.2401   -1.6678   -0.0386 C.2       1 <0>         0.6284
     25 O8          3.8188   -2.8875   -0.0511 O.3       1 <0>        -0.6763
     26 N4          4.0325   -0.5611   -0.0407 N.am      1 <0>        -0.6666
     27 H5          4.9975   -0.6588   -0.0513 H         1 <0>         0.4020
     28 C10         3.4819    0.6731   -0.0272 C.2       1 <0>         0.5922
     29 O9          4.1831    1.6704   -0.0289 O.2       1 <0>        -0.5690
     30 H6         -0.9083    1.9691    0.0254 H         1 <0>         0.2095
     31 H7         -5.5185   -0.5673    0.5499 H         1 <0>         0.0740
     32 H8         -4.5013    0.8929    0.5131 H         1 <0>         0.0662
     33 H9         -3.2854   -2.9407    2.6499 H         1 <0>         0.3761
     34 H10        -1.2015   -2.8800    2.6620 H         1 <0>         0.3723
     35 H11        -7.2518    1.7897   -3.6010 H         1 <0>         0.4124
@<TRIPOS>BOND
     1    1    5 1
     2    1    2 2
     3    1   30 1
     4    2    3 1
     5    3   28 1
     6    3    4 2
     7    4    5 1
     8    4   23 1
     9    5    6 1
    10    6    7 1
    11    6   14 1
    12    6    8 1
    13    8    9 1
    14    8   10 1
    15    8   22 1
    16   10   11 1
    17   10   12 1
    18   10   21 1
    19   12   13 1
    20   12   14 1
    21   12   15 1
    22   15   16 1
    23   15   31 1
    24   15   32 1
    25   16   17 1
    26   17   18 2
    27   17   19 1
    28   17   20 1
    29   19   35 1
    30   21   33 1
    31   22   34 1
    32   23   24 2
    33   24   25 1
    34   24   26 1
    35   26   27 1
    36   26   28 am
    37   28   29 2
@<TRIPOS>MOLECULE
ZINC12503861
   31    32     0     0     0
SMALL
USER_CHARGES
[(2R,3S,4R,5R)-5-(3,5-dioxo-1,2,4-triazin-2-yl)-3,4-dihydroxy-tetrahydrofuran-2-yl]methyl dihydrogen phosphate
@<TRIPOS>ATOM
      1 C1          1.2914   -0.7010   -0.0140 C.2       1 <0>         0.0382
      2 C2          0.0021   -0.0041    0.0020 C.2       1 <0>         0.5248
      3 O1         -1.0390   -0.6345    0.0082 O.2       1 <0>        -0.4920
      4 N1         -0.0162    1.3449    0.0094 N.am      1 <0>        -0.6550
      5 H1         -0.8629    1.8182    0.0160 H         1 <0>         0.4332
      6 C3          1.1400    2.0344    0.0021 C.2       1 <0>         0.6888
      7 O2          1.1123    3.2500    0.0085 O.2       1 <0>        -0.5213
      8 N2          2.3252    1.3990   -0.0126 N.am      1 <0>        -0.4285
      9 N3          2.3906    0.0007   -0.0207 N.2       1 <0>        -0.1537
     10 C4          3.5643    2.1806   -0.0197 C.3       1 <0>         0.3248
     11 H2          3.3626    3.2130    0.2660 H         1 <0>         0.1364
     12 C5          4.6036    1.5497    0.9333 C.3       1 <0>         0.0396
     13 H3          4.3987    0.4883    1.0732 H         1 <0>         0.0961
     14 C6          5.9513    1.7495    0.2046 C.3       1 <0>         0.0466
     15 H4          6.4126    0.7869   -0.0159 H         1 <0>         0.0917
     16 C7          5.5668    2.4775   -1.1026 C.3       1 <0>         0.0885
     17 H5          5.6740    3.5555   -0.9822 H         1 <0>         0.0957
     18 O3          4.1823    2.1315   -1.3242 O.3       1 <0>        -0.3354
     19 C8          6.4321    1.9813   -2.2628 C.3       1 <0>         0.1410
     20 O4          6.0903    2.6966   -3.4517 O.3       1 <0>        -0.7515
     21 P1          6.8046    2.4322   -4.8701 P.3       1 <0>         2.1323
     22 O5          6.6951    0.9978   -5.2178 O.2       1 <0>        -1.1641
     23 O6          6.8295    2.5592    0.9890 O.3       1 <0>        -0.5337
     24 O7          4.6083    2.2299    2.1901 O.3       1 <0>        -0.5427
     25 H6          1.3306   -1.7802   -0.0205 H         1 <0>         0.2250
     26 H7          7.4836    2.1472   -2.0287 H         1 <0>         0.0583
     27 H8          6.2576    0.9164   -2.4166 H         1 <0>         0.0450
     28 H9          7.1028    2.1503    1.8215 H         1 <0>         0.3707
     29 H10         5.2430    1.8746    2.8272 H         1 <0>         0.3790
     30 O8          6.0846    3.3164   -6.0067 O.3       1 <0>        -1.1783
     31 O9          8.3581    2.8440   -4.7737 O.3       1 <0>        -1.1994
@<TRIPOS>BOND
     1    1    9 2
     2    1    2 1
     3    1   25 1
     4    2    3 2
     5    2    4 am
     6    4    5 1
     7    4    6 am
     8    6    7 2
     9    6    8 am
    10    8    9 1
    11    8   10 1
    12   10   11 1
    13   10   18 1
    14   10   12 1
    15   12   13 1
    16   12   14 1
    17   12   24 1
    18   14   15 1
    19   14   16 1
    20   14   23 1
    21   16   17 1
    22   16   18 1
    23   16   19 1
    24   19   20 1
    25   19   26 1
    26   19   27 1
    27   20   21 1
    28   21   22 2
    29   21   30 1
    30   21   31 1
    31   23   28 1
    32   24   29 1
