@<TRIPOS>MOLECULE
ZINC03807804
   42    45     0     0     0
SMALL
USER_CHARGES

@<TRIPOS>ATOM
      1 C1         -0.1404    1.0961   -0.4391 C.ar      1 <0>        -0.1020
      2 C2          0.9979    1.8788   -0.4898 C.ar      1 <0>        -0.1176
      3 C3          2.2443    1.2953   -0.3597 C.ar      1 <0>        -0.1015
      4 C4          2.3524   -0.0709   -0.1784 C.ar      1 <0>        -0.0957
      5 C5          1.2140   -0.8534   -0.1268 C.ar      1 <0>        -0.0879
      6 C6         -0.0323   -0.2701   -0.2583 C.ar      1 <0>        -0.1206
      7 C7          3.7112   -0.7071   -0.0376 C.3       1 <0>         0.3033
      8 C8          3.5548   -2.1991    0.1055 C.ar      1 <0>        -0.0980
      9 C9          4.1018   -3.0454   -0.8408 C.ar      1 <0>        -0.0924
     10 C10         3.9584   -4.4140   -0.7096 C.ar      1 <0>        -0.1192
     11 C11         3.2684   -4.9364    0.3683 C.ar      1 <0>        -0.1040
     12 C12         2.7222   -4.0902    1.3152 C.ar      1 <0>        -0.1220
     13 C13         2.8693   -2.7218    1.1862 C.ar      1 <0>        -0.0909
     14 C14         4.5372   -0.4037   -1.2609 C.ar      1 <0>        -0.0899
     15 C15         5.7856    0.1744   -1.1262 C.ar      1 <0>        -0.0993
     16 C16         6.5434    0.4528   -2.2482 C.ar      1 <0>        -0.1105
     17 C17         6.0533    0.1533   -3.5058 C.ar      1 <0>        -0.0985
     18 C18         4.8053   -0.4246   -3.6418 C.ar      1 <0>        -0.1111
     19 C19         4.0487   -0.7087   -2.5187 C.ar      1 <0>        -0.0192
     20 Cl1         2.4837   -1.4408   -2.6883 Cl        1 <0>        -0.0484
     21 N1          4.3811   -0.1702    1.1495 N.pl3     1 <0>        -0.4460
     22 C20         5.5751   -0.5924    1.6690 C.2       1 <0>        -0.0513
     23 C21         5.8188    0.1680    2.7534 C.2       1 <0>        -0.0258
     24 N2          4.8014    1.0309    2.8923 N.2       1 <0>        -0.4890
     25 C22         3.9390    0.8376    1.9322 C.2       1 <0>         0.1875
     26 H1         -1.1143    1.5526   -0.5363 H         1 <0>         0.1257
     27 H2          0.9135    2.9461   -0.6315 H         1 <0>         0.1275
     28 H3          3.1337    1.9067   -0.4001 H         1 <0>         0.1221
     29 H4          1.2985   -1.9209    0.0142 H         1 <0>         0.1329
     30 H5         -0.9216   -0.8816   -0.2183 H         1 <0>         0.1255
     31 H6          4.6409   -2.6372   -1.6830 H         1 <0>         0.1253
     32 H7          4.3851   -5.0750   -1.4493 H         1 <0>         0.1258
     33 H8          3.1557   -6.0056    0.4705 H         1 <0>         0.1257
     34 H9          2.1828   -4.4983    2.1571 H         1 <0>         0.1266
     35 H10         2.4458   -2.0608    1.9279 H         1 <0>         0.1217
     36 H11         6.1689    0.4089   -0.1441 H         1 <0>         0.1411
     37 H12         7.5185    0.9047   -2.1424 H         1 <0>         0.1336
     38 H13         6.6456    0.3714   -4.3821 H         1 <0>         0.1361
     39 H14         4.4225   -0.6582   -4.6243 H         1 <0>         0.1382
     40 H15         6.2011   -1.3835    1.2836 H         1 <0>         0.1702
     41 H16         6.6821    0.0956    3.3983 H         1 <0>         0.1703
     42 H17         3.0222    1.3901    1.7888 H         1 <0>         0.2017
@<TRIPOS>BOND
     1    1    6 ar
     2    1    2 ar
     3    1   26 1
     4    2    3 ar
     5    2   27 1
     6    3    4 ar
     7    3   28 1
     8    4    5 ar
     9    4    7 1
    10    5    6 ar
    11    5   29 1
    12    6   30 1
    13    7    8 1
    14    7   14 1
    15    7   21 1
    16    8   13 ar
    17    8    9 ar
    18    9   10 ar
    19    9   31 1
    20   10   11 ar
    21   10   32 1
    22   11   12 ar
    23   11   33 1
    24   12   13 ar
    25   12   34 1
    26   13   35 1
    27   14   19 ar
    28   14   15 ar
    29   15   16 ar
    30   15   36 1
    31   16   17 ar
    32   16   37 1
    33   17   18 ar
    34   17   38 1
    35   18   19 ar
    36   18   39 1
    37   19   20 1
    38   21   25 1
    39   21   22 1
    40   22   23 2
    41   22   40 1
    42   23   24 1
    43   23   41 1
    44   24   25 2
    45   25   42 1
@<TRIPOS>MOLECULE
ZINC03807804
   43    46     0     0     0
SMALL
USER_CHARGES

@<TRIPOS>ATOM
      1 C1          0.5987    1.7832    1.4981 C.ar      1 <0>        -0.0892
      2 C2          0.3739    1.0091    0.3751 C.ar      1 <0>        -0.1131
      3 C3          1.3811    0.2033   -0.1220 C.ar      1 <0>        -0.1073
      4 C4          2.6134    0.1720    0.5037 C.ar      1 <0>        -0.1169
      5 C5          2.8385    0.9468    1.6262 C.ar      1 <0>        -0.0809
      6 C6          1.8308    1.7515    2.1240 C.ar      1 <0>        -0.1100
      7 C7          3.7112   -0.7071   -0.0376 C.3       1 <0>         0.3108
      8 C8          4.1045   -0.2308   -1.4122 C.ar      1 <0>        -0.1114
      9 C9          4.1390   -1.1216   -2.4687 C.ar      1 <0>        -0.1224
     10 C10         4.4997   -0.6846   -3.7296 C.ar      1 <0>        -0.1050
     11 C11         4.8255    0.6431   -3.9340 C.ar      1 <0>        -0.0966
     12 C12         4.7901    1.5341   -2.8777 C.ar      1 <0>        -0.1040
     13 C13         4.4252    1.0980   -1.6177 C.ar      1 <0>        -0.0870
     14 C14         4.9061   -0.6400    0.8783 C.ar      1 <0>        -0.1243
     15 C15         6.0946   -0.0984    0.4255 C.ar      1 <0>        -0.0806
     16 C16         7.1906   -0.0368    1.2654 C.ar      1 <0>        -0.1064
     17 C17         7.0990   -0.5167    2.5588 C.ar      1 <0>        -0.0779
     18 C18         5.9114   -1.0584    3.0126 C.ar      1 <0>        -0.1060
     19 C19         4.8121   -1.1151    2.1740 C.ar      1 <0>        -0.0235
     20 Cl1         3.3179   -1.7894    2.7455 Cl        1 <0>        -0.0546
     21 N1          3.2345   -2.0901   -0.1178 N.pl3     1 <0>        -0.3928
     22 C20         1.9543   -2.5219    0.1018 C.2       1 <0>         0.0325
     23 C21         1.9573   -3.8567   -0.0767 C.2       1 <0>         0.0033
     24 N2          3.2053   -4.2297   -0.3965 N.pl3     1 <0>        -0.4715
     25 C22         3.9747   -3.1761   -0.4280 C.cat     1 <0>         0.2859
     26 H1         -0.1868    2.4161    1.8838 H         1 <0>         0.1340
     27 H2         -0.5889    1.0335   -0.1137 H         1 <0>         0.1343
     28 H3          1.2053   -0.4020   -0.9989 H         1 <0>         0.1246
     29 H4          3.8010    0.9218    2.1154 H         1 <0>         0.1290
     30 H5          2.0066    2.3566    3.0012 H         1 <0>         0.1338
     31 H6          3.8845   -2.1589   -2.3090 H         1 <0>         0.1110
     32 H7          4.5274   -1.3807   -4.5549 H         1 <0>         0.1325
     33 H8          5.1080    0.9843   -4.9190 H         1 <0>         0.1349
     34 H9          5.0450    2.5713   -3.0374 H         1 <0>         0.1371
     35 H10         4.3939    1.7949   -0.7931 H         1 <0>         0.1317
     36 H11         6.1669    0.2763   -0.5848 H         1 <0>         0.1476
     37 H12         8.1191    0.3861    0.9110 H         1 <0>         0.1431
     38 H13         7.9558   -0.4686    3.2145 H         1 <0>         0.1451
     39 H14         5.8400   -1.4335    4.0228 H         1 <0>         0.1446
     40 H15         1.1050   -1.9099    0.3675 H         1 <0>         0.2211
     41 H16         1.1044   -4.5120    0.0207 H         1 <0>         0.2258
     42 H17         5.0293   -3.1735   -0.6609 H         1 <0>         0.2540
     43 H18         3.4903   -5.1387   -0.5793 H         1 <0>         0.4647
@<TRIPOS>BOND
     1    1    6 ar
     2    1    2 ar
     3    1   26 1
     4    2    3 ar
     5    2   27 1
     6    3    4 ar
     7    3   28 1
     8    4    5 ar
     9    4    7 1
    10    5    6 ar
    11    5   29 1
    12    6   30 1
    13    7    8 1
    14    7   14 1
    15    7   21 1
    16    8   13 ar
    17    8    9 ar
    18    9   10 ar
    19    9   31 1
    20   10   11 ar
    21   10   32 1
    22   11   12 ar
    23   11   33 1
    24   12   13 ar
    25   12   34 1
    26   13   35 1
    27   14   19 ar
    28   14   15 ar
    29   15   16 ar
    30   15   36 1
    31   16   17 ar
    32   16   37 1
    33   17   18 ar
    34   17   38 1
    35   18   19 ar
    36   18   39 1
    37   19   20 1
    38   21   25 1
    39   21   22 1
    40   22   23 2
    41   22   40 1
    42   23   24 1
    43   23   41 1
    44   24   25 2
    45   24   43 1
    46   25   42 1
@<TRIPOS>MOLECULE
ZINC03938482
   93    99     0     0     0
SMALL
USER_CHARGES
4-[4-[4-[4-[[5-(2,4-difluorophenyl)-5-(1,2,4-triazol-1-ylmethyl)tetrahydrofuran-3-yl]methoxy]phenyl]piperazin-1-yl]phenyl]-2-(1-ethyl-2-hydroxy-propyl)-1,2,4-triazol-3-one
@<TRIPOS>ATOM
      1 C1         -0.0399    0.9579    5.0017 C.3       1 <0>        -0.1503
      2 C2         -0.7050    1.5658    3.7651 C.3       1 <0>        -0.1292
      3 C3          0.0111    1.0724    2.5063 C.3       1 <0>         0.1526
      4 H1          0.0259   -0.0175    2.5003 H         1 <0>         0.1159
      5 C4         -0.7288    1.5792    1.2668 C.3       1 <0>         0.0957
      6 H2         -1.7514    1.2020    1.2746 H         1 <0>         0.1179
      7 C5         -0.0127    1.0858    0.0080 C.3       1 <0>        -0.1850
      8 O1         -0.7482    3.0081    1.2747 O.3       1 <0>        -0.5547
      9 N1          1.3856    1.5795    2.4959 N.am      1 <0>        -0.4403
     10 C6          2.5119    0.8364    2.4866 C.2       1 <0>         0.6479
     11 O2          2.5731   -0.3802    2.4859 O.2       1 <0>        -0.5385
     12 N2          3.5569    1.6881    2.4755 N.am      1 <0>        -0.4966
     13 C7          3.0673    2.9728    2.4877 C.2       1 <0>         0.2579
     14 N3          1.7739    2.9262    2.5000 N.2       1 <0>        -0.2747
     15 C8          4.9128    1.3253    2.4610 C.ar      1 <0>         0.1235
     16 C9          5.2724   -0.0155    2.4559 C.ar      1 <0>        -0.1040
     17 C10         6.6058   -0.3727    2.4359 C.ar      1 <0>        -0.1425
     18 C11         7.5877    0.6096    2.4328 C.ar      1 <0>         0.1058
     19 C12         7.2276    1.9511    2.4436 C.ar      1 <0>        -0.1131
     20 C13         5.8939    2.3075    2.4574 C.ar      1 <0>        -0.1113
     21 N4          8.9386    0.2482    2.4183 N.pl3     1 <0>        -0.4887
     22 C14         9.6341    0.8557    1.2751 C.3       1 <0>         0.0578
     23 C15        11.1218    0.5018    1.3397 C.3       1 <0>         0.0573
     24 N5         11.2758   -0.9596    1.3301 N.pl3     1 <0>        -0.4879
     25 C16        10.5803   -1.5671    2.4733 C.3       1 <0>         0.0517
     26 C17         9.0927   -1.2132    2.4087 C.3       1 <0>         0.0495
     27 C18        12.6276   -1.3213    1.3157 C.ar      1 <0>         0.0753
     28 C19        13.1362   -2.1479    2.3087 C.ar      1 <0>        -0.1282
     29 C20        14.4692   -2.5090    2.2904 C.ar      1 <0>        -0.1813
     30 C21        15.3023   -2.0366    1.2872 C.ar      1 <0>         0.1070
     31 C22        14.7963   -1.2066    0.2979 C.ar      1 <0>        -0.1239
     32 C23        13.4623   -0.8491    0.3114 C.ar      1 <0>        -0.0970
     33 O3         16.6162   -2.3878    1.2733 O.3       1 <0>        -0.3131
     34 C24        17.0696   -3.2452    2.3227 C.3       1 <0>         0.0706
     35 C25        18.5622   -3.5283    2.1410 C.3       1 <0>        -0.1186
     36 H3         19.1200   -2.6000    2.0176 H         1 <0>         0.1034
     37 C26        19.1168   -4.3523    3.3284 C.3       1 <0>        -0.1343
     38 C27        20.0616   -5.3758    2.6693 C.3       1 <0>         0.1476
     39 O4         20.0664   -5.1055    1.2575 O.3       1 <0>        -0.3316
     40 C28        18.8024   -4.4823    0.9433 C.3       1 <0>         0.0526
     41 C29        19.5513   -6.7953    2.9255 C.3       1 <0>         0.1156
     42 N6         20.5166   -7.7636    2.3993 N.pl3     1 <0>        -0.3724
     43 C30        21.1044   -8.7648    3.0769 C.2       1 <0>         0.2485
     44 N7         21.8967   -9.4020    2.2535 N.2       1 <0>        -0.5420
     45 C31        21.8477   -8.8343    1.0490 C.2       1 <0>         0.1892
     46 N8         21.0162   -7.8266    1.0882 N.2       1 <0>        -0.2877
     47 C32        21.4528   -5.2229    3.2281 C.ar      1 <0>        -0.1293
     48 C33        22.5048   -4.9115    2.3871 C.ar      1 <0>        -0.0265
     49 C34        23.7808   -4.7701    2.8983 C.ar      1 <0>        -0.1621
     50 C35        24.0072   -4.9408    4.2539 C.ar      1 <0>         0.1367
     51 C36        22.9548   -5.2530    5.0967 C.ar      1 <0>        -0.1906
     52 C37        21.6758   -5.3888    4.5844 C.ar      1 <0>         0.1321
     53 F1         20.6466   -5.6881    5.4068 F         1 <0>        -0.1290
     54 F2         25.2549   -4.8030    4.7533 F         1 <0>        -0.1275
     55 H4         -0.5501    1.3094    5.8985 H         1 <0>         0.0608
     56 H5         -0.1025   -0.1291    4.9505 H         1 <0>         0.0557
     57 H6          1.0067    1.2603    5.0370 H         1 <0>         0.0462
     58 H7         -0.6424    2.6528    3.8163 H         1 <0>         0.0844
     59 H8         -1.7516    1.2634    3.7299 H         1 <0>         0.0845
     60 H9          0.0021   -0.0041    0.0020 H         1 <0>         0.0685
     61 H10         1.0099    1.4631    0.0003 H         1 <0>         0.0513
     62 H11        -0.5399    1.4469   -0.8751 H         1 <0>         0.0705
     63 H12         0.1297    3.4134    1.2685 H         1 <0>         0.3807
     64 H13         3.6639    3.8731    2.4871 H         1 <0>         0.2346
     65 H14         4.5088   -0.7793    2.4631 H         1 <0>         0.1559
     66 H15         6.8854   -1.4159    2.4275 H         1 <0>         0.1360
     67 H16         7.9908    2.7152    2.4415 H         1 <0>         0.1361
     68 H17         5.6138    3.3505    2.4658 H         1 <0>         0.1335
     69 H18         9.2096    0.4741    0.3465 H         1 <0>         0.0573
     70 H19         9.5160    1.9387    1.3113 H         1 <0>         0.0924
     71 H20        11.5525    0.9069    2.2554 H         1 <0>         0.0554
     72 H21        11.6346    0.9272    0.4771 H         1 <0>         0.0918
     73 H22        11.0049   -1.1856    3.4019 H         1 <0>         0.0572
     74 H23        10.6984   -2.6501    2.4371 H         1 <0>         0.0917
     75 H24         8.5799   -1.6386    3.2713 H         1 <0>         0.0929
     76 H25         8.6620   -1.6183    1.4930 H         1 <0>         0.0599
     77 H26        12.4888   -2.5117    3.0929 H         1 <0>         0.1297
     78 H27        14.8640   -3.1556    3.0602 H         1 <0>         0.1271
     79 H28        15.4457   -0.8395   -0.4831 H         1 <0>         0.1339
     80 H29        13.0686   -0.2023   -0.4586 H         1 <0>         0.1326
     81 H30        16.9064   -2.7596    3.2848 H         1 <0>         0.0681
     82 H31        16.5154   -4.1833    2.2905 H         1 <0>         0.0658
     83 H32        19.6691   -3.7096    4.0140 H         1 <0>         0.0928
     84 H33        18.3066   -4.8600    3.8519 H         1 <0>         0.0902
     85 H34        18.0108   -5.2291    0.8827 H         1 <0>         0.0647
     86 H35        18.8728   -3.9196    0.0125 H         1 <0>         0.1062
     87 H36        19.4296   -6.9496    3.9977 H         1 <0>         0.1141
     88 H37        18.5914   -6.9317    2.4275 H         1 <0>         0.0988
     89 H38        20.9481   -9.0031    4.1186 H         1 <0>         0.2126
     90 H39        22.4053   -9.1545    0.1812 H         1 <0>         0.2145
     91 H40        22.3292   -4.7783    1.3299 H         1 <0>         0.1536
     92 H41        24.6019   -4.5261    2.2405 H         1 <0>         0.1457
     93 H42        23.1304   -5.3863    6.1540 H         1 <0>         0.1521
@<TRIPOS>BOND
     1    1    2 1
     2    1   55 1
     3    1   56 1
     4    1   57 1
     5    2    3 1
     6    2   58 1
     7    2   59 1
     8    3    4 1
     9    3    5 1
    10    3    9 1
    11    5    6 1
    12    5    7 1
    13    5    8 1
    14    7   60 1
    15    7   61 1
    16    7   62 1
    17    8   63 1
    18    9   14 1
    19    9   10 am
    20   10   11 2
    21   10   12 am
    22   12   13 1
    23   12   15 1
    24   13   14 2
    25   13   64 1
    26   15   20 ar
    27   15   16 ar
    28   16   17 ar
    29   16   65 1
    30   17   18 ar
    31   17   66 1
    32   18   19 ar
    33   18   21 1
    34   19   20 ar
    35   19   67 1
    36   20   68 1
    37   21   26 1
    38   21   22 1
    39   22   23 1
    40   22   69 1
    41   22   70 1
    42   23   24 1
    43   23   71 1
    44   23   72 1
    45   24   25 1
    46   24   27 1
    47   25   26 1
    48   25   73 1
    49   25   74 1
    50   26   75 1
    51   26   76 1
    52   27   32 ar
    53   27   28 ar
    54   28   29 ar
    55   28   77 1
    56   29   30 ar
    57   29   78 1
    58   30   31 ar
    59   30   33 1
    60   31   32 ar
    61   31   79 1
    62   32   80 1
    63   33   34 1
    64   34   35 1
    65   34   81 1
    66   34   82 1
    67   35   36 1
    68   35   40 1
    69   35   37 1
    70   37   38 1
    71   37   83 1
    72   37   84 1
    73   38   39 1
    74   38   41 1
    75   38   47 1
    76   39   40 1
    77   40   85 1
    78   40   86 1
    79   41   42 1
    80   41   87 1
    81   41   88 1
    82   42   46 1
    83   42   43 1
    84   43   44 2
    85   43   89 1
    86   44   45 1
    87   45   46 2
    88   45   90 1
    89   47   52 ar
    90   47   48 ar
    91   48   49 ar
    92   48   91 1
    93   49   50 ar
    94   49   92 1
    95   50   51 ar
    96   50   54 1
    97   51   52 ar
    98   51   93 1
    99   52   53 1
@<TRIPOS>MOLECULE
ZINC04097343
   87    93     0     0     0
SMALL
USER_CHARGES
4-[4-[4-[4-[[2-(2,4-dichlorophenyl)-2-(1,2,4-triazol-1-ylmethyl)-1,3-dioxolan-4-yl]methoxy]phenyl]piperazin-1-yl]phenyl]-2-sec-butyl-1,2,4-triazol-3-one
@<TRIPOS>ATOM
      1 C1          4.1679   -0.8173    1.3405 C.3       1 <0>        -0.1508
      2 C2          3.6502   -0.4775    2.7396 C.3       1 <0>        -0.1337
      3 C3          3.4116    1.0303    2.8428 C.3       1 <0>         0.1820
      4 H1          2.7428    1.3479    2.0429 H         1 <0>         0.1085
      5 C4          2.7775    1.3548    4.1969 C.3       1 <0>        -0.1628
      6 N1          4.6894    1.7364    2.7202 N.am      1 <0>        -0.4408
      7 C5          5.0145    2.6429    1.7751 C.2       1 <0>         0.6462
      8 O1          4.2993    3.0247    0.8658 O.2       1 <0>        -0.5423
      9 N2          6.2765    3.0479    2.0217 N.am      1 <0>        -0.4985
     10 C6          6.7345    2.3815    3.1338 C.2       1 <0>         0.2486
     11 N3          5.7983    1.5997    3.5666 N.2       1 <0>        -0.2636
     12 C7          6.9992    3.9887    1.2716 C.ar      1 <0>         0.1258
     13 C8          6.4173    4.5863    0.1618 C.ar      1 <0>        -0.1052
     14 C9          7.1260    5.5153   -0.5734 C.ar      1 <0>        -0.1421
     15 C10         8.4255    5.8439   -0.2091 C.ar      1 <0>         0.1042
     16 C11         9.0093    5.2419    0.8981 C.ar      1 <0>        -0.1131
     17 C12         8.2978    4.3172    1.6362 C.ar      1 <0>        -0.1125
     18 N4          9.1457    6.7809   -0.9568 N.pl3     1 <0>        -0.4886
     19 C13         9.6162    7.8835   -0.1068 C.3       1 <0>         0.0577
     20 C14        10.4646    8.8435   -0.9441 C.3       1 <0>         0.0575
     21 N5          9.6619    9.3521   -2.0651 N.pl3     1 <0>        -0.4877
     22 C15         9.1914    8.2495   -2.9151 C.3       1 <0>         0.0520
     23 C16         8.3430    7.2896   -2.0778 C.3       1 <0>         0.0495
     24 C17        10.3826   10.2897   -2.8132 C.ar      1 <0>         0.0746
     25 C18        10.5706   10.0953   -4.1752 C.ar      1 <0>        -0.1279
     26 C19        11.2763   11.0246   -4.9141 C.ar      1 <0>        -0.1826
     27 C20        11.8081   12.1453   -4.2936 C.ar      1 <0>         0.1102
     28 C21        11.6261   12.3371   -2.9320 C.ar      1 <0>        -0.1222
     29 C22        10.9150   11.4122   -2.1929 C.ar      1 <0>        -0.0964
     30 O2         12.5081   13.0568   -5.0208 O.3       1 <0>        -0.3024
     31 C23        12.6569   12.7960   -6.4179 C.3       1 <0>         0.0672
     32 C24        13.4667   13.9221   -7.0635 C.3       1 <0>         0.0499
     33 H2         14.4328   14.0314   -6.5707 H         1 <0>         0.1021
     34 C25        13.6476   13.6660   -8.5806 C.3       1 <0>         0.0203
     35 O3         13.8205   15.0112   -9.0874 O.3       1 <0>        -0.3411
     36 C26        12.9489   15.8223   -8.2819 C.3       1 <0>         0.2961
     37 O4         12.7329   15.1628   -7.0274 O.3       1 <0>        -0.3275
     38 C27        11.6115   16.0102   -9.0009 C.3       1 <0>         0.1126
     39 N6         10.7492   16.8886   -8.2065 N.pl3     1 <0>        -0.3731
     40 C28        10.1882   18.0430   -8.6061 C.2       1 <0>         0.2537
     41 N7          9.4922   18.5231   -7.6077 N.2       1 <0>        -0.5393
     42 C29         9.5844   17.7068   -6.5586 C.2       1 <0>         0.1918
     43 N8         10.3394   16.6888   -6.8781 N.2       1 <0>        -0.2861
     44 C30        13.5856   17.1673   -8.0439 C.ar      1 <0>        -0.0962
     45 C31        13.7073   17.6562   -6.7565 C.ar      1 <0>        -0.0530
     46 C32        14.2915   18.8893   -6.5374 C.ar      1 <0>        -0.1081
     47 C33        14.7549   19.6355   -7.6066 C.ar      1 <0>        -0.0114
     48 C34        14.6335   19.1469   -8.8948 C.ar      1 <0>        -0.1076
     49 C35        14.0533   17.9100   -9.1131 C.ar      1 <0>        -0.0044
     50 Cl1        13.9064   17.2930  -10.7291 Cl        1 <0>        -0.0409
     51 Cl2        15.4882   21.1848   -7.3312 Cl        1 <0>        -0.0494
     52 H3          4.3378   -1.8915    1.2670 H         1 <0>         0.0597
     53 H4          5.1038   -0.2882    1.1609 H         1 <0>         0.0469
     54 H5          3.4308   -0.5143    0.5969 H         1 <0>         0.0565
     55 H6          2.7143   -1.0065    2.9191 H         1 <0>         0.0841
     56 H7          4.3873   -0.7805    3.4832 H         1 <0>         0.0777
     57 H8          3.4463    1.0371    4.9968 H         1 <0>         0.0707
     58 H9          2.6075    2.4289    4.2704 H         1 <0>         0.0599
     59 H10         1.8268    0.8294    4.2881 H         1 <0>         0.0781
     60 H11         7.7130    2.4956    3.5764 H         1 <0>         0.2324
     61 H12         5.4086    4.3272   -0.1242 H         1 <0>         0.1559
     62 H13         6.6717    5.9834   -1.4341 H         1 <0>         0.1357
     63 H14        10.0198    5.4969    1.1814 H         1 <0>         0.1356
     64 H15         8.7517    3.8491    2.4972 H         1 <0>         0.1331
     65 H16         8.7592    8.4183    0.3026 H         1 <0>         0.0571
     66 H17        10.2184    7.4827    0.7086 H         1 <0>         0.0921
     67 H18        11.3362    8.3154   -1.3311 H         1 <0>         0.0550
     68 H19        10.7907    9.6773   -0.3225 H         1 <0>         0.0916
     69 H20        10.0485    7.7147   -3.3245 H         1 <0>         0.0569
     70 H21         8.5892    8.6503   -3.7304 H         1 <0>         0.0914
     71 H22         8.0169    6.4557   -2.6994 H         1 <0>         0.0927
     72 H23         7.4713    7.8173   -1.6908 H         1 <0>         0.0598
     73 H24        10.1610    9.2201   -4.6575 H         1 <0>         0.1292
     74 H25        11.4182   10.8761   -5.9744 H         1 <0>         0.1257
     75 H26        12.0402   13.2102   -2.4498 H         1 <0>         0.1336
     76 H27        10.7727   11.5621   -1.1329 H         1 <0>         0.1323
     77 H28        13.1771   11.8483   -6.5572 H         1 <0>         0.0798
     78 H29        11.6731   12.7424   -6.8842 H         1 <0>         0.0724
     79 H30        14.5336   13.0603   -8.7711 H         1 <0>         0.1236
     80 H31        12.7591   13.1998   -9.0063 H         1 <0>         0.0848
     81 H32        11.7847   16.4589   -9.9790 H         1 <0>         0.1221
     82 H33        11.1271   15.0418   -9.1260 H         1 <0>         0.1004
     83 H34        10.2941   18.4955   -9.5809 H         1 <0>         0.2133
     84 H35         9.1088   17.8594   -5.6010 H         1 <0>         0.2149
     85 H36        13.3454   17.0743   -5.9217 H         1 <0>         0.1524
     86 H37        14.3866   19.2706   -5.5314 H         1 <0>         0.1442
     87 H38        14.9947   19.7291   -9.7297 H         1 <0>         0.1490
@<TRIPOS>BOND
     1    1    2 1
     2    1   52 1
     3    1   53 1
     4    1   54 1
     5    2    3 1
     6    2   55 1
     7    2   56 1
     8    3    4 1
     9    3    5 1
    10    3    6 1
    11    5   57 1
    12    5   58 1
    13    5   59 1
    14    6   11 1
    15    6    7 am
    16    7    8 2
    17    7    9 am
    18    9   10 1
    19    9   12 1
    20   10   11 2
    21   10   60 1
    22   12   17 ar
    23   12   13 ar
    24   13   14 ar
    25   13   61 1
    26   14   15 ar
    27   14   62 1
    28   15   16 ar
    29   15   18 1
    30   16   17 ar
    31   16   63 1
    32   17   64 1
    33   18   23 1
    34   18   19 1
    35   19   20 1
    36   19   65 1
    37   19   66 1
    38   20   21 1
    39   20   67 1
    40   20   68 1
    41   21   22 1
    42   21   24 1
    43   22   23 1
    44   22   69 1
    45   22   70 1
    46   23   71 1
    47   23   72 1
    48   24   29 ar
    49   24   25 ar
    50   25   26 ar
    51   25   73 1
    52   26   27 ar
    53   26   74 1
    54   27   28 ar
    55   27   30 1
    56   28   29 ar
    57   28   75 1
    58   29   76 1
    59   30   31 1
    60   31   32 1
    61   31   77 1
    62   31   78 1
    63   32   33 1
    64   32   37 1
    65   32   34 1
    66   34   35 1
    67   34   79 1
    68   34   80 1
    69   35   36 1
    70   36   37 1
    71   36   38 1
    72   36   44 1
    73   38   39 1
    74   38   81 1
    75   38   82 1
    76   39   43 1
    77   39   40 1
    78   40   41 2
    79   40   83 1
    80   41   42 1
    81   42   43 2
    82   42   84 1
    83   44   49 ar
    84   44   45 ar
    85   45   46 ar
    86   45   85 1
    87   46   47 ar
    88   46   86 1
    89   47   48 ar
    90   47   51 1
    91   48   49 ar
    92   48   87 1
    93   49   50 1
@<TRIPOS>MOLECULE
ZINC04097344
   87    93     0     0     0
SMALL
USER_CHARGES
4-[4-[4-[4-[[2-(2,4-dichlorophenyl)-2-(1,2,4-triazol-1-ylmethyl)-1,3-dioxolan-4-yl]methoxy]phenyl]piperazin-1-yl]phenyl]-2-sec-butyl-1,2,4-triazol-3-one
@<TRIPOS>ATOM
      1 C1         -2.1330    0.0091    0.1658 C.3       1 <0>        -0.1507
      2 C2         -2.8145   -0.2535   -1.1786 C.3       1 <0>        -0.1337
      3 C3         -1.8280    0.0273   -2.3139 C.3       1 <0>         0.1820
      4 H1         -1.4386    1.0405   -2.2146 H         1 <0>         0.1085
      5 C4         -2.5441   -0.1144   -3.6585 C.3       1 <0>        -0.1628
      6 N1         -0.7211   -0.9300   -2.2469 N.am      1 <0>        -0.4408
      7 C5          0.5853   -0.6319   -2.0878 C.2       1 <0>         0.6462
      8 O1          1.0615    0.4833   -1.9723 O.2       1 <0>        -0.5422
      9 N2          1.2665   -1.7953   -2.0796 N.am      1 <0>        -0.4985
     10 C6          0.3672   -2.8235   -2.2359 C.2       1 <0>         0.2486
     11 N3         -0.8224   -2.3248   -2.3420 N.2       1 <0>        -0.2637
     12 C7          2.6560   -1.9332   -1.9366 C.ar      1 <0>         0.1258
     13 C8          3.4540   -0.8064   -1.7921 C.ar      1 <0>        -0.1052
     14 C9          4.8201   -0.9420   -1.6465 C.ar      1 <0>        -0.1421
     15 C10         5.3974   -2.2053   -1.6553 C.ar      1 <0>         0.1042
     16 C11         4.5992   -3.3321   -1.8052 C.ar      1 <0>        -0.1131
     17 C12         3.2325   -3.1960   -1.9454 C.ar      1 <0>        -0.1125
     18 N4          6.7818   -2.3427   -1.5127 N.pl3     1 <0>        -0.4886
     19 C13         7.1102   -3.2163   -0.3776 C.3       1 <0>         0.0577
     20 C14         8.6273   -3.4046   -0.3044 C.3       1 <0>         0.0575
     21 N5          9.2747   -2.0932   -0.1605 N.pl3     1 <0>        -0.4877
     22 C15         8.9463   -1.2195   -1.2957 C.3       1 <0>         0.0520
     23 C16         7.4292   -1.0313   -1.3688 C.3       1 <0>         0.0495
     24 C17        10.6600   -2.2307   -0.0179 C.ar      1 <0>         0.0746
     25 C18        11.5167   -1.5832   -0.8983 C.ar      1 <0>        -0.1279
     26 C19        12.8838   -1.7142   -0.7528 C.ar      1 <0>        -0.1826
     27 C20        13.4010   -2.5023    0.2646 C.ar      1 <0>         0.1102
     28 C21        12.5459   -3.1543    1.1407 C.ar      1 <0>        -0.1223
     29 C22        11.1786   -3.0192    1.0007 C.ar      1 <0>        -0.0964
     30 O2         14.7473   -2.6356    0.4035 O.3       1 <0>        -0.3023
     31 C23        15.5686   -1.9362   -0.5337 C.3       1 <0>         0.0672
     32 C24        17.0420   -2.2049   -0.2208 C.3       1 <0>         0.0498
     33 H2         17.2469   -3.2755   -0.2284 H         1 <0>         0.1021
     34 C25        17.9591   -1.4610   -1.2235 C.3       1 <0>         0.0203
     35 O3         19.1698   -1.2948   -0.4471 O.3       1 <0>        -0.3411
     36 C26        18.7156   -1.0584    0.8961 C.3       1 <0>         0.2960
     37 O4         17.4074   -1.6251    1.0478 O.3       1 <0>        -0.3275
     38 C27        18.6574    0.4473    1.1616 C.3       1 <0>         0.1125
     39 N6         18.2548    0.6832    2.5503 N.pl3     1 <0>        -0.3730
     40 C28        18.9336    1.3789    3.4789 C.2       1 <0>         0.2537
     41 N7         18.2409    1.3579    4.5886 N.2       1 <0>        -0.5393
     42 C29        17.1193    0.6617    4.4082 C.2       1 <0>         0.1919
     43 N8         17.0800    0.2326    3.1742 N.2       1 <0>        -0.2861
     44 C30        19.6639   -1.7052    1.8725 C.ar      1 <0>        -0.0962
     45 C31        19.1780   -2.5575    2.8465 C.ar      1 <0>        -0.0530
     46 C32        20.0471   -3.1514    3.7420 C.ar      1 <0>        -0.1081
     47 C33        21.4044   -2.8932    3.6641 C.ar      1 <0>        -0.0114
     48 C34        21.8911   -2.0406    2.6899 C.ar      1 <0>        -0.1076
     49 C35        21.0211   -1.4504    1.7904 C.ar      1 <0>        -0.0044
     50 Cl1        21.6319   -0.3853    0.5632 Cl        1 <0>        -0.0408
     51 Cl2        22.4959   -3.6389    4.7894 Cl        1 <0>        -0.0493
     52 H3         -2.8358   -0.1909    0.9746 H         1 <0>         0.0598
     53 H4         -1.2664   -0.6441    0.2676 H         1 <0>         0.0468
     54 H5         -1.8113    1.0495    0.2130 H         1 <0>         0.0565
     55 H6         -3.6811    0.3997   -1.2804 H         1 <0>         0.0841
     56 H7         -3.1362   -1.2939   -1.2258 H         1 <0>         0.0777
     57 H8         -3.3677    0.5979   -3.7084 H         1 <0>         0.0781
     58 H9         -1.8413    0.0856   -4.4673 H         1 <0>         0.0599
     59 H10        -2.9335   -1.1276   -3.7578 H         1 <0>         0.0707
     60 H11         0.6135   -3.8745   -2.2692 H         1 <0>         0.2324
     61 H12         3.0055    0.1760   -1.7894 H         1 <0>         0.1559
     62 H13         5.4404   -0.0656   -1.5300 H         1 <0>         0.1357
     63 H14         5.0477   -4.3145   -1.8124 H         1 <0>         0.1356
     64 H15         2.6119   -4.0721   -2.0623 H         1 <0>         0.1331
     65 H16         6.7553   -2.7604    0.5467 H         1 <0>         0.0571
     66 H17         6.6297   -4.1852   -0.5134 H         1 <0>         0.0921
     67 H18         8.9786   -3.8853   -1.2175 H         1 <0>         0.0550
     68 H19         8.8753   -4.0287    0.5541 H         1 <0>         0.0916
     69 H20         9.3011   -1.6754   -2.2200 H         1 <0>         0.0569
     70 H21         9.4268   -0.2507   -1.1598 H         1 <0>         0.0914
     71 H22         7.1812   -0.4071   -2.2273 H         1 <0>         0.0926
     72 H23         7.0776   -0.5504   -0.4560 H         1 <0>         0.0598
     73 H24        11.1140   -0.9737   -1.6938 H         1 <0>         0.1292
     74 H25        13.5504   -1.2065   -1.4343 H         1 <0>         0.1257
     75 H26        12.9495   -3.7676    1.9328 H         1 <0>         0.1336
     76 H27        10.5130   -3.5264    1.6834 H         1 <0>         0.1323
     77 H28        15.3427   -2.2809   -1.5428 H         1 <0>         0.0798
     78 H29        15.3713   -0.8666   -0.4624 H         1 <0>         0.0724
     79 H30        18.1437   -2.0694   -2.1088 H         1 <0>         0.1236
     80 H31        17.5353   -0.4948   -1.4972 H         1 <0>         0.0848
     81 H32        19.6407    0.8849    0.9891 H         1 <0>         0.1221
     82 H33        17.9323    0.9069    0.4900 H         1 <0>         0.1004
     83 H34        19.8850    1.8691    3.3343 H         1 <0>         0.2134
     84 H35        16.3631    0.4844    5.1587 H         1 <0>         0.2149
     85 H36        18.1187   -2.7590    2.9078 H         1 <0>         0.1524
     86 H37        19.6669   -3.8174    4.5024 H         1 <0>         0.1442
     87 H38        22.9503   -1.8385    2.6291 H         1 <0>         0.1490
@<TRIPOS>BOND
     1    1    2 1
     2    1   52 1
     3    1   53 1
     4    1   54 1
     5    2    3 1
     6    2   55 1
     7    2   56 1
     8    3    4 1
     9    3    5 1
    10    3    6 1
    11    5   57 1
    12    5   58 1
    13    5   59 1
    14    6   11 1
    15    6    7 am
    16    7    8 2
    17    7    9 am
    18    9   10 1
    19    9   12 1
    20   10   11 2
    21   10   60 1
    22   12   17 ar
    23   12   13 ar
    24   13   14 ar
    25   13   61 1
    26   14   15 ar
    27   14   62 1
    28   15   16 ar
    29   15   18 1
    30   16   17 ar
    31   16   63 1
    32   17   64 1
    33   18   23 1
    34   18   19 1
    35   19   20 1
    36   19   65 1
    37   19   66 1
    38   20   21 1
    39   20   67 1
    40   20   68 1
    41   21   22 1
    42   21   24 1
    43   22   23 1
    44   22   69 1
    45   22   70 1
    46   23   71 1
    47   23   72 1
    48   24   29 ar
    49   24   25 ar
    50   25   26 ar
    51   25   73 1
    52   26   27 ar
    53   26   74 1
    54   27   28 ar
    55   27   30 1
    56   28   29 ar
    57   28   75 1
    58   29   76 1
    59   30   31 1
    60   31   32 1
    61   31   77 1
    62   31   78 1
    63   32   33 1
    64   32   37 1
    65   32   34 1
    66   34   35 1
    67   34   79 1
    68   34   80 1
    69   35   36 1
    70   36   37 1
    71   36   38 1
    72   36   44 1
    73   38   39 1
    74   38   81 1
    75   38   82 1
    76   39   43 1
    77   39   40 1
    78   40   41 2
    79   40   83 1
    80   41   42 1
    81   42   43 2
    82   42   84 1
    83   44   49 ar
    84   44   45 ar
    85   45   46 ar
    86   45   85 1
    87   46   47 ar
    88   46   86 1
    89   47   48 ar
    90   47   51 1
    91   48   49 ar
    92   48   87 1
    93   49   50 1
@<TRIPOS>MOLECULE
ZINC00014864
   39    41     0     0     0
SMALL
USER_CHARGES

@<TRIPOS>ATOM
      1 C1         -0.0187    1.5258    0.0104 C.3       1 <0>        -0.1440
      2 C2          0.0021   -0.0041    0.0020 C.3       1 <0>        -0.0761
      3 H1          0.5123   -0.3556   -0.8948 H         1 <0>         0.1112
      4 C3          0.7309   -0.5033    1.2229 C.ar      1 <0>         0.1565
      5 C4          1.8734   -1.2812    1.0916 C.ar      1 <0>        -0.0068
      6 C5          2.5099   -1.7174    2.2454 C.ar      1 <0>         0.1287
      7 N1          2.0095   -1.3793    3.4229 N.ar      1 <0>        -0.4933
      8 C6          0.9227   -0.6391    3.5077 C.ar      1 <0>         0.2907
      9 N2          0.2942   -0.2019    2.4349 N.ar      1 <0>        -0.4631
     10 F1          2.3534   -1.6060   -0.1288 F         1 <0>        -0.1158
     11 C7         -1.4333   -0.5336    0.0129 C.3       1 <0>         0.1916
     12 C8         -1.4126   -2.0635    0.0045 C.3       1 <0>         0.1429
     13 N3         -2.7829   -2.5699   -0.1056 N.pl3     1 <0>        -0.3716
     14 C9         -3.2537   -3.4259   -1.0289 C.2       1 <0>         0.2466
     15 N4         -4.5228   -3.6291   -0.7843 N.2       1 <0>        -0.5406
     16 C10        -4.8963   -2.9231    0.2822 C.2       1 <0>         0.1862
     17 N5         -3.8641   -2.2621    0.7363 N.2       1 <0>        -0.2800
     18 C11        -2.1622   -0.0344   -1.2080 C.ar      1 <0>        -0.1593
     19 C12        -3.2922    0.7489   -1.0659 C.ar      1 <0>        -0.0392
     20 C13        -3.9613    1.2078   -2.1845 C.ar      1 <0>        -0.1572
     21 C14        -3.5005    0.8828   -3.4495 C.ar      1 <0>         0.1379
     22 C15        -2.3693    0.0985   -3.5930 C.ar      1 <0>        -0.1873
     23 C16        -1.6965   -0.3558   -2.4716 C.ar      1 <0>         0.1330
     24 F2         -0.5888   -1.1168   -2.6102 F         1 <0>        -0.1272
     25 F3         -4.1554    1.3308   -4.5429 F         1 <0>        -0.1264
     26 O1         -2.1022   -0.0728    1.1886 O.3       1 <0>        -0.5035
     27 H2          1.0039    1.9031    0.0027 H         1 <0>         0.0677
     28 H3         -0.5459    1.8868   -0.8726 H         1 <0>         0.0703
     29 H4         -0.5289    1.8773    0.9072 H         1 <0>         0.0746
     30 H5          3.4009   -2.3246    2.1830 H         1 <0>         0.1820
     31 H6          0.5388   -0.3798    4.4833 H         1 <0>         0.2068
     32 H7         -0.8263   -2.4142   -0.8449 H         1 <0>         0.1164
     33 H8         -0.9645   -2.4259    0.9297 H         1 <0>         0.0931
     34 H9         -2.6840   -3.8683   -1.8326 H         1 <0>         0.2126
     35 H10        -5.8897   -2.9036    0.7055 H         1 <0>         0.2146
     36 H11        -3.6526    1.0023   -0.0798 H         1 <0>         0.1510
     37 H12        -4.8440    1.8198   -2.0723 H         1 <0>         0.1469
     38 H13        -2.0093   -0.1554   -4.5791 H         1 <0>         0.1529
     39 H14        -2.1528    0.8902    1.2604 H         1 <0>         0.3772
@<TRIPOS>BOND
     1    1    2 1
     2    1   27 1
     3    1   28 1
     4    1   29 1
     5    2    3 1
     6    2    4 1
     7    2   11 1
     8    4    9 ar
     9    4    5 ar
    10    5    6 ar
    11    5   10 1
    12    6    7 ar
    13    6   30 1
    14    7    8 ar
    15    8    9 ar
    16    8   31 1
    17   11   12 1
    18   11   18 1
    19   11   26 1
    20   12   13 1
    21   12   32 1
    22   12   33 1
    23   13   17 1
    24   13   14 1
    25   14   15 2
    26   14   34 1
    27   15   16 1
    28   16   17 2
    29   16   35 1
    30   18   23 ar
    31   18   19 ar
    32   19   20 ar
    33   19   36 1
    34   20   21 ar
    35   20   37 1
    36   21   22 ar
    37   21   25 1
    38   22   23 ar
    39   22   38 1
    40   23   24 1
    41   26   39 1
