@<TRIPOS>MOLECULE
ZINC01532805
   14    13     0     0     0
SMALL
USER_CHARGES
4-hydroxybutanoic acid
@<TRIPOS>ATOM
      1 C1          2.6961    3.5480   -0.0046 C.3       1 <0>        -0.1005
      2 C2          1.2350    3.0943    0.0069 C.3       1 <0>        -0.1558
      3 C3          1.1765    1.5884   -0.0006 C.2       1 <0>         0.4592
      4 O1          2.1986    0.9442   -0.0139 O.co2     1 <0>        -0.6392
      5 C4          2.7554    5.0768    0.0030 C.3       1 <0>         0.0743
      6 O2          4.1201    5.5006   -0.0077 O.3       1 <0>        -0.5761
      7 H1          3.2039    3.1603    0.8785 H         1 <0>         0.0673
      8 H2          3.1869    3.1698   -0.9014 H         1 <0>         0.0673
      9 H3          0.7272    3.4820   -0.8762 H         1 <0>         0.0645
     10 H4          0.7441    3.4725    0.9036 H         1 <0>         0.0645
     11 H5          2.2476    5.4646   -0.8801 H         1 <0>         0.0408
     12 H6          2.2646    5.4550    0.8998 H         1 <0>         0.0408
     13 H7          4.2338    6.4609   -0.0037 H         1 <0>         0.3697
     14 O3         -0.0110    0.9628    0.0073 O.co2     1 <0>        -0.7768
@<TRIPOS>BOND
     1    1    2 1
     2    1    5 1
     3    1    7 1
     4    1    8 1
     5    2    3 1
     6    2    9 1
     7    2   10 1
     8    3    4 2
     9    3   14 1
    10    5    6 1
    11    5   11 1
    12    5   12 1
    13    6   13 1
@<TRIPOS>MOLECULE
ZINC05566749
   28    28     0     0     0
SMALL
USER_CHARGES
(E,4S)-4-cyclohexyl-4-hydroxy-but-2-enoic acid
@<TRIPOS>ATOM
      1 C1         -2.9042    1.5565    0.0381 C.3       1 <0>        -0.1191
      2 C2         -2.1881    1.0631   -1.2207 C.3       1 <0>        -0.1193
      3 C3         -0.7527    1.5927   -1.2315 C.3       1 <0>        -0.1094
      4 C4         -0.0127    1.0858    0.0080 C.3       1 <0>        -0.1106
      5 C5         -0.7288    1.5792    1.2668 C.3       1 <0>        -0.1169
      6 C6         -2.1642    1.0497    1.2777 C.3       1 <0>        -0.1186
      7 C7          1.4227    1.6154   -0.0028 C.3       1 <0>         0.1427
      8 H1          1.4079    2.7053    0.0031 H         1 <0>         0.1007
      9 C8          2.1515    1.1162    1.2180 C.2       1 <0>        -0.1903
     10 C9          3.2966    0.4513    1.0840 C.2       1 <0>        -0.1609
     11 C10         4.0073   -0.0354    2.2745 C.2       1 <0>         0.4742
     12 O1          3.5494    0.1691    3.3815 O.co2     1 <0>        -0.6386
     13 O2          2.0915    1.1546   -1.1786 O.3       1 <0>        -0.5612
     14 H2         -2.9190    2.6464    0.0441 H         1 <0>         0.0594
     15 H3         -3.9268    1.1792    0.0459 H         1 <0>         0.0563
     16 H4         -2.7153    1.4241   -2.1037 H         1 <0>         0.0576
     17 H5         -2.1733   -0.0268   -1.2266 H         1 <0>         0.0595
     18 H6         -0.7675    2.6825   -1.2255 H         1 <0>         0.0595
     19 H7         -0.2425    1.2411   -2.1283 H         1 <0>         0.0667
     20 H8          0.0021   -0.0041    0.0020 H         1 <0>         0.0722
     21 H9         -0.2017    1.2182    2.1499 H         1 <0>         0.0728
     22 H10        -0.7436    2.6691    1.2728 H         1 <0>         0.0616
     23 H11        -2.6744    1.4012    2.1745 H         1 <0>         0.0599
     24 H12        -2.1494   -0.0402    1.2717 H         1 <0>         0.0607
     25 H13         1.7447    1.2979    2.2018 H         1 <0>         0.1235
     26 H14         3.7035    0.2696    0.1002 H         1 <0>         0.1082
     27 H15         2.1422    0.1915   -1.2503 H         1 <0>         0.3747
     28 O3          5.1671   -0.7089    2.1387 O.co2     1 <0>        -0.7653
@<TRIPOS>BOND
     1    1    6 1
     2    1    2 1
     3    1   14 1
     4    1   15 1
     5    2    3 1
     6    2   16 1
     7    2   17 1
     8    3    4 1
     9    3   18 1
    10    3   19 1
    11    4    5 1
    12    4    7 1
    13    4   20 1
    14    5    6 1
    15    5   21 1
    16    5   22 1
    17    6   23 1
    18    6   24 1
    19    7    8 1
    20    7    9 1
    21    7   13 1
    22    9   10 2
    23    9   25 1
    24   10   11 1
    25   10   26 1
    26   11   12 2
    27   11   28 1
    28   13   27 1
@<TRIPOS>MOLECULE
ZINC05566758
   28    28     0     0     0
SMALL
USER_CHARGES
(E,4R)-4-cyclohexyl-4-hydroxy-but-2-enoic acid
@<TRIPOS>ATOM
      1 C1         -0.7288    1.5792    1.2668 C.3       1 <0>        -0.1195
      2 C2         -0.0127    1.0858    0.0080 C.3       1 <0>        -0.1184
      3 C3         -0.7527    1.5927   -1.2315 C.3       1 <0>        -0.1095
      4 C4         -2.1881    1.0631   -1.2207 C.3       1 <0>        -0.1110
      5 C5         -2.9042    1.5565    0.0381 C.3       1 <0>        -0.1163
      6 C6         -2.1642    1.0497    1.2777 C.3       1 <0>        -0.1178
      7 C7         -2.9281    1.5699   -2.4602 C.3       1 <0>         0.1424
      8 H1         -2.9429    2.6598   -2.4542 H         1 <0>         0.0961
      9 C8         -4.3419    1.0483   -2.4495 C.2       1 <0>        -0.1831
     10 C9         -5.3650    1.8992   -2.4351 C.2       1 <0>        -0.1507
     11 C10        -6.7436    1.3906   -2.4247 C.2       1 <0>         0.4741
     12 O1         -6.9495    0.1928   -2.4292 O.co2     1 <0>        -0.6371
     13 O2         -2.2592    1.1091   -3.6359 O.3       1 <0>        -0.5598
     14 H2         -0.2017    1.2182    2.1499 H         1 <0>         0.0563
     15 H3         -0.7436    2.6691    1.2728 H         1 <0>         0.0598
     16 H4          0.0021   -0.0041    0.0020 H         1 <0>         0.0590
     17 H5          1.0099    1.4631    0.0003 H         1 <0>         0.0574
     18 H6         -0.7675    2.6825   -1.2255 H         1 <0>         0.0597
     19 H7         -0.2425    1.2411   -2.1283 H         1 <0>         0.0662
     20 H8         -2.1733   -0.0268   -1.2266 H         1 <0>         0.0715
     21 H9         -2.9190    2.6464    0.0441 H         1 <0>         0.0616
     22 H10        -3.9268    1.1792    0.0459 H         1 <0>         0.0724
     23 H11        -2.6744    1.4012    2.1745 H         1 <0>         0.0603
     24 H12        -2.1494   -0.0402    1.2717 H         1 <0>         0.0599
     25 H13        -4.5248   -0.0161   -2.4535 H         1 <0>         0.1178
     26 H14        -5.1821    2.9636   -2.4312 H         1 <0>         0.1012
     27 H15        -2.2086    0.1461   -3.7077 H         1 <0>         0.3717
     28 O3         -7.7799    2.2525   -2.4102 O.co2     1 <0>        -0.7643
@<TRIPOS>BOND
     1    1    6 1
     2    1    2 1
     3    1   14 1
     4    1   15 1
     5    2    3 1
     6    2   16 1
     7    2   17 1
     8    3    4 1
     9    3   18 1
    10    3   19 1
    11    4    5 1
    12    4    7 1
    13    4   20 1
    14    5    6 1
    15    5   21 1
    16    5   22 1
    17    6   23 1
    18    6   24 1
    19    7    8 1
    20    7    9 1
    21    7   13 1
    22    9   10 2
    23    9   25 1
    24   10   11 1
    25   10   26 1
    26   11   12 2
    27   11   28 1
    28   13   27 1
@<TRIPOS>MOLECULE
ZINC27996868
   15    14     0     0     0
SMALL
USER_CHARGES
(E,4R)-4-hydroxypent-2-enoic acid
@<TRIPOS>ATOM
      1 C1         -4.5586    1.6095   -1.2169 C.3       1 <0>        -0.1390
      2 C2         -3.7554    1.9832    0.0306 C.3       1 <0>         0.1431
      3 H1         -3.5878    3.0684    0.0965 H         1 <0>         0.0493
      4 C3         -2.4403    1.2475    0.0204 C.2       1 <0>        -0.1862
      5 C4         -1.2969    1.9285    0.0187 C.2       1 <0>        -0.1605
      6 C5         -0.0144    1.2111    0.0087 C.2       1 <0>         0.4738
      7 O1          0.0021   -0.0041    0.0020 O.co2     1 <0>        -0.6356
      8 O2          1.1437    1.9010    0.0013 O.co2     1 <0>        -0.7651
      9 O3         -4.4945    1.6215    1.1990 O.3       1 <0>        -0.6023
     10 H2         -5.5186    2.1466   -1.2094 H         1 <0>         0.0573
     11 H3         -4.7450    0.5254   -1.2219 H         1 <0>         0.0631
     12 H4         -3.9897    1.8879   -2.1163 H         1 <0>         0.0714
     13 H5         -2.4254    0.1476    0.0144 H         1 <0>         0.1233
     14 H6         -1.3118    3.0284    0.0248 H         1 <0>         0.1028
     15 H7         -4.0744    1.8143    2.1972 H         1 <0>         0.4046
@<TRIPOS>BOND
     1    1    2 1
     2    1   10 1
     3    1   11 1
     4    1   12 1
     5    2    3 1
     6    2    4 1
     7    2    9 1
     8    4    5 2
     9    4   13 1
    10    5    6 1
    11    5   14 1
    12    6    7 2
    13    6    8 1
    14    9   15 1
@<TRIPOS>MOLECULE
ZINC27996873
   15    14     0     0     0
SMALL
USER_CHARGES
(E,4S)-4-hydroxypent-2-enoic acid
@<TRIPOS>ATOM
      1 C1          2.1549    1.3908    1.1706 C.3       1 <0>        -0.1370
      2 C2          1.2821    1.8470   -0.0003 C.3       1 <0>         0.1426
      3 H1          1.7972    1.7225   -0.9642 H         1 <0>         0.0538
      4 C3         -0.0126    1.0758    0.0080 C.2       1 <0>        -0.1912
      5 C4         -1.1740    1.7255    0.0170 C.2       1 <0>        -0.1647
      6 C5         -2.4365    0.9735    0.0189 C.2       1 <0>         0.4748
      7 O1         -2.4200   -0.2417    0.0122 O.co2     1 <0>        -0.6390
      8 O2         -3.6130    1.6316    0.0281 O.co2     1 <0>        -0.7658
      9 O3          1.0057    3.2432    0.1273 O.3       1 <0>        -0.6018
     10 H2          3.0999    1.9537    1.1646 H         1 <0>         0.0572
     11 H3          2.3676    0.3160    1.0724 H         1 <0>         0.0710
     12 H4          1.6246    1.5747    2.1166 H         1 <0>         0.0633
     13 H5          0.0023   -0.0241    0.0066 H         1 <0>         0.1231
     14 H6         -1.1889    2.8254    0.0230 H         1 <0>         0.1083
     15 H7          0.3881    3.7528   -0.6269 H         1 <0>         0.4056
@<TRIPOS>BOND
     1    1    2 1
     2    1   10 1
     3    1   11 1
     4    1   12 1
     5    2    3 1
     6    2    4 1
     7    2    9 1
     8    4    5 2
     9    4   13 1
    10    5    6 1
    11    5   14 1
    12    6    7 2
    13    6    8 1
    14    9   15 1
@<TRIPOS>MOLECULE
ZINC28472591
   37    38     0     0     0
SMALL
USER_CHARGES
2-[3-(3-phenylpropoxy)phenyl]acetic acid
@<TRIPOS>ATOM
      1 C1         -7.5349   -4.1755    0.0145 C.ar      1 <0>        -0.1265
      2 C2         -6.9051   -3.8970   -1.1841 C.ar      1 <0>        -0.1186
      3 C3         -5.6343   -3.3528   -1.1871 C.ar      1 <0>        -0.1162
      4 C4         -4.9933   -3.0875    0.0085 C.ar      1 <0>        -0.0784
      5 C5         -5.6208   -3.3712    1.2071 C.ar      1 <0>        -0.1170
      6 C6         -6.8936   -3.9106    1.2102 C.ar      1 <0>        -0.1194
      7 C7         -3.6078   -2.4947    0.0053 C.3       1 <0>        -0.0793
      8 C8         -3.7063   -0.9679    0.0141 C.3       1 <0>        -0.1138
      9 C9         -2.2997   -0.3660    0.0108 C.3       1 <0>         0.0597
     10 O1         -2.3918    1.0600    0.0191 O.3       1 <0>        -0.3176
     11 C10        -1.2232    1.7538    0.0174 C.ar      1 <0>         0.1261
     12 C11        -0.0126    1.0758    0.0080 C.ar      1 <0>        -0.2272
     13 C12         1.1737    1.7832    0.0004 C.ar      1 <0>        -0.0827
     14 C13         1.1556    3.1660    0.0081 C.ar      1 <0>        -0.1496
     15 C14        -0.0491    3.8437    0.0233 C.ar      1 <0>         0.0087
     16 C15        -1.2386    3.1407    0.0313 C.ar      1 <0>        -0.1447
     17 C16        -0.0652    5.3506    0.0316 C.3       1 <0>        -0.1341
     18 C17        -0.0841    5.8606   -1.3864 C.2       1 <0>         0.4665
     19 O2         -0.0845    5.0805   -2.3090 O.co2     1 <0>        -0.6293
     20 O3         -0.1005    7.1815   -1.6244 O.co2     1 <0>        -0.7721
     21 H1         -8.5278   -4.6003    0.0169 H         1 <0>         0.1197
     22 H2         -7.4059   -4.1043   -2.1182 H         1 <0>         0.1212
     23 H3         -5.1423   -3.1353   -2.1235 H         1 <0>         0.1225
     24 H4         -5.1182   -3.1680    2.1412 H         1 <0>         0.1217
     25 H5         -7.3855   -4.1284    2.1466 H         1 <0>         0.1208
     26 H6         -3.0626   -2.8321    0.8991 H         1 <0>         0.0761
     27 H7         -3.0709   -2.8223   -0.8971 H         1 <0>         0.0769
     28 H8         -4.2516   -0.6305   -0.8797 H         1 <0>         0.0763
     29 H9         -4.2432   -0.6403    0.9166 H         1 <0>         0.0751
     30 H10        -1.7544   -0.7034    0.9045 H         1 <0>         0.0594
     31 H11        -1.7628   -0.6935   -0.8917 H         1 <0>         0.0607
     32 H12         0.0021   -0.0041    0.0020 H         1 <0>         0.1186
     33 H13         2.1162    1.2560   -0.0118 H         1 <0>         0.1176
     34 H14         2.0843    3.7173    0.0018 H         1 <0>         0.1178
     35 H15        -2.1795    3.6707    0.0436 H         1 <0>         0.1236
     36 H16        -0.9622    5.7048    0.5606 H         1 <0>         0.0783
     37 H17         0.8339    5.7241    0.5437 H         1 <0>         0.0792
@<TRIPOS>BOND
     1    1    6 ar
     2    1    2 ar
     3    1   21 1
     4    2    3 ar
     5    2   22 1
     6    3    4 ar
     7    3   23 1
     8    4    5 ar
     9    4    7 1
    10    5    6 ar
    11    5   24 1
    12    6   25 1
    13    7    8 1
    14    7   26 1
    15    7   27 1
    16    8    9 1
    17    8   28 1
    18    8   29 1
    19    9   10 1
    20    9   30 1
    21    9   31 1
    22   10   11 1
    23   11   16 ar
    24   11   12 ar
    25   12   13 ar
    26   12   32 1
    27   13   14 ar
    28   13   33 1
    29   14   15 ar
    30   14   34 1
    31   15   16 ar
    32   15   17 1
    33   16   35 1
    34   17   18 1
    35   17   36 1
    36   17   37 1
    37   18   19 2
    38   18   20 1
@<TRIPOS>MOLECULE
ZINC28466472
   34    35     0     0     0
SMALL
USER_CHARGES
2-(3-phenethyloxyphenyl)acetic acid
@<TRIPOS>ATOM
      1 C1         -9.2363   -5.0374    3.4973 C.ar      1 <0>        -0.1240
      2 C2         -7.9276   -5.4817    3.5262 C.ar      1 <0>        -0.1189
      3 C3         -6.8901   -4.5712    3.6002 C.ar      1 <0>        -0.1133
      4 C4         -7.1612   -3.2165    3.6458 C.ar      1 <0>        -0.0795
      5 C5         -8.4701   -2.7724    3.6227 C.ar      1 <0>        -0.1141
      6 C6         -9.5075   -3.6826    3.5434 C.ar      1 <0>        -0.1198
      7 C7         -6.0301   -2.2240    3.7269 C.3       1 <0>        -0.0822
      8 C8         -5.5957   -1.8293    2.3140 C.3       1 <0>         0.0664
      9 O1         -4.5231   -0.8881    2.3909 O.3       1 <0>        -0.3179
     10 C9         -4.0166   -0.4324    1.2150 C.ar      1 <0>         0.1261
     11 C10        -4.5416   -0.8816    0.0117 C.ar      1 <0>        -0.2266
     12 C11        -4.0254   -0.4165   -1.1821 C.ar      1 <0>        -0.0824
     13 C12        -2.9898    0.4999   -1.1786 C.ar      1 <0>        -0.1494
     14 C13        -2.4615    0.9450    0.0189 C.ar      1 <0>         0.0087
     15 C14        -2.9744    0.4829    1.2157 C.ar      1 <0>        -0.1441
     16 C15        -1.3295    1.9397    0.0189 C.3       1 <0>        -0.1340
     17 C16        -0.0143    1.2041    0.0087 C.2       1 <0>         0.4664
     18 O2          0.0021   -0.0041    0.0020 O.co2     1 <0>        -0.6294
     19 O3          1.1389    1.8910    0.0013 O.co2     1 <0>        -0.7721
     20 H1        -10.0469   -5.7486    3.4392 H         1 <0>         0.1205
     21 H2         -7.7158   -6.5401    3.4906 H         1 <0>         0.1223
     22 H3         -5.8676   -4.9184    3.6227 H         1 <0>         0.1244
     23 H4         -8.6821   -1.7142    3.6627 H         1 <0>         0.1232
     24 H5        -10.5299   -3.3355    3.5213 H         1 <0>         0.1217
     25 H6         -6.3661   -1.3288    4.2707 H         1 <0>         0.0845
     26 H7         -5.1808   -2.6785    4.2581 H         1 <0>         0.0857
     27 H8         -5.2597   -2.7245    1.7702 H         1 <0>         0.0617
     28 H9         -6.4450   -1.3748    1.7828 H         1 <0>         0.0605
     29 H10        -5.3534   -1.5939    0.0085 H         1 <0>         0.1183
     30 H11        -4.4339   -0.7655   -2.1190 H         1 <0>         0.1176
     31 H12        -2.5906    0.8658   -2.1131 H         1 <0>         0.1179
     32 H13        -2.5638    0.8337    2.1510 H         1 <0>         0.1240
     33 H14        -1.4006    2.5761   -0.8755 H         1 <0>         0.0793
     34 H15        -1.3921    2.5664    0.9207 H         1 <0>         0.0784
@<TRIPOS>BOND
     1    1    6 ar
     2    1    2 ar
     3    1   20 1
     4    2    3 ar
     5    2   21 1
     6    3    4 ar
     7    3   22 1
     8    4    5 ar
     9    4    7 1
    10    5    6 ar
    11    5   23 1
    12    6   24 1
    13    7    8 1
    14    7   25 1
    15    7   26 1
    16    8    9 1
    17    8   27 1
    18    8   28 1
    19    9   10 1
    20   10   15 ar
    21   10   11 ar
    22   11   12 ar
    23   11   29 1
    24   12   13 ar
    25   12   30 1
    26   13   14 ar
    27   13   31 1
    28   14   15 ar
    29   14   16 1
    30   15   32 1
    31   16   17 1
    32   16   33 1
    33   16   34 1
    34   17   18 2
    35   17   19 1
@<TRIPOS>MOLECULE
ZINC03995631
   12    11     0     0     0
SMALL
USER_CHARGES

@<TRIPOS>ATOM
      1 C1         -0.0184    1.5028    0.0103 C.3       1 <0>         0.1087
      2 C2          0.0021   -0.0041    0.0020 C.2       1 <0>        -0.1541
      3 C3         -0.7970   -0.6857    0.8220 C.2       1 <0>        -0.1851
      4 C4         -0.7771   -2.1526    0.8139 C.2       1 <0>         0.5067
      5 O1         -0.0266   -2.7502    0.0541 O.co2     1 <0>        -0.6920
      6 O2         -1.5109   -2.7786    1.5670 O.co2     1 <0>        -0.6971
      7 O3          1.3223    1.9974    0.0002 O.3       1 <0>        -0.5702
      8 H1         -0.5455    1.8639   -0.8728 H         1 <0>         0.0490
      9 H2         -0.5286    1.8543    0.9071 H         1 <0>         0.0454
     10 H3          0.6644   -0.5315   -0.6685 H         1 <0>         0.1225
     11 H4         -1.4592   -0.1583    1.4926 H         1 <0>         0.0957
     12 H5          1.3855    2.9623    0.0047 H         1 <0>         0.3704
@<TRIPOS>BOND
     1    1    2 1
     2    1    7 1
     3    1    8 1
     4    1    9 1
     5    2    3 2
     6    2   10 1
     7    3    4 1
     8    3   11 1
     9    4    5 2
    10    4    6 1
    11    7   12 1
@<TRIPOS>MOLECULE
ZINC03782203
   29    30     0     0     0
SMALL
USER_CHARGES

@<TRIPOS>ATOM
      1 C1          0.7280    2.0276   -0.3485 C.ar      1 <0>        -0.1181
      2 C2          2.0382    2.4690   -0.3720 C.ar      1 <0>        -0.1342
      3 C3          3.0620    1.5460   -0.3208 C.ar      1 <0>        -0.1052
      4 C4          2.7865    0.1891   -0.2312 C.ar      1 <0>        -0.0668
      5 C5          1.4872   -0.2572   -0.1642 C.ar      1 <0>        -0.0380
      6 C6          0.4573    0.6820   -0.2496 C.ar      1 <0>        -0.1359
      7 C7          1.0435   -1.6833    0.0594 C.3       1 <0>        -0.0780
      8 C8          2.0056   -2.7139   -0.5220 C.3       1 <0>        -0.1536
      9 C9          3.0781   -3.0462    0.5352 C.3       1 <0>        -0.0711
     10 C10         3.8035   -1.7805    0.8598 C.2       1 <0>        -0.1436
     11 C11         4.3039   -1.5581    2.0746 C.2       1 <0>        -0.1906
     12 C12         4.2945   -2.6274    3.0789 C.2       1 <0>         0.5083
     13 O1          3.9292   -3.7538    2.7699 O.co2     1 <0>        -0.6813
     14 O2          4.6519   -2.3930    4.2256 O.co2     1 <0>        -0.6994
     15 C13         3.9449   -0.7670   -0.2464 C.3       1 <0>         0.1833
     16 H1          4.8727   -0.2114   -0.1100 H         1 <0>         0.0611
     17 O3          3.9835   -1.4429   -1.5048 O.3       1 <0>        -0.5488
     18 H2         -0.0827    2.7391   -0.4033 H         1 <0>         0.1176
     19 H3          2.2576    3.5249   -0.4301 H         1 <0>         0.1204
     20 H4          4.0877    1.8826   -0.3512 H         1 <0>         0.1196
     21 H5         -0.5693    0.3465   -0.2374 H         1 <0>         0.1174
     22 H6          0.9514   -1.8568    1.1315 H         1 <0>         0.0759
     23 H7          0.0645   -1.8209   -0.3997 H         1 <0>         0.0620
     24 H8          1.4573   -3.6190   -0.7830 H         1 <0>         0.0513
     25 H9          2.4844   -2.3053   -1.4120 H         1 <0>         0.1100
     26 H10         2.6021   -3.4400    1.4332 H         1 <0>         0.1050
     27 H11         3.7771   -3.7803    0.1343 H         1 <0>         0.0620
     28 H12         4.7164   -0.5905    2.3198 H         1 <0>         0.0934
     29 H13         4.7077   -2.0783   -1.5879 H         1 <0>         0.3772
@<TRIPOS>BOND
     1    1    6 ar
     2    1    2 ar
     3    1   18 1
     4    2    3 ar
     5    2   19 1
     6    3    4 ar
     7    3   20 1
     8    4   15 1
     9    4    5 ar
    10    5    6 ar
    11    5    7 1
    12    6   21 1
    13    7    8 1
    14    7   22 1
    15    7   23 1
    16    8    9 1
    17    8   24 1
    18    8   25 1
    19    9   10 1
    20    9   26 1
    21    9   27 1
    22   10   11 2
    23   10   15 1
    24   11   12 1
    25   11   28 1
    26   12   13 2
    27   12   14 1
    28   15   16 1
    29   15   17 1
    30   17   29 1
@<TRIPOS>MOLECULE
ZINC03983943
   29    30     0     0     0
SMALL
USER_CHARGES

@<TRIPOS>ATOM
      1 C1          0.2502    1.9855   -0.4326 C.ar      1 <0>        -0.1181
      2 C2          1.5268    2.4813   -0.2415 C.ar      1 <0>        -0.1342
      3 C3          2.5796    1.6001   -0.1074 C.ar      1 <0>        -0.1052
      4 C4          2.3686    0.2306   -0.1781 C.ar      1 <0>        -0.0668
      5 C5          1.1092   -0.2712   -0.4106 C.ar      1 <0>        -0.0380
      6 C6          0.0448    0.6270   -0.5123 C.ar      1 <0>        -0.1360
      7 C7          0.7535   -1.7217   -0.6347 C.3       1 <0>        -0.0781
      8 C8          1.6581   -2.6896    0.1208 C.3       1 <0>        -0.1536
      9 C9          2.8827   -3.0157   -0.7579 C.3       1 <0>        -0.0706
     10 C10         3.6017   -1.7339   -1.0291 C.2       1 <0>        -0.1437
     11 C11         4.2627   -1.5352   -2.1689 C.2       1 <0>        -0.1905
     12 C12         4.4387   -2.6408   -3.1170 C.2       1 <0>         0.5083
     13 O1          4.0796   -3.7705   -2.8131 O.co2     1 <0>        -0.6813
     14 O2          4.9447   -2.4333   -4.2118 O.co2     1 <0>        -0.6995
     15 C13         3.5461   -0.6755    0.0422 C.3       1 <0>         0.1833
     16 H1          4.4635   -0.0874    0.0160 H         1 <0>         0.0611
     17 O3          3.4273   -1.3027    1.3207 O.3       1 <0>        -0.5488
     18 H2         -0.5860    2.6639   -0.5149 H         1 <0>         0.1176
     19 H3          1.6978    3.5468   -0.1980 H         1 <0>         0.1204
     20 H4          3.5777    1.9799    0.0537 H         1 <0>         0.1196
     21 H5         -0.9567    0.2491   -0.6557 H         1 <0>         0.1174
     22 H6         -0.2758   -1.8827   -0.3143 H         1 <0>         0.0620
     23 H7          0.8229   -1.9380   -1.7007 H         1 <0>         0.0759
     24 H8          1.9889   -2.2292    1.0518 H         1 <0>         0.1101
     25 H9          1.1106   -3.6065    0.3390 H         1 <0>         0.0513
     26 H10         3.5425   -3.7051   -0.2310 H         1 <0>         0.0622
     27 H11         2.5553   -3.4616   -1.6972 H         1 <0>         0.1044
     28 H12         4.6689   -0.5604   -2.3947 H         1 <0>         0.0935
     29 H13         4.1542   -1.9041    1.5328 H         1 <0>         0.3773
@<TRIPOS>BOND
     1    1    6 ar
     2    1    2 ar
     3    1   18 1
     4    2    3 ar
     5    2   19 1
     6    3    4 ar
     7    3   20 1
     8    4   15 1
     9    4    5 ar
    10    5    6 ar
    11    5    7 1
    12    6   21 1
    13    7    8 1
    14    7   22 1
    15    7   23 1
    16    8    9 1
    17    8   24 1
    18    8   25 1
    19    9   10 1
    20    9   26 1
    21    9   27 1
    22   10   11 2
    23   10   15 1
    24   11   12 1
    25   11   28 1
    26   12   13 2
    27   12   14 1
    28   15   16 1
    29   15   17 1
    30   17   29 1
