@<TRIPOS>MOLECULE
ZINC03978827
   80    84     0     0     0
SMALL
USER_CHARGES

@<TRIPOS>ATOM
      1 C1         -2.2499    1.7395    1.5965 C.3       1 <0>        -0.1448
      2 C2         -2.3630    0.2147    1.6179 C.3       1 <0>        -0.0886
      3 H1         -2.1511   -0.1868    0.6297 H         1 <0>         0.0647
      4 C3         -3.7754   -0.1882    2.0495 C.3       1 <0>        -0.1142
      5 C4         -3.8831   -1.7109    2.0243 C.3       1 <0>        -0.0863
      6 C5         -2.8712   -2.3453    2.9771 C.3       1 <0>        -0.1168
      7 C6         -3.2034   -1.9924    4.4220 C.3       1 <0>        -0.0858
      8 C7         -2.2907   -2.7490    5.3888 C.3       1 <0>        -0.0975
      9 C8         -0.8207   -2.4481    5.1311 C.3       1 <0>         0.0200
     10 C9         -0.4927   -2.4623    3.6663 C.2       1 <0>        -0.0271
     11 C10         0.6115   -2.9748    3.1888 C.2       1 <0>        -0.1945
     12 C11         1.6871   -3.6146    4.0173 C.3       1 <0>        -0.0682
     13 C12         1.5217   -3.2085    5.4824 C.3       1 <0>        -0.0549
     14 H2          1.7443   -2.1224    5.5395 H         1 <0>         0.0556
     15 C13         0.0772   -3.4243    5.9096 C.3       1 <0>        -0.0252
     16 C14        -0.1263   -3.2338    7.4071 C.3       1 <0>        -0.1101
     17 C15         0.9033   -4.0493    8.2060 C.3       1 <0>        -0.1119
     18 C16         2.2898   -3.5411    7.8160 C.3       1 <0>        -0.0569
     19 H3          2.2178   -2.4232    7.8479 H         1 <0>         0.0555
     20 C17         2.5695   -3.8926    6.3613 C.3       1 <0>        -0.0335
     21 C18         3.9485   -3.3245    5.9787 C.3       1 <0>        -0.1101
     22 C19         5.0165   -3.9216    6.8907 C.3       1 <0>        -0.1478
     23 C20         4.7602   -3.5214    8.3374 C.3       1 <0>         0.1195
     24 H4          4.8674   -2.4352    8.4331 H         1 <0>         0.0460
     25 C21         3.3625   -3.9218    8.8099 C.3       1 <0>        -0.0368
     26 C22         3.3394   -5.4064    9.1716 C.3       1 <0>        -0.1352
     27 C23         3.1067   -3.1345   10.1199 C.3       1 <0>        -0.1462
     28 O1          5.7353   -4.1464    9.1809 O.3       1 <0>        -0.5663
     29 C24         2.6012   -5.3981    6.1216 C.3       1 <0>        -0.1547
     30 C25        -0.3721   -4.8467    5.5369 C.3       1 <0>        -0.1382
     31 C26        -1.4543   -1.8772    2.6495 C.3       1 <0>        -0.0155
     32 H5         -1.1832   -2.2584    1.6510 H         1 <0>         0.0546
     33 C27        -1.3629   -0.3562    2.6314 C.3       1 <0>        -0.0770
     34 H6         -1.6059    0.0562    3.6092 H         1 <0>         0.0715
     35 C28         0.0468    0.0829    2.2258 C.3       1 <0>        -0.1463
     36 C29        -0.5399   -1.0348    5.6568 C.3       1 <0>        -0.1536
     37 C30        -2.9445   -3.8442    2.7896 C.2       1 <0>         0.4993
     38 O2         -3.7239   -4.3202    1.9818 O.co2     1 <0>        -0.7070
     39 O3         -2.2243   -4.5767    3.4463 O.co2     1 <0>        -0.6696
     40 H7         -1.2399    2.0248    1.3019 H         1 <0>         0.0532
     41 H8         -2.9654    2.1470    0.8823 H         1 <0>         0.0474
     42 H9         -2.4636    2.1337    2.5900 H         1 <0>         0.0494
     43 H10        -3.9698    0.1803    3.0558 H         1 <0>         0.0549
     44 H11        -4.5022    0.2419    1.3592 H         1 <0>         0.0487
     45 H12        -4.8906   -2.0096    2.3196 H         1 <0>         0.0523
     46 H13        -3.6916   -2.0691    1.0098 H         1 <0>         0.0574
     47 H14        -3.1028   -0.9193    4.5760 H         1 <0>         0.0430
     48 H15        -4.2426   -2.2738    4.6258 H         1 <0>         0.0414
     49 H16        -2.5347   -2.4030    6.4107 H         1 <0>         0.0259
     50 H17        -2.5341   -3.8025    5.3536 H         1 <0>         0.0990
     51 H18         0.7546   -2.9368    2.1160 H         1 <0>         0.0852
     52 H19         1.6485   -4.6899    3.8782 H         1 <0>         0.0722
     53 H20         2.6596   -3.2560    3.6562 H         1 <0>         0.0490
     54 H21        -0.0128   -2.1972    7.7151 H         1 <0>         0.0590
     55 H22        -1.1267   -3.5776    7.6859 H         1 <0>         0.0595
     56 H23         0.7201   -3.8720    9.2680 H         1 <0>         0.0543
     57 H24         0.7855   -5.1037    8.0015 H         1 <0>         0.0688
     58 H25         4.1631   -3.5839    4.9433 H         1 <0>         0.0672
     59 H26         3.9302   -2.2417    6.0898 H         1 <0>         0.0588
     60 H27         5.0618   -5.0017    6.7929 H         1 <0>         0.0755
     61 H28         5.9952   -3.5229    6.5845 H         1 <0>         0.0520
     62 H29         3.6150   -5.9975    8.2982 H         1 <0>         0.0582
     63 H30         4.0494   -5.5953    9.9768 H         1 <0>         0.0579
     64 H31         2.3375   -5.6854    9.4977 H         1 <0>         0.0518
     65 H32         2.1229   -3.3919   10.5123 H         1 <0>         0.0557
     66 H33         3.8698   -3.3932   10.8541 H         1 <0>         0.0571
     67 H34         3.1476   -2.0648    9.9148 H         1 <0>         0.0475
     68 H35         6.6482   -3.9040    8.9733 H         1 <0>         0.3709
     69 H36         2.6560   -5.5945    5.0508 H         1 <0>         0.0577
     70 H37         3.4740   -5.8262    6.6146 H         1 <0>         0.0548
     71 H38         1.6963   -5.8499    6.5280 H         1 <0>         0.0675
     72 H39        -0.1640   -5.0289    4.4826 H         1 <0>         0.0772
     73 H40         0.1712   -5.5703    6.1448 H         1 <0>         0.0333
     74 H41        -1.4418   -4.9494    5.7192 H         1 <0>         0.0634
     75 H42         0.1016    1.1715    2.2228 H         1 <0>         0.0481
     76 H43         0.7702   -0.3153    2.9372 H         1 <0>         0.0561
     77 H44         0.2722   -0.2949    1.2285 H         1 <0>         0.0471
     78 H45        -0.6486   -1.0223    6.7413 H         1 <0>         0.0530
     79 H46         0.4759   -0.7431    5.3901 H         1 <0>         0.0476
     80 H47        -1.2475   -0.3347    5.2127 H         1 <0>         0.0547
@<TRIPOS>BOND
     1    1    2 1
     2    1   40 1
     3    1   41 1
     4    1   42 1
     5    2    3 1
     6    2   33 1
     7    2    4 1
     8    4    5 1
     9    4   43 1
    10    4   44 1
    11    5    6 1
    12    5   45 1
    13    5   46 1
    14    6   31 1
    15    6    7 1
    16    6   37 1
    17    7    8 1
    18    7   47 1
    19    7   48 1
    20    8    9 1
    21    8   49 1
    22    8   50 1
    23    9   15 1
    24    9   10 1
    25    9   36 1
    26   10   11 2
    27   10   31 1
    28   11   12 1
    29   11   51 1
    30   12   13 1
    31   12   52 1
    32   12   53 1
    33   13   14 1
    34   13   20 1
    35   13   15 1
    36   15   16 1
    37   15   30 1
    38   16   17 1
    39   16   54 1
    40   16   55 1
    41   17   18 1
    42   17   56 1
    43   17   57 1
    44   18   19 1
    45   18   25 1
    46   18   20 1
    47   20   21 1
    48   20   29 1
    49   21   22 1
    50   21   58 1
    51   21   59 1
    52   22   23 1
    53   22   60 1
    54   22   61 1
    55   23   24 1
    56   23   25 1
    57   23   28 1
    58   25   26 1
    59   25   27 1
    60   26   62 1
    61   26   63 1
    62   26   64 1
    63   27   65 1
    64   27   66 1
    65   27   67 1
    66   28   68 1
    67   29   69 1
    68   29   70 1
    69   29   71 1
    70   30   72 1
    71   30   73 1
    72   30   74 1
    73   31   32 1
    74   31   33 1
    75   33   34 1
    76   33   35 1
    77   35   75 1
    78   35   76 1
    79   35   77 1
    80   36   78 1
    81   36   79 1
    82   36   80 1
    83   37   38 2
    84   37   39 1
