@<TRIPOS>MOLECULE
ZINC13831235
   47    51     0     0     0
SMALL
USER_CHARGES

@<TRIPOS>ATOM
      1 C1          0.7919    2.8816   -1.0045 C.ar      1 <0>        -0.1083
      2 C2          1.2363    2.2024    0.1281 C.ar      1 <0>        -0.1375
      3 C3          2.4113    1.5142    0.1162 C.ar      1 <0>        -0.0859
      4 C4          3.1881    1.4862   -1.0523 C.ar      1 <0>        -0.0905
      5 C5          2.7371    2.1759   -2.2046 C.ar      1 <0>        -0.0085
      6 C6          1.5192    2.8761   -2.1549 C.ar      1 <0>        -0.1193
      7 C7          3.5137    2.1484   -3.3754 C.ar      1 <0>        -0.1787
      8 C8          4.6898    1.4620   -3.3957 C.ar      1 <0>        -0.0533
      9 C9          5.1434    0.7803   -2.2710 C.ar      1 <0>        -0.2189
     10 C10         4.4112    0.7830   -1.1020 C.ar      1 <0>         0.2504
     11 N1          4.8743    0.0981    0.0190 N.pl3     1 <0>        -0.6715
     12 C11         6.0298   -0.6632   -0.0623 C.ar      1 <0>         0.1080
     13 C12         5.9479   -2.0574   -0.1445 C.ar      1 <0>         0.0381
     14 C13         7.0772   -2.8174   -0.2239 C.ar      1 <0>        -0.7034
     15 C14         8.3418   -2.2193   -0.2250 C.ar      1 <0>         0.3559
     16 C15         8.4513   -0.8284   -0.1446 C.ar      1 <0>        -0.2375
     17 C16         7.2813   -0.0406   -0.0683 C.ar      1 <0>        -0.0541
     18 C17         7.3925    1.4250    0.0093 C.2       1 <0>         0.4322
     19 O1          6.4314    2.0992    0.3274 O.2       1 <0>        -0.4098
     20 C18         8.6873    2.0678   -0.3037 C.ar      1 <0>        -0.1149
     21 C19         8.7628    3.4402   -0.5195 C.ar      1 <0>        -0.0700
     22 C20         9.9824    4.0241   -0.8117 C.ar      1 <0>        -0.1047
     23 C21        11.1284    3.2530   -0.8914 C.ar      1 <0>        -0.1028
     24 C22        11.0711    1.8871   -0.6802 C.ar      1 <0>        -0.0728
     25 C23         9.8527    1.2836   -0.3849 C.ar      1 <0>        -0.1097
     26 C24         9.7711   -0.1765   -0.1447 C.2       1 <0>         0.4474
     27 O2         10.7807   -0.8304    0.0351 O.2       1 <0>        -0.4535
     28 N2          9.4820   -3.0033   -0.3050 N.pl3     1 <0>        -0.8328
     29 S1          6.9423   -4.5713   -0.3258 S.o2      1 <0>         2.6898
     30 O3          7.0262   -4.9202   -1.7354 O.2       1 <0>        -1.0541
     31 O4          8.0496   -5.1251    0.4379 O.2       1 <0>        -1.0509
     32 O5          5.6541   -4.9298    0.2470 O.3       1 <0>        -1.0538
     33 H1         -0.1457    3.4166   -0.9703 H         1 <0>         0.1183
     34 H2          0.6404    2.2224    1.0286 H         1 <0>         0.1191
     35 H3          2.7439    0.9929    1.0016 H         1 <0>         0.1191
     36 H4          1.1623    3.4067   -3.0252 H         1 <0>         0.1237
     37 H5          3.1778    2.6709   -4.2589 H         1 <0>         0.1198
     38 H6          5.2800    1.4463   -4.3001 H         1 <0>         0.1185
     39 H7          6.0793    0.2430   -2.3136 H         1 <0>         0.1186
     40 H8          4.3882    0.1539    0.8565 H         1 <0>         0.4089
     41 H9          4.9801   -2.5367   -0.1447 H         1 <0>         0.1509
     42 H10         7.8719    4.0478   -0.4593 H         1 <0>         0.1402
     43 H11        10.0403    5.0895   -0.9793 H         1 <0>         0.1345
     44 H12        12.0745    3.7209   -1.1204 H         1 <0>         0.1348
     45 H13        11.9693    1.2909   -0.7444 H         1 <0>         0.1418
     46 H14         9.4382   -3.8829   -0.7116 H         1 <0>         0.4124
     47 H15        10.3237   -2.6724    0.0456 H         1 <0>         0.4150
@<TRIPOS>BOND
     1    1    6 ar
     2    1    2 ar
     3    1   33 1
     4    2    3 ar
     5    2   34 1
     6    3    4 ar
     7    3   35 1
     8    4   10 ar
     9    4    5 ar
    10    5    6 ar
    11    5    7 ar
    12    6   36 1
    13    7    8 ar
    14    7   37 1
    15    8    9 ar
    16    8   38 1
    17    9   10 ar
    18    9   39 1
    19   10   11 1
    20   11   12 1
    21   11   40 1
    22   12   17 ar
    23   12   13 ar
    24   13   14 ar
    25   13   41 1
    26   14   15 ar
    27   14   29 1
    28   15   16 ar
    29   15   28 1
    30   16   26 1
    31   16   17 ar
    32   17   18 1
    33   18   19 2
    34   18   20 1
    35   20   25 ar
    36   20   21 ar
    37   21   22 ar
    38   21   42 1
    39   22   23 ar
    40   22   43 1
    41   23   24 ar
    42   23   44 1
    43   24   25 ar
    44   24   45 1
    45   25   26 1
    46   26   27 2
    47   28   46 1
    48   28   47 1
    49   29   30 2
    50   29   31 2
    51   29   32 1
