@<TRIPOS>MOLECULE
ZINC01529323
   53    55     0     0     0
SMALL
USER_CHARGES

@<TRIPOS>ATOM
      1 C1         -0.0178    1.4608    0.0101 C.3       1 <0>         0.0943
      2 N1          0.0021   -0.0041    0.0020 N.pl3     1 <0>        -0.6229
      3 C2          0.0241   -0.7433    1.2666 C.3       1 <0>         0.1846
      4 C3         -1.3889   -1.0161    1.7137 C.ar      1 <0>         0.0299
      5 C4         -1.9892   -2.2351    1.3999 C.ar      1 <0>         0.1556
      6 N2         -3.2219   -2.4965    1.7797 N.ar      1 <0>        -0.4373
      7 C5         -3.9051   -1.5830    2.4739 C.ar      1 <0>         0.3718
      8 C6         -3.2902   -0.3458    2.7901 C.ar      1 <0>        -0.0918
      9 N3         -2.0425   -0.1038    2.4012 N.ar      1 <0>        -0.3728
     10 C7         -4.0706    0.6301    3.5527 C.ar      1 <0>         0.5432
     11 N4         -5.3055    0.2953    3.9004 N.ar      1 <0>        -0.6300
     12 C8         -5.8196   -0.8850    3.5693 C.ar      1 <0>         0.6362
     13 N5         -5.1609   -1.7987    2.8845 N.ar      1 <0>        -0.5990
     14 N6         -7.1130   -1.1692    3.9639 N.pl3     1 <0>        -0.8099
     15 N7         -3.5402    1.8539    3.8976 N.pl3     1 <0>        -0.7943
     16 C9          0.0000   -0.6928   -1.2059 C.ar      1 <0>         0.2179
     17 C10         0.0132   -2.0849   -1.2118 C.ar      1 <0>        -0.2113
     18 C11         0.0112   -2.7693   -2.4056 C.ar      1 <0>        -0.0159
     19 C12        -0.0041   -2.0653   -3.6133 C.ar      1 <0>        -0.1590
     20 C13        -0.0173   -0.6674   -3.6040 C.ar      1 <0>        -0.0366
     21 C14        -0.0210    0.0112   -2.4068 C.ar      1 <0>        -0.1985
     22 C15        -0.0058   -2.7960   -4.8948 C.2       1 <0>         0.5556
     23 O1          0.0061   -4.0119   -4.9015 O.2       1 <0>        -0.5600
     24 N8         -0.0205   -2.1158   -6.0583 N.am      1 <0>        -0.6793
     25 C16        -0.0222   -2.8414   -7.3310 C.3       1 <0>         0.0733
     26 H1         -0.6020   -3.7584   -7.2256 H         1 <0>         0.0773
     27 C17        -0.6480   -1.9644   -8.4172 C.3       1 <0>        -0.0801
     28 C18        -2.1222   -1.7198   -8.0888 C.3       1 <0>        -0.1777
     29 C19        -2.7386   -0.8559   -9.1588 C.2       1 <0>         0.4909
     30 O2         -2.0616   -0.4715  -10.0971 O.co2     1 <0>        -0.6975
     31 O3         -3.9143   -0.5414   -9.0862 O.co2     1 <0>        -0.7207
     32 C20         1.3940   -3.1839   -7.7158 C.2       1 <0>         0.4958
     33 O4          2.3190   -2.8526   -6.9939 O.co2     1 <0>        -0.6970
     34 O5          1.6147   -3.7923   -8.7491 O.co2     1 <0>        -0.7014
     35 H2          1.0048    1.8381    0.0023 H         1 <0>         0.0502
     36 H3         -0.5450    1.8219   -0.8730 H         1 <0>         0.0690
     37 H4         -0.5280    1.8123    0.9069 H         1 <0>         0.0657
     38 H5          0.5496   -1.6879    1.1262 H         1 <0>         0.1015
     39 H6          0.5371   -0.1514    2.0246 H         1 <0>         0.0948
     40 H7         -1.4361   -2.9733    0.8382 H         1 <0>         0.1815
     41 H8         -7.6209   -0.5150    4.4689 H         1 <0>         0.4148
     42 H9         -7.5132   -2.0229    3.7358 H         1 <0>         0.4190
     43 H10        -2.6346    2.0814    3.6347 H         1 <0>         0.4250
     44 H11        -4.0722    2.4880    4.4032 H         1 <0>         0.4139
     45 H12         0.0253   -2.6282   -0.2785 H         1 <0>         0.1208
     46 H13         0.0217   -3.8493   -2.4096 H         1 <0>         0.1351
     47 H14        -0.0287   -0.1208   -4.5353 H         1 <0>         0.1282
     48 H15        -0.0359    1.0910   -2.3989 H         1 <0>         0.1244
     49 H16        -0.0300   -1.1459   -6.0530 H         1 <0>         0.3877
     50 H17        -0.1225   -1.0104   -8.4615 H         1 <0>         0.0543
     51 H18        -0.5691   -2.4677   -9.3808 H         1 <0>         0.0783
     52 H19        -2.6477   -2.6737   -8.0445 H         1 <0>         0.0522
     53 H20        -2.2011   -1.2164   -7.1252 H         1 <0>         0.0501
@<TRIPOS>BOND
     1    1    2 1
     2    1   35 1
     3    1   36 1
     4    1   37 1
     5    2    3 1
     6    2   16 1
     7    3    4 1
     8    3   38 1
     9    3   39 1
    10    4    9 ar
    11    4    5 ar
    12    5    6 ar
    13    5   40 1
    14    6    7 ar
    15    7   13 ar
    16    7    8 ar
    17    8    9 ar
    18    8   10 ar
    19   10   11 ar
    20   10   15 1
    21   11   12 ar
    22   12   13 ar
    23   12   14 1
    24   14   41 1
    25   14   42 1
    26   15   43 1
    27   15   44 1
    28   16   21 ar
    29   16   17 ar
    30   17   18 ar
    31   17   45 1
    32   18   19 ar
    33   18   46 1
    34   19   20 ar
    35   19   22 1
    36   20   21 ar
    37   20   47 1
    38   21   48 1
    39   22   23 2
    40   22   24 am
    41   24   25 1
    42   24   49 1
    43   25   26 1
    44   25   27 1
    45   25   32 1
    46   27   28 1
    47   27   50 1
    48   27   51 1
    49   28   29 1
    50   28   52 1
    51   28   53 1
    52   29   30 2
    53   29   31 1
    54   32   33 2
    55   32   34 1
@<TRIPOS>MOLECULE
ZINC06920406
   53    55     0     0     0
SMALL
USER_CHARGES

@<TRIPOS>ATOM
      1 C1         -0.0178    1.4608    0.0101 C.3       1 <0>         0.0941
      2 N1          0.0021   -0.0041    0.0020 N.pl3     1 <0>        -0.6227
      3 C2          0.0241   -0.7433    1.2666 C.3       1 <0>         0.1846
      4 C3         -1.3889   -1.0161    1.7137 C.ar      1 <0>         0.0297
      5 C4         -1.9892   -2.2351    1.3999 C.ar      1 <0>         0.1557
      6 N2         -3.2219   -2.4965    1.7797 N.ar      1 <0>        -0.4368
      7 C5         -3.9051   -1.5830    2.4739 C.ar      1 <0>         0.3719
      8 C6         -3.2902   -0.3458    2.7901 C.ar      1 <0>        -0.0918
      9 N3         -2.0425   -0.1038    2.4012 N.ar      1 <0>        -0.3728
     10 C7         -4.0706    0.6301    3.5527 C.ar      1 <0>         0.5431
     11 N4         -5.3055    0.2953    3.9004 N.ar      1 <0>        -0.6300
     12 C8         -5.8196   -0.8850    3.5693 C.ar      1 <0>         0.6360
     13 N5         -5.1609   -1.7987    2.8845 N.ar      1 <0>        -0.5986
     14 N6         -7.1130   -1.1692    3.9639 N.pl3     1 <0>        -0.8100
     15 N7         -3.5402    1.8539    3.8976 N.pl3     1 <0>        -0.7944
     16 C9          0.0000   -0.6928   -1.2059 C.ar      1 <0>         0.2189
     17 C10         0.0132   -2.0849   -1.2118 C.ar      1 <0>        -0.2116
     18 C11         0.0112   -2.7693   -2.4056 C.ar      1 <0>        -0.0155
     19 C12        -0.0041   -2.0653   -3.6133 C.ar      1 <0>        -0.1616
     20 C13        -0.0173   -0.6674   -3.6040 C.ar      1 <0>        -0.0356
     21 C14        -0.0210    0.0112   -2.4068 C.ar      1 <0>        -0.1983
     22 C15        -0.0058   -2.7960   -4.8948 C.2       1 <0>         0.5487
     23 O1          0.0061   -4.0119   -4.9015 O.2       1 <0>        -0.5585
     24 N8         -0.0205   -2.1158   -6.0583 N.am      1 <0>        -0.6789
     25 C16        -0.0222   -2.8414   -7.3310 C.3       1 <0>         0.0745
     26 H1          0.5768   -3.7469   -7.2338 H         1 <0>         0.0773
     27 C17         0.5711   -1.9524   -8.4257 C.3       1 <0>        -0.0822
     28 C18         2.0446   -1.6789   -8.1177 C.3       1 <0>        -0.1766
     29 C19         2.6291   -0.8032   -9.1959 C.2       1 <0>         0.4909
     30 O2          1.9317   -0.4323  -10.1247 O.co2     1 <0>        -0.6980
     31 O3          3.7993   -0.4657   -9.1396 O.co2     1 <0>        -0.7201
     32 C20        -1.4367   -3.2117   -7.6962 C.2       1 <0>         0.4981
     33 O4         -2.3634   -2.5041   -7.3399 O.co2     1 <0>        -0.6991
     34 O5         -1.6542   -4.2188   -8.3480 O.co2     1 <0>        -0.7022
     35 H2          1.0048    1.8381    0.0023 H         1 <0>         0.0507
     36 H3         -0.5450    1.8219   -0.8730 H         1 <0>         0.0690
     37 H4         -0.5280    1.8123    0.9069 H         1 <0>         0.0658
     38 H5          0.5496   -1.6879    1.1262 H         1 <0>         0.1014
     39 H6          0.5371   -0.1514    2.0246 H         1 <0>         0.0950
     40 H7         -1.4361   -2.9733    0.8382 H         1 <0>         0.1814
     41 H8         -7.6209   -0.5150    4.4689 H         1 <0>         0.4147
     42 H9         -7.5132   -2.0229    3.7358 H         1 <0>         0.4190
     43 H10        -2.6346    2.0814    3.6347 H         1 <0>         0.4250
     44 H11        -4.0722    2.4880    4.4032 H         1 <0>         0.4139
     45 H12         0.0253   -2.6282   -0.2785 H         1 <0>         0.1211
     46 H13         0.0217   -3.8493   -2.4096 H         1 <0>         0.1354
     47 H14        -0.0287   -0.1208   -4.5353 H         1 <0>         0.1292
     48 H15        -0.0359    1.0910   -2.3989 H         1 <0>         0.1249
     49 H16        -0.0300   -1.1459   -6.0530 H         1 <0>         0.3899
     50 H17         0.4888   -2.4573   -9.3882 H         1 <0>         0.0717
     51 H18         0.0264   -1.0090   -8.4626 H         1 <0>         0.0594
     52 H19         2.1270   -1.1740   -7.1552 H         1 <0>         0.0514
     53 H20         2.5893   -2.6223   -8.0808 H         1 <0>         0.0527
@<TRIPOS>BOND
     1    1    2 1
     2    1   35 1
     3    1   36 1
     4    1   37 1
     5    2    3 1
     6    2   16 1
     7    3    4 1
     8    3   38 1
     9    3   39 1
    10    4    9 ar
    11    4    5 ar
    12    5    6 ar
    13    5   40 1
    14    6    7 ar
    15    7   13 ar
    16    7    8 ar
    17    8    9 ar
    18    8   10 ar
    19   10   11 ar
    20   10   15 1
    21   11   12 ar
    22   12   13 ar
    23   12   14 1
    24   14   41 1
    25   14   42 1
    26   15   43 1
    27   15   44 1
    28   16   21 ar
    29   16   17 ar
    30   17   18 ar
    31   17   45 1
    32   18   19 ar
    33   18   46 1
    34   19   20 ar
    35   19   22 1
    36   20   21 ar
    37   20   47 1
    38   21   48 1
    39   22   23 2
    40   22   24 am
    41   24   25 1
    42   24   49 1
    43   25   26 1
    44   25   27 1
    45   25   32 1
    46   27   28 1
    47   27   50 1
    48   27   51 1
    49   28   29 1
    50   28   52 1
    51   28   53 1
    52   29   30 2
    53   29   31 1
    54   32   33 2
    55   32   34 1
@<TRIPOS>MOLECULE
ZINC28711171
   50    52     0     0     0
SMALL
USER_CHARGES
(2S)-2-[[4-[(2,4-diaminopteridin-6-yl)-methyl-amino]benzoyl]amino]pentanedioic acid
@<TRIPOS>ATOM
      1 C1          0.6764   -6.9958    1.8659 C.3       1 <0>         0.0962
      2 N1          1.0495   -6.3059    0.6285 N.pl3     1 <0>        -0.5549
      3 C2          1.4064   -4.9614    0.6620 C.ar      1 <0>         0.1320
      4 C3          2.7460   -4.6010    0.7791 C.ar      1 <0>        -0.1197
      5 C4          3.1021   -3.2721    0.8121 C.ar      1 <0>        -0.0579
      6 C5          2.1172   -2.2837    0.7279 C.ar      1 <0>        -0.0917
      7 C6          0.7724   -2.6488    0.6158 C.ar      1 <0>        -0.0770
      8 C7          0.4231   -3.9794    0.5780 C.ar      1 <0>        -0.1166
      9 C8          2.4956   -0.8581    0.7635 C.2       1 <0>         0.5491
     10 O1          3.6652   -0.5419    0.8661 O.2       1 <0>        -0.5517
     11 N2          1.5448    0.0937    0.6822 N.am      1 <0>        -0.6894
     12 C9          1.9205    1.5092    0.7175 C.3       1 <0>         0.1032
     13 H1          2.8914    1.6072    0.2098 H         1 <0>         0.0857
     14 C10         0.8458    2.3399    0.0133 C.3       1 <0>        -0.0850
     15 C11         0.8052    1.9688   -1.4705 C.3       1 <0>        -0.1527
     16 C12        -0.2533    2.7869   -2.1641 C.2       1 <0>         0.4608
     17 O2         -0.9081    3.5849   -1.5361 O.co2     1 <0>        -0.6393
     18 O3         -0.4688    2.6291   -3.4796 O.co2     1 <0>        -0.7899
     19 C13         2.0455    1.9602    2.1500 C.2       1 <0>         0.4650
     20 O4          1.8417    1.1793    3.0492 O.co2     1 <0>        -0.6404
     21 O5          2.3833    3.2294    2.4271 O.co2     1 <0>        -0.7684
     22 C14         1.0469   -6.9948   -0.5797 C.ar      1 <0>         0.3359
     23 C15         1.2371   -6.2950   -1.7813 C.ar      1 <0>         0.1217
     24 N3          1.2378   -6.9288   -2.9323 N.ar      1 <0>        -0.4108
     25 C16         1.0557   -8.2527   -2.9602 C.ar      1 <0>         0.3225
     26 C17         0.8640   -8.9585   -1.7486 C.ar      1 <0>        -0.0519
     27 N4          0.8709   -8.3038   -0.5879 N.ar      1 <0>        -0.4634
     28 C18         0.6729  -10.3636   -1.8127 C.ar      1 <0>         0.5304
     29 N5          0.6832  -10.9465   -3.0017 N.ar      1 <0>        -0.6334
     30 C19         0.8670  -10.2436   -4.1155 C.ar      1 <0>         0.6194
     31 N6          1.0491   -8.9368   -4.1125 N.ar      1 <0>        -0.5935
     32 N7          0.8669  -10.9100   -5.3273 N.pl3     1 <0>        -0.8419
     33 N8          0.4808  -11.1034   -0.6651 N.pl3     1 <0>        -0.8287
     34 H2          0.4284   -8.0436    1.6410 H         1 <0>         0.0874
     35 H3         -0.1978   -6.4998    2.3129 H         1 <0>         0.0597
     36 H4          1.5185   -6.9619    2.5728 H         1 <0>         0.0588
     37 H5          3.5065   -5.3650    0.8437 H         1 <0>         0.1267
     38 H6          4.1416   -2.9931    0.9025 H         1 <0>         0.1411
     39 H7          0.0088   -1.8875    0.5550 H         1 <0>         0.1374
     40 H8         -0.6152   -4.2621    0.4869 H         1 <0>         0.1304
     41 H9          0.4867   -0.1924    0.5893 H         1 <0>         0.4069
     42 H10        -0.1338    2.1346    0.4696 H         1 <0>         0.0586
     43 H11         1.0820    3.4092    0.1175 H         1 <0>         0.0851
     44 H12         1.7848    2.1741   -1.9267 H         1 <0>         0.0604
     45 H13         0.5691    0.8995   -1.5747 H         1 <0>         0.0582
     46 H14         1.3840   -5.2252   -1.7598 H         1 <0>         0.1799
     47 H15         1.0169  -10.3507   -6.2626 H         1 <0>         0.4384
     48 H16         0.7168  -11.9993   -5.3559 H         1 <0>         0.4320
     49 H17         0.3340  -12.1916   -0.7304 H         1 <0>         0.4295
     50 H18         0.4743  -10.6054    0.3157 H         1 <0>         0.4458
@<TRIPOS>BOND
     1    1    2 1
     2    1   34 1
     3    1   35 1
     4    1   36 1
     5    2    3 1
     6    2   22 1
     7    3    8 ar
     8    3    4 ar
     9    4    5 ar
    10    4   37 1
    11    5    6 ar
    12    5   38 1
    13    6    7 ar
    14    6    9 1
    15    7    8 ar
    16    7   39 1
    17    8   40 1
    18    9   10 2
    19    9   11 am
    20   11   12 1
    21   11   41 1
    22   12   13 1
    23   12   14 1
    24   12   19 1
    25   14   15 1
    26   14   42 1
    27   14   43 1
    28   15   16 1
    29   15   44 1
    30   15   45 1
    31   16   17 2
    32   16   18 1
    33   19   20 2
    34   19   21 1
    35   22   27 ar
    36   22   23 ar
    37   23   24 ar
    38   23   46 1
    39   24   25 ar
    40   25   31 ar
    41   25   26 ar
    42   26   27 ar
    43   26   28 ar
    44   28   29 ar
    45   28   33 1
    46   29   30 ar
    47   30   31 ar
    48   30   32 1
    49   32   47 1
    50   32   48 1
    51   33   49 1
    52   33   50 1
@<TRIPOS>MOLECULE
ZINC28711172
   50    52     0     0     0
SMALL
USER_CHARGES
(2R)-2-[[4-[(2,4-diaminopteridin-6-yl)-methyl-amino]benzoyl]amino]pentanedioic acid
@<TRIPOS>ATOM
      1 C1          4.3447    2.1529   -1.2670 C.3       1 <0>         0.0963
      2 N1          3.5758    2.1304   -0.0202 N.pl3     1 <0>        -0.5551
      3 C2          2.5936    1.1641    0.1741 C.ar      1 <0>         0.1321
      4 C3          1.2991    1.3868   -0.2874 C.ar      1 <0>        -0.1206
      5 C4          0.3254    0.4333   -0.0964 C.ar      1 <0>        -0.0581
      6 C5          0.6372   -0.7599    0.5619 C.ar      1 <0>        -0.0917
      7 C6          1.9379   -0.9805    1.0242 C.ar      1 <0>        -0.0769
      8 C7          2.9072   -0.0231    0.8301 C.ar      1 <0>        -0.1157
      9 C8         -0.4045   -1.7839    0.7688 C.2       1 <0>         0.5491
     10 O1         -1.5356   -1.5906    0.3665 O.2       1 <0>        -0.5517
     11 N2         -0.1024   -2.9338    1.4036 N.am      1 <0>        -0.6895
     12 C9         -1.1368   -3.9507    1.6091 C.3       1 <0>         0.1032
     13 H1         -2.0900   -3.4261    1.7709 H         1 <0>         0.0858
     14 C10        -0.7715   -4.8125    2.8194 C.3       1 <0>        -0.0850
     15 C11        -0.7937   -3.9514    4.0839 C.3       1 <0>        -0.1527
     16 C12        -0.4339   -4.8002    5.2760 C.2       1 <0>         0.4608
     17 O2         -0.1853   -5.9735    5.1293 O.co2     1 <0>        -0.6393
     18 O3         -0.3897   -4.2528    6.5008 O.co2     1 <0>        -0.7899
     19 C13        -1.2351   -4.8220    0.3834 C.2       1 <0>         0.4650
     20 O4         -0.5151   -4.6147   -0.5645 O.co2     1 <0>        -0.6403
     21 O5         -2.1227   -5.8282    0.3447 O.co2     1 <0>        -0.7684
     22 C14         3.8277    3.0747    0.9693 C.ar      1 <0>         0.3357
     23 C15         2.9799    3.1585    2.0847 C.ar      1 <0>         0.1216
     24 N3          3.2018    4.0446    3.0292 N.ar      1 <0>        -0.4109
     25 C16         4.2449    4.8743    2.9280 C.ar      1 <0>         0.3227
     26 C17         5.1001    4.7897    1.8036 C.ar      1 <0>        -0.0518
     27 N4          4.8661    3.8830    0.8554 N.ar      1 <0>        -0.4631
     28 C18         6.1985    5.6855    1.7260 C.ar      1 <0>         0.5305
     29 N5          6.3705    6.5567    2.7083 N.ar      1 <0>        -0.6334
     30 C19         5.5415    6.6012    3.7472 C.ar      1 <0>         0.6196
     31 N6          4.5061    5.7923    3.8687 N.ar      1 <0>        -0.5936
     32 N7          5.7739    7.5342    4.7411 N.pl3     1 <0>        -0.8418
     33 N8          7.0648    5.6496    0.6539 N.pl3     1 <0>        -0.8286
     34 H2          5.0682    2.9809   -1.2367 H         1 <0>         0.0874
     35 H3          3.6609    2.2943   -2.1170 H         1 <0>         0.0585
     36 H4          4.8823    1.2003   -1.3835 H         1 <0>         0.0597
     37 H5          1.0589    2.3088   -0.7959 H         1 <0>         0.1283
     38 H6         -0.6775    0.6048   -0.4586 H         1 <0>         0.1415
     39 H7          2.1817   -1.9011    1.5334 H         1 <0>         0.1369
     40 H8          3.9122   -0.1928    1.1873 H         1 <0>         0.1288
     41 H9          0.9208   -3.1088    1.7674 H         1 <0>         0.4069
     42 H10        -1.4998   -5.6307    2.9201 H         1 <0>         0.0852
     43 H11         0.2353   -5.2329    2.6797 H         1 <0>         0.0586
     44 H12        -0.0654   -3.1332    3.9831 H         1 <0>         0.0580
     45 H13        -1.8005   -3.5310    4.2236 H         1 <0>         0.0605
     46 H14         2.1369    2.4885    2.1672 H         1 <0>         0.1795
     47 H15         5.1023    7.5906    5.6104 H         1 <0>         0.4383
     48 H16         6.6304    8.2199    4.6624 H         1 <0>         0.4320
     49 H17         7.9117    6.3501    0.6074 H         1 <0>         0.4296
     50 H18         6.9090    4.9205   -0.1549 H         1 <0>         0.4459
@<TRIPOS>BOND
     1    1    2 1
     2    1   34 1
     3    1   35 1
     4    1   36 1
     5    2    3 1
     6    2   22 1
     7    3    8 ar
     8    3    4 ar
     9    4    5 ar
    10    4   37 1
    11    5    6 ar
    12    5   38 1
    13    6    7 ar
    14    6    9 1
    15    7    8 ar
    16    7   39 1
    17    8   40 1
    18    9   10 2
    19    9   11 am
    20   11   12 1
    21   11   41 1
    22   12   13 1
    23   12   14 1
    24   12   19 1
    25   14   15 1
    26   14   42 1
    27   14   43 1
    28   15   16 1
    29   15   44 1
    30   15   45 1
    31   16   17 2
    32   16   18 1
    33   19   20 2
    34   19   21 1
    35   22   27 ar
    36   22   23 ar
    37   23   24 ar
    38   23   46 1
    39   24   25 ar
    40   25   31 ar
    41   25   26 ar
    42   26   27 ar
    43   26   28 ar
    44   28   29 ar
    45   28   33 1
    46   29   30 ar
    47   30   31 ar
    48   30   32 1
    49   32   47 1
    50   32   48 1
    51   33   49 1
    52   33   50 1
