@<TRIPOS>MOLECULE
ZINC19795769
   43    44     0     0     0
SMALL
USER_CHARGES

@<TRIPOS>ATOM
      1 C1          4.4591    0.1549   -3.3236 C.3       1 <0>        -0.1568
      2 C2          3.2486    0.1012   -4.2577 C.3       1 <0>         0.1305
      3 H1          3.4015   -0.5762   -5.0978 H         1 <0>         0.0999
      4 C3          1.9333   -0.1482   -3.5194 C.3       1 <0>         0.0923
      5 H2          2.0316   -0.2175   -2.4360 H         1 <0>         0.1466
      6 C4          1.6159    1.2331   -4.0275 C.2       1 <0>         0.5315
      7 O1          0.6363    1.9368   -3.9004 O.2       1 <0>        -0.4777
      8 N1          2.7819    1.4264   -4.6678 N.am      1 <0>        -0.9581
      9 S1          3.4277    2.6636   -5.5593 S.o2      1 <0>         2.7691
     10 O2          2.8595    3.8986   -5.0416 O.2       1 <0>        -1.0576
     11 O3          4.8696    2.6095   -5.3746 O.2       1 <0>        -1.0646
     12 O4          3.0481    2.4294   -6.9439 O.3       1 <0>        -1.0718
     13 N2          1.1072   -1.2108   -4.0978 N.am      1 <0>        -0.6919
     14 C5          0.2230   -1.8728   -3.3256 C.2       1 <0>         0.5285
     15 O5          0.1785   -1.6565   -2.1307 O.2       1 <0>        -0.4829
     16 C6         -0.6950   -2.8645   -3.9337 C.2       1 <0>         0.1367
     17 N3         -1.6197   -3.4268   -3.2084 N.2       1 <0>        -0.2739
     18 O6         -1.8204   -3.0106   -1.8699 O.3       1 <0>        -0.1219
     19 C7         -2.8658   -3.7118   -1.1937 C.3       1 <0>         0.0352
     20 C8         -4.1865   -3.4978   -1.9358 C.3       1 <0>        -0.1453
     21 C9         -2.5374   -5.2057   -1.1575 C.3       1 <0>        -0.1436
     22 C10        -2.9909   -3.1907    0.2148 C.2       1 <0>         0.5173
     23 O7         -2.2532   -2.3012    0.6035 O.co2     1 <0>        -0.6597
     24 O8         -3.8299   -3.6586    0.9657 O.co2     1 <0>        -0.6885
     25 C11        -0.5615   -3.2159   -5.3639 C.2       1 <0>         0.1513
     26 C12        -1.3333   -4.2069   -5.9092 C.2       1 <0>        -0.1868
     27 S2         -0.7568   -4.1857   -7.6014 S.3       1 <0>        -0.0089
     28 C13         0.4418   -2.8731   -7.4161 C.2       1 <0>         0.3983
     29 N4          0.3072   -2.5685   -6.1393 N.2       1 <0>        -0.5762
     30 N5          1.2857   -2.3187   -8.3637 N.pl3     1 <0>        -0.7918
     31 H3          4.3279    0.9640   -2.6050 H         1 <0>         0.0668
     32 H4          4.5500   -0.7922   -2.7917 H         1 <0>         0.0740
     33 H5          5.3618    0.3313   -3.9084 H         1 <0>         0.0780
     34 H6          1.1966   -1.4379   -5.0366 H         1 <0>         0.4183
     35 H7         -4.0960   -3.8747   -2.9546 H         1 <0>         0.0509
     36 H8         -4.9840   -4.0327   -1.4200 H         1 <0>         0.0655
     37 H9         -4.4205   -2.4335   -1.9616 H         1 <0>         0.0511
     38 H10        -1.5965   -5.3582   -0.6287 H         1 <0>         0.0505
     39 H11        -3.3349   -5.7406   -0.6416 H         1 <0>         0.0656
     40 H12        -2.4469   -5.5826   -2.1762 H         1 <0>         0.0501
     41 H13        -2.0834   -4.8300   -5.4449 H         1 <0>         0.2049
     42 H14         1.2715   -2.6460   -9.2767 H         1 <0>         0.4212
     43 H15         1.8911   -1.6029   -8.1145 H         1 <0>         0.4242
@<TRIPOS>BOND
     1    1    2 1
     2    1   31 1
     3    1   32 1
     4    1   33 1
     5    2    3 1
     6    2    8 1
     7    2    4 1
     8    4    5 1
     9    4    6 1
    10    4   13 1
    11    6    7 2
    12    6    8 am
    13    8    9 1
    14    9   10 2
    15    9   11 2
    16    9   12 1
    17   13   14 am
    18   13   34 1
    19   14   15 2
    20   14   16 1
    21   16   17 2
    22   16   25 1
    23   17   18 1
    24   18   19 1
    25   19   20 1
    26   19   21 1
    27   19   22 1
    28   20   35 1
    29   20   36 1
    30   20   37 1
    31   21   38 1
    32   21   39 1
    33   21   40 1
    34   22   23 2
    35   22   24 1
    36   25   29 1
    37   25   26 2
    38   26   27 1
    39   26   41 1
    40   27   28 1
    41   28   29 2
    42   28   30 1
    43   30   42 1
    44   30   43 1
