@<TRIPOS>MOLECULE
ZINC36175852
   23    25     0     0     0
SMALL
USER_CHARGES

@<TRIPOS>ATOM
      1 C1         -0.0187    1.5258    0.0104 C.3       1 <0>        -0.1274
      2 C2          0.0021   -0.0041    0.0020 C.3       1 <0>        -0.1474
      3 C3          0.6616   -0.6174   -1.2679 C.3       1 <0>         0.0837
      4 H1          0.0370   -0.6220   -2.1612 H         1 <0>         0.1456
      5 C4          2.0311    0.1107   -1.4165 C.3       1 <0>        -0.1495
      6 C5          2.8732   -0.5054   -0.2704 C.3       1 <0>        -0.1424
      7 C6          1.8778   -1.5067    0.3885 C.3       1 <0>         0.0803
      8 H2          2.3375   -2.3114    0.9623 H         1 <0>         0.1470
      9 C7          0.8402   -0.6387    1.1595 C.3       1 <0>        -0.1749
     10 H3          1.3180    0.0895    1.8150 H         1 <0>         0.1515
     11 C8         -0.1786   -1.5331    1.8435 C.2       1 <0>         0.5119
     12 O1         -0.1118   -1.9725    2.9670 O.2       1 <0>        -0.4015
     13 O2         -1.1726   -1.7421    0.9566 O.3       1 <0>        -0.3269
     14 C9         -1.3626   -0.6376    0.2067 C.2       1 <0>         0.5119
     15 O3         -2.4168   -0.2300   -0.2201 O.2       1 <0>        -0.3990
     16 O4          1.0698   -1.9346   -0.7742 O.3       1 <0>        -0.3598
     17 H4          1.0036    1.9028    0.0397 H         1 <0>         0.0852
     18 H5         -0.5136    1.8874   -0.8909 H         1 <0>         0.0826
     19 H6         -0.5608    1.8770    0.8884 H         1 <0>         0.0713
     20 H7          2.4806   -0.1062   -2.3856 H         1 <0>         0.0881
     21 H8          1.9145    1.1852   -1.2755 H         1 <0>         0.0927
     22 H9          3.7419   -1.0299   -0.6682 H         1 <0>         0.0895
     23 H10         3.1767    0.2622    0.4415 H         1 <0>         0.0875
@<TRIPOS>BOND
     1    1    2 1
     2    1   17 1
     3    1   18 1
     4    1   19 1
     5    2    9 1
     6    2   14 1
     7    2    3 1
     8    3    4 1
     9    3   16 1
    10    3    5 1
    11    5    6 1
    12    5   20 1
    13    5   21 1
    14    6    7 1
    15    6   22 1
    16    6   23 1
    17    7    8 1
    18    7    9 1
    19    7   16 1
    20    9   10 1
    21    9   11 1
    22   11   12 2
    23   11   13 1
    24   13   14 1
    25   14   15 2
@<TRIPOS>MOLECULE
ZINC05707379
   54    54     0     0     0
SMALL
USER_CHARGES

@<TRIPOS>ATOM
      1 C1         -0.0217    1.6181   -0.0377 C.3       1 <0>        -0.1311
      2 C2          0.0484    0.0902   -0.0770 C.3       1 <0>         0.1453
      3 C3          0.8150   -0.4084    1.1208 C.2       1 <0>        -0.1006
      4 C4          1.9098   -1.1080    0.9530 C.2       1 <0>        -0.1746
      5 C5          2.6764   -1.6067    2.1508 C.3       1 <0>         0.1457
      6 H1          2.1727   -1.2904    3.0642 H         1 <0>         0.0855
      7 C6          2.7530   -3.1340    2.1105 C.3       1 <0>        -0.1496
      8 C7          3.7357   -3.6351    3.1329 C.2       1 <0>        -0.0346
      9 C8          4.6847   -2.8481    3.6280 C.2       1 <0>        -0.2673
     10 C9          4.7801   -1.4476    3.1772 C.2       1 <0>         0.5175
     11 O1          5.5217   -0.6573    3.7273 O.2       1 <0>        -0.4794
     12 O2          4.0080   -1.0717    2.1261 O.3       1 <0>        -0.3586
     13 C10        -1.3686   -0.4861   -0.0516 C.3       1 <0>         0.1463
     14 H2         -1.8736   -0.1690    0.8608 H         1 <0>         0.0602
     15 C11        -2.1469    0.0201   -1.2677 C.3       1 <0>        -0.1478
     16 C12        -3.5988   -0.4541   -1.1776 C.3       1 <0>         0.1152
     17 H3         -3.6207   -1.5384   -1.0682 H         1 <0>         0.1397
     18 C13        -4.3345   -0.0610   -2.4327 C.2       1 <0>        -0.1517
     19 C14        -4.8205   -1.0014   -3.2426 C.2       1 <0>        -0.1405
     20 C15        -4.7641   -2.4102   -2.8459 C.2       1 <0>        -0.0840
     21 C16        -5.1552   -3.3703   -3.7091 C.2       1 <0>        -0.1597
     22 C17        -5.6365   -3.0038   -5.0431 C.2       1 <0>        -0.0868
     23 C18        -6.0230   -3.9523   -5.8961 C.2       1 <0>        -0.1856
     24 C19        -6.5181   -3.5753   -7.2686 C.3       1 <0>         0.1127
     25 O3         -5.9237   -4.4358   -8.2424 O.3       1 <0>        -0.5706
     26 O4         -4.2284    0.1516   -0.0468 O.3       1 <0>        -0.5215
     27 O5         -1.3031   -1.9132   -0.0884 O.3       1 <0>        -0.7492
     28 P1         -1.9046   -2.8488    1.0757 P.3       1 <0>         2.1208
     29 O6         -1.2884   -2.4293    2.4536 O.2       1 <0>        -1.1838
     30 O7         -3.4615   -2.6821    1.1275 O.3       1 <0>        -1.1720
     31 O8         -1.5492   -4.3454    0.7786 O.3       1 <0>        -1.1732
     32 O9          0.7105   -0.3256   -1.2731 O.3       1 <0>        -0.5617
     33 H4          0.9879    2.0288   -0.0557 H         1 <0>         0.0594
     34 H5         -0.5762    1.9788   -0.9040 H         1 <0>         0.0645
     35 H6         -0.5267    1.9353    0.8747 H         1 <0>         0.0700
     36 H7          0.4619   -0.1890    2.1176 H         1 <0>         0.1238
     37 H8          2.2629   -1.3275   -0.0438 H         1 <0>         0.1200
     38 H9          1.7682   -3.5503    2.3224 H         1 <0>         0.1304
     39 H10         3.0708   -3.4532    1.1180 H         1 <0>         0.1023
     40 H11         3.6681   -4.6581    3.4727 H         1 <0>         0.1333
     41 H12         5.3825   -3.2323    4.3572 H         1 <0>         0.1425
     42 H13        -2.1212    1.1096   -1.2877 H         1 <0>         0.0603
     43 H14        -1.6928   -0.3708   -2.1782 H         1 <0>         0.0753
     44 H15        -4.4679    0.9828   -2.6759 H         1 <0>         0.1082
     45 H16        -5.2560   -0.7246   -4.1914 H         1 <0>         0.1108
     46 H17        -4.4092   -2.6805   -1.8623 H         1 <0>         0.1460
     47 H18        -5.1136   -4.4091   -3.4166 H         1 <0>         0.1209
     48 H19        -5.6781   -1.9650   -5.3357 H         1 <0>         0.1116
     49 H20        -5.9813   -4.9911   -5.6036 H         1 <0>         0.1163
     50 H21        -7.6024   -3.6796   -7.3050 H         1 <0>         0.0505
     51 H22        -6.2451   -2.5418   -7.4821 H         1 <0>         0.0471
     52 H23        -6.1979   -4.2501   -9.1509 H         1 <0>         0.3740
     53 H24        -4.2453    1.1180   -0.0768 H         1 <0>         0.3426
     54 H25         0.7910   -1.2849   -1.3650 H         1 <0>         0.3853
@<TRIPOS>BOND
     1    1    2 1
     2    1   33 1
     3    1   34 1
     4    1   35 1
     5    2    3 1
     6    2   13 1
     7    2   32 1
     8    3    4 2
     9    3   36 1
    10    4    5 1
    11    4   37 1
    12    5    6 1
    13    5   12 1
    14    5    7 1
    15    7    8 1
    16    7   38 1
    17    7   39 1
    18    8    9 2
    19    8   40 1
    20    9   10 1
    21    9   41 1
    22   10   11 2
    23   10   12 1
    24   13   14 1
    25   13   15 1
    26   13   27 1
    27   15   16 1
    28   15   42 1
    29   15   43 1
    30   16   17 1
    31   16   18 1
    32   16   26 1
    33   18   19 2
    34   18   44 1
    35   19   20 1
    36   19   45 1
    37   20   21 2
    38   20   46 1
    39   21   22 1
    40   21   47 1
    41   22   23 2
    42   22   48 1
    43   23   24 1
    44   23   49 1
    45   24   25 1
    46   24   50 1
    47   24   51 1
    48   25   52 1
    49   26   53 1
    50   27   28 1
    51   28   29 2
    52   28   30 1
    53   28   31 1
    54   32   54 1
@<TRIPOS>MOLECULE
ZINC05707379
   55    55     0     0     0
SMALL
USER_CHARGES

@<TRIPOS>ATOM
      1 C1         -0.0218    1.6183   -0.0376 C.3       1 <0>        -0.1369
      2 C2          0.0484    0.0904   -0.0770 C.3       1 <0>         0.1487
      3 C3          0.8151   -0.4082    1.1208 C.2       1 <0>        -0.1227
      4 C4          1.9099   -1.1078    0.9529 C.2       1 <0>        -0.1609
      5 C5          2.6765   -1.6064    2.1507 C.3       1 <0>         0.1411
      6 H1          2.1728   -1.2901    3.0641 H         1 <0>         0.0868
      7 C6          2.7532   -3.1337    2.1104 C.3       1 <0>        -0.1444
      8 C7          3.7359   -3.6348    3.1328 C.2       1 <0>        -0.0507
      9 C8          4.6849   -2.8478    3.6278 C.2       1 <0>        -0.2512
     10 C9          4.7802   -1.4472    3.1771 C.2       1 <0>         0.5142
     11 O1          5.5217   -0.6569    3.7273 O.2       1 <0>        -0.4651
     12 O2          4.0081   -1.0713    2.1261 O.3       1 <0>        -0.3568
     13 C10        -1.3686   -0.4860   -0.0517 C.3       1 <0>         0.1540
     14 H2         -1.8736   -0.1689    0.8608 H         1 <0>         0.0763
     15 C11        -2.1469    0.0202   -1.2677 C.3       1 <0>        -0.1552
     16 C12        -3.5988   -0.4541   -1.1776 C.3       1 <0>         0.1228
     17 H3         -3.6206   -1.5384   -1.0682 H         1 <0>         0.1208
     18 C13        -4.3345   -0.0610   -2.4327 C.2       1 <0>        -0.1629
     19 C14        -4.8205   -1.0014   -3.2426 C.2       1 <0>        -0.1303
     20 C15        -4.7641   -2.4102   -2.8459 C.2       1 <0>        -0.1030
     21 C16        -5.1552   -3.3703   -3.7091 C.2       1 <0>        -0.1383
     22 C17        -5.6365   -3.0038   -5.0431 C.2       1 <0>        -0.1057
     23 C18        -6.0230   -3.9523   -5.8961 C.2       1 <0>        -0.1630
     24 C19        -6.5181   -3.5753   -7.2686 C.3       1 <0>         0.1077
     25 O3         -5.9237   -4.4358   -8.2424 O.3       1 <0>        -0.5711
     26 O4         -4.2284    0.1515   -0.0468 O.3       1 <0>        -0.5260
     27 O5         -1.3030   -1.9131   -0.0884 O.3       1 <0>        -0.7516
     28 P1         -1.9044   -2.8488    1.0755 P.3       1 <0>         2.1869
     29 O6         -3.3936   -2.5021    1.2971 O.2       1 <0>        -1.0862
     30 O7         -1.7715   -4.3942    0.6441 O.3       1 <0>        -0.9009
     31 O8         -1.1198   -2.6103    2.3850 O.3       1 <0>        -1.0970
     32 O9          0.7105   -0.3253   -1.2731 O.3       1 <0>        -0.5524
     33 H4          0.9877    2.0290   -0.0556 H         1 <0>         0.0682
     34 H5         -0.5763    1.9790   -0.9039 H         1 <0>         0.0696
     35 H6         -0.5268    1.9354    0.8748 H         1 <0>         0.0748
     36 H7          0.4619   -0.1889    2.1176 H         1 <0>         0.1266
     37 H8          2.2630   -1.3271   -0.0438 H         1 <0>         0.1230
     38 H9          1.7684   -3.5501    2.3223 H         1 <0>         0.1206
     39 H10         3.0710   -3.4529    1.1178 H         1 <0>         0.1000
     40 H11         3.6684   -4.6577    3.4725 H         1 <0>         0.1342
     41 H12         5.3828   -3.2319    4.3571 H         1 <0>         0.1468
     42 H13        -2.1213    1.1097   -1.2877 H         1 <0>         0.0776
     43 H14        -1.6928   -0.3707   -2.1782 H         1 <0>         0.0840
     44 H15        -4.4679    0.9828   -2.6758 H         1 <0>         0.1144
     45 H16        -5.2560   -0.7246   -4.1914 H         1 <0>         0.1158
     46 H17        -4.4092   -2.6805   -1.8623 H         1 <0>         0.1321
     47 H18        -5.1136   -4.4091   -3.4166 H         1 <0>         0.1196
     48 H19        -5.6781   -1.9650   -5.3357 H         1 <0>         0.1151
     49 H20        -5.9813   -4.9911   -5.6036 H         1 <0>         0.1172
     50 H21        -7.6024   -3.6796   -7.3050 H         1 <0>         0.0549
     51 H22        -6.2451   -2.5418   -7.4821 H         1 <0>         0.0499
     52 H23        -6.1979   -4.2501   -9.1509 H         1 <0>         0.3788
     53 H24        -4.2454    1.1179   -0.0767 H         1 <0>         0.3543
     54 H25         0.7910   -1.2845   -1.3650 H         1 <0>         0.3821
     55 H26        -2.1149   -5.0165    1.2999 H         1 <0>         0.4132
@<TRIPOS>BOND
     1    1    2 1
     2    1   33 1
     3    1   34 1
     4    1   35 1
     5    2    3 1
     6    2   13 1
     7    2   32 1
     8    3    4 2
     9    3   36 1
    10    4    5 1
    11    4   37 1
    12    5    6 1
    13    5   12 1
    14    5    7 1
    15    7    8 1
    16    7   38 1
    17    7   39 1
    18    8    9 2
    19    8   40 1
    20    9   10 1
    21    9   41 1
    22   10   11 2
    23   10   12 1
    24   13   14 1
    25   13   15 1
    26   13   27 1
    27   15   16 1
    28   15   42 1
    29   15   43 1
    30   16   17 1
    31   16   18 1
    32   16   26 1
    33   18   19 2
    34   18   44 1
    35   19   20 1
    36   19   45 1
    37   20   21 2
    38   20   46 1
    39   21   22 1
    40   21   47 1
    41   22   23 2
    42   22   48 1
    43   23   24 1
    44   23   49 1
    45   24   25 1
    46   24   50 1
    47   24   51 1
    48   25   52 1
    49   26   53 1
    50   27   28 1
    51   28   29 2
    52   28   30 1
    53   28   31 1
    54   30   55 1
    55   32   54 1
@<TRIPOS>MOLECULE
ZINC08195636
   20    22     0     0     0
SMALL
USER_CHARGES

@<TRIPOS>ATOM
      1 C1         -0.0191    1.5538    0.0106 C.3       1 <0>        -0.1466
      2 C2          1.4878    1.9169   -0.0019 C.3       1 <0>        -0.1455
      3 C3          2.1788    0.5205   -0.0170 C.3       1 <0>         0.0789
      4 H1          3.2003    0.5102   -0.3973 H         1 <0>         0.1474
      5 C4          1.9986   -0.0464    1.4218 C.3       1 <0>        -0.1771
      6 H2          2.3091    0.6414    2.2083 H         1 <0>         0.1534
      7 C5          0.4785   -0.4114    1.4546 C.3       1 <0>        -0.1764
      8 H3         -0.0748    0.0565    2.2689 H         1 <0>         0.1533
      9 C6          0.0021   -0.0041    0.0020 C.3       1 <0>         0.0821
     10 H4         -0.9130   -0.4806   -0.3497 H         1 <0>         0.1502
     11 O1          1.2111   -0.2706   -0.7807 O.3       1 <0>        -0.3561
     12 C7          0.5116   -1.9277    1.5266 C.2       1 <0>         0.5079
     13 O2         -0.3829   -2.6507    1.8966 O.2       1 <0>        -0.4050
     14 O3          1.7308   -2.3126    1.0980 O.3       1 <0>        -0.3364
     15 C8          2.6822   -1.4009    1.4856 C.2       1 <0>         0.5138
     16 O4          3.8238   -1.6161    1.8174 O.2       1 <0>        -0.3952
     17 H5         -0.4992    1.9286    0.9145 H         1 <0>         0.0875
     18 H6         -0.5163    1.9382   -0.8799 H         1 <0>         0.0884
     19 H7          1.7412    2.4829   -0.8982 H         1 <0>         0.0885
     20 H8          1.7586    2.4721    0.8962 H         1 <0>         0.0871
@<TRIPOS>BOND
     1    1    9 1
     2    1    2 1
     3    1   17 1
     4    1   18 1
     5    2    3 1
     6    2   19 1
     7    2   20 1
     8    3    4 1
     9    3   11 1
    10    3    5 1
    11    5    6 1
    12    5   15 1
    13    5    7 1
    14    7    8 1
    15    7    9 1
    16    7   12 1
    17    9   10 1
    18    9   11 1
    19   12   13 2
    20   12   14 1
    21   14   15 1
    22   15   16 2
@<TRIPOS>MOLECULE
ZINC01530689
   58    60     0     0     0
SMALL
USER_CHARGES

@<TRIPOS>ATOM
      1 C1         -0.8620   -1.2103    0.4196 C.3       1 <0>        -0.1463
      2 C2         -0.0027   -0.0154    0.0014 C.3       1 <0>        -0.0931
      3 C3          0.8449   -0.3968   -1.1848 C.2       1 <0>        -0.0423
      4 C4          2.1086   -0.8505   -0.9971 C.2       1 <0>        -0.0550
      5 C5          2.7052   -0.8396    0.3571 C.ar      1 <0>        -0.0411
      6 C6          2.9272    0.3707    1.0153 C.ar      1 <0>        -0.1082
      7 C7          3.4837    0.3740    2.2776 C.ar      1 <0>        -0.1172
      8 C8          3.8216   -0.8192    2.8911 C.ar      1 <0>        -0.1153
      9 C9          3.6040   -2.0226    2.2439 C.ar      1 <0>        -0.1170
     10 C10         3.0428   -2.0399    0.9837 C.ar      1 <0>        -0.1043
     11 C11         2.8911   -1.3565   -2.1461 C.ar      1 <0>        -0.0464
     12 C12         2.4761   -2.5039   -2.8244 C.ar      1 <0>        -0.0587
     13 C13         3.2080   -2.9722   -3.8945 C.ar      1 <0>        -0.1371
     14 C14         4.3568   -2.3043   -4.2980 C.ar      1 <0>         0.1110
     15 C15         4.7731   -1.1628   -3.6254 C.ar      1 <0>        -0.1995
     16 C16         4.0432   -0.6847   -2.5583 C.ar      1 <0>        -0.0640
     17 O1          5.0755   -2.7690   -5.3531 O.3       1 <0>        -0.3290
     18 C17         6.2462   -2.0338   -5.7148 C.3       1 <0>         0.0247
     19 C18         6.9183   -2.7034   -6.9152 C.3       1 <0>        -0.0016
     20 N1          6.0308   -2.6198   -8.0828 N.4       1 <0>        -0.3887
     21 C19         5.8597   -1.2126   -8.4681 C.3       1 <0>        -0.0544
     22 C20         6.6223   -3.3655   -9.2018 C.3       1 <0>        -0.0475
     23 C21         0.3013   -0.2769   -2.5460 C.ar      1 <0>        -0.0452
     24 C22         0.8638    0.6300   -3.4504 C.ar      1 <0>        -0.1005
     25 C23         0.3487    0.7362   -4.7249 C.ar      1 <0>        -0.1203
     26 C24        -0.7224   -0.0512   -5.1102 C.ar      1 <0>        -0.1185
     27 C25        -1.2849   -0.9506   -4.2211 C.ar      1 <0>        -0.1169
     28 C26        -0.7774   -1.0732   -2.9450 C.ar      1 <0>        -0.1064
     29 H1         -1.5889   -1.4268   -0.3633 H         1 <0>         0.0564
     30 H2         -0.2239   -2.0805    0.5736 H         1 <0>         0.0564
     31 H3         -1.3853   -0.9749    1.3463 H         1 <0>         0.0624
     32 H4         -0.6488    0.8203   -0.2674 H         1 <0>         0.0730
     33 H5          0.6424    0.2760    0.8303 H         1 <0>         0.0829
     34 H6          2.6642    1.3028    0.5373 H         1 <0>         0.1222
     35 H7          3.6564    1.3100    2.7879 H         1 <0>         0.1251
     36 H8          4.2573   -0.8113    3.8793 H         1 <0>         0.1238
     37 H9          3.8702   -2.9506    2.7280 H         1 <0>         0.1239
     38 H10         2.8693   -2.9801    0.4814 H         1 <0>         0.1195
     39 H11         1.5831   -3.0240   -2.5110 H         1 <0>         0.1323
     40 H12         2.8878   -3.8600   -4.4196 H         1 <0>         0.1320
     41 H13         5.6672   -0.6463   -3.9419 H         1 <0>         0.1263
     42 H14         4.3649    0.2058   -2.0388 H         1 <0>         0.1288
     43 H15         5.9678   -1.0131   -5.9769 H         1 <0>         0.0863
     44 H16         6.9389   -2.0168   -4.8734 H         1 <0>         0.1083
     45 H17         7.8574   -2.1958   -7.1356 H         1 <0>         0.1490
     46 H18         7.1165   -3.7499   -6.6836 H         1 <0>         0.1425
     47 H19         5.2012   -1.1506   -9.3345 H         1 <0>         0.1272
     48 H20         5.4209   -0.6593   -7.6378 H         1 <0>         0.1214
     49 H21         6.8302   -0.7837   -8.7180 H         1 <0>         0.1246
     50 H22         6.7492   -4.4096   -8.9159 H         1 <0>         0.1247
     51 H23         5.9637   -3.3034  -10.0682 H         1 <0>         0.1258
     52 H24         7.5927   -2.9366   -9.4516 H         1 <0>         0.1230
     53 H25         1.6992    1.2456   -3.1510 H         1 <0>         0.1181
     54 H26         0.7818    1.4358   -5.4243 H         1 <0>         0.1195
     55 H27        -1.1216    0.0368   -6.1098 H         1 <0>         0.1205
     56 H28        -2.1210   -1.5610   -4.5292 H         1 <0>         0.1239
     57 H29        -1.2145   -1.7786   -2.2539 H         1 <0>         0.1248
     58 H30         5.1325   -3.0168   -7.8515 H         1 <0>         0.4340
@<TRIPOS>BOND
     1    1    2 1
     2    1   29 1
     3    1   30 1
     4    1   31 1
     5    2    3 1
     6    2   32 1
     7    2   33 1
     8    3    4 2
     9    3   23 1
    10    4    5 1
    11    4   11 1
    12    5   10 ar
    13    5    6 ar
    14    6    7 ar
    15    6   34 1
    16    7    8 ar
    17    7   35 1
    18    8    9 ar
    19    8   36 1
    20    9   10 ar
    21    9   37 1
    22   10   38 1
    23   11   16 ar
    24   11   12 ar
    25   12   13 ar
    26   12   39 1
    27   13   14 ar
    28   13   40 1
    29   14   15 ar
    30   14   17 1
    31   15   16 ar
    32   15   41 1
    33   16   42 1
    34   17   18 1
    35   18   19 1
    36   18   43 1
    37   18   44 1
    38   19   20 1
    39   19   45 1
    40   19   46 1
    41   20   21 1
    42   20   22 1
    43   20   58 1
    44   21   47 1
    45   21   48 1
    46   21   49 1
    47   22   50 1
    48   22   51 1
    49   22   52 1
    50   23   28 ar
    51   23   24 ar
    52   24   25 ar
    53   24   53 1
    54   25   26 ar
    55   25   54 1
    56   26   27 ar
    57   26   55 1
    58   27   28 ar
    59   27   56 1
    60   28   57 1
@<TRIPOS>MOLECULE
ZINC03871852
   27    28     0     0     0
SMALL
USER_CHARGES

@<TRIPOS>ATOM
      1 C1         -0.2602    1.8411    0.0693 C.3       1 <0>        -0.1004
      2 C2          0.1551    0.3720   -0.0315 C.3       1 <0>        -0.1347
      3 C3         -1.0853   -0.5623    0.0966 C.3       1 <0>         0.0748
      4 H1         -1.9849   -0.2172   -0.4130 H         1 <0>         0.0982
      5 C4         -0.5811   -1.9760   -0.3221 C.3       1 <0>        -0.1686
      6 C5          0.2937   -2.3997    0.8852 C.3       1 <0>        -0.1503
      7 C6          0.1788   -1.1746    1.8412 C.3       1 <0>         0.0892
      8 H2          0.3947   -1.3784    2.8900 H         1 <0>         0.0992
      9 C7          1.0211   -0.0386    1.1867 C.3       1 <0>        -0.1350
     10 C8          1.2115    1.1433    2.1395 C.3       1 <0>        -0.1094
     11 C9          2.3522   -0.5829    0.7363 C.2       1 <0>         0.5384
     12 O1          3.0210    0.0354   -0.0742 O.co2     1 <0>        -0.6696
     13 O2          2.7604   -1.6417    1.1824 O.co2     1 <0>        -0.7212
     14 O3         -1.1920   -0.6978    1.5517 O.3       1 <0>        -0.4130
     15 C10         0.8914    0.1147   -1.3209 C.2       1 <0>         0.5303
     16 O4          1.4959   -0.9322   -1.4793 O.co2     1 <0>        -0.6507
     17 O5          0.8825    0.9534   -2.2058 O.co2     1 <0>        -0.7269
     18 H3          0.6301    2.4694    0.0957 H         1 <0>         0.0458
     19 H4         -0.8671    2.1073   -0.7961 H         1 <0>         0.0389
     20 H5         -0.8395    1.9933    0.9800 H         1 <0>         0.0275
     21 H6         -1.4183   -2.6618   -0.4520 H         1 <0>         0.0255
     22 H7          0.0173   -1.9189   -1.2314 H         1 <0>         0.1262
     23 H8         -0.1077   -3.2967    1.3570 H         1 <0>         0.0248
     24 H9          1.3280   -2.5538    0.5776 H         1 <0>         0.1405
     25 H10         0.2391    1.4819    2.4972 H         1 <0>         0.0382
     26 H11         1.8222    0.8322    2.9870 H         1 <0>         0.0323
     27 H12         1.7087    1.9580    1.6130 H         1 <0>         0.0500
@<TRIPOS>BOND
     1    1    2 1
     2    1   18 1
     3    1   19 1
     4    1   20 1
     5    2    9 1
     6    2    3 1
     7    2   15 1
     8    3    4 1
     9    3   14 1
    10    3    5 1
    11    5    6 1
    12    5   21 1
    13    5   22 1
    14    6    7 1
    15    6   23 1
    16    6   24 1
    17    7    8 1
    18    7    9 1
    19    7   14 1
    20    9   10 1
    21    9   11 1
    22   10   25 1
    23   10   26 1
    24   10   27 1
    25   11   12 2
    26   11   13 1
    27   15   16 2
    28   15   17 1
@<TRIPOS>MOLECULE
ZINC17611186
   26    28     0     0     0
SMALL
USER_CHARGES

@<TRIPOS>ATOM
      1 C1          0.0599    1.5249   -0.0459 C.3       1 <0>        -0.1274
      2 C2          0.0459   -0.0049   -0.0290 C.3       1 <0>        -0.1448
      3 C3          0.7228   -0.6541   -1.2717 C.3       1 <0>         0.0842
      4 H1          0.1207   -0.6597   -2.1803 H         1 <0>         0.1451
      5 C4          2.1118    0.0404   -1.3974 C.3       1 <0>        -0.1485
      6 C5          2.9107   -0.5750   -0.2204 C.3       1 <0>        -0.1473
      7 C6          1.8766   -1.5426    0.4292 C.3       1 <0>         0.0839
      8 H2          2.3034   -2.3476    1.0274 H         1 <0>         0.1454
      9 C7          0.8402   -0.6387    1.1595 C.3       1 <0>        -0.1447
     10 C8         -0.2155   -1.4984    1.8319 C.2       1 <0>         0.5144
     11 O1         -0.1865   -1.9208    2.9635 O.2       1 <0>        -0.3989
     12 O2         -1.1916   -1.7000    0.9236 O.3       1 <0>        -0.3265
     13 C9         -1.3376   -0.6042    0.1514 C.2       1 <0>         0.5119
     14 O3         -2.3712   -0.1805   -0.3089 O.2       1 <0>        -0.3994
     15 C10         1.5108    0.3834    2.0797 C.3       1 <0>        -0.1285
     16 O4          1.0883   -1.9717   -0.7465 O.3       1 <0>        -0.3597
     17 H3          1.0898    1.8793   -0.0021 H         1 <0>         0.0862
     18 H4         -0.4087    1.8824   -0.9628 H         1 <0>         0.0818
     19 H5         -0.4913    1.9028    0.8152 H         1 <0>         0.0714
     20 H6          2.5802   -0.2027   -2.3511 H         1 <0>         0.0880
     21 H7          2.0163    1.1195   -1.2768 H         1 <0>         0.0921
     22 H8          3.7769   -1.1254   -0.5876 H         1 <0>         0.0887
     23 H9          3.2138    0.1974    0.4864 H         1 <0>         0.0929
     24 H10         0.7464    0.9514    2.6099 H         1 <0>         0.0711
     25 H11         2.1428   -0.1359    2.8001 H         1 <0>         0.0817
     26 H12         2.1209    1.0628    1.4845 H         1 <0>         0.0869
@<TRIPOS>BOND
     1    1    2 1
     2    1   17 1
     3    1   18 1
     4    1   19 1
     5    2    9 1
     6    2   13 1
     7    2    3 1
     8    3    4 1
     9    3   16 1
    10    3    5 1
    11    5    6 1
    12    5   20 1
    13    5   21 1
    14    6    7 1
    15    6   22 1
    16    6   23 1
    17    7    8 1
    18    7    9 1
    19    7   16 1
    20    9   10 1
    21    9   15 1
    22   10   11 2
    23   10   12 1
    24   12   13 1
    25   13   14 2
    26   15   24 1
    27   15   25 1
    28   15   26 1
