@<TRIPOS>MOLECULE
ZINC03824468
   43    45     0     0     0
SMALL
USER_CHARGES

@<TRIPOS>ATOM
      1 C1         -0.0187    1.5258    0.0104 C.3       1 <0>        -0.1447
      2 C2          0.0021   -0.0041    0.0020 C.3       1 <0>        -0.0909
      3 C3          0.7182   -0.4975   -1.2568 C.3       1 <0>        -0.1396
      4 C4          0.7309   -0.5033    1.2229 C.ar      1 <0>         0.0310
      5 C5          2.0503   -0.1479    1.4339 C.ar      1 <0>        -0.1360
      6 C6          2.7188   -0.6057    2.5536 C.ar      1 <0>        -0.0495
      7 C7          2.0680   -1.4188    3.4630 C.ar      1 <0>        -0.1324
      8 C8          0.7488   -1.7733    3.2525 C.ar      1 <0>        -0.0012
      9 C9          0.0788   -1.3118    2.1346 C.ar      1 <0>        -0.6648
     10 S1         -1.6048   -1.7588    1.8695 S.o2      1 <0>         2.5533
     11 O1         -1.6966   -2.2184    0.5280 O.2       1 <0>        -0.9122
     12 O2         -1.9916   -2.5602    2.9775 O.2       1 <0>        -0.9119
     13 C10        -2.5573   -0.2793    1.9613 C.ar      1 <0>        -0.5352
     14 C11        -3.2290    0.1751    0.8299 C.ar      1 <0>        -0.1499
     15 C12        -3.9810    1.3286    0.8709 C.ar      1 <0>         0.2896
     16 C13        -4.0707    2.0578    2.0776 C.ar      1 <0>         0.1145
     17 C14        -3.3823    1.5830    3.2206 C.ar      1 <0>        -0.0389
     18 C15        -2.6300    0.3997    3.1393 C.ar      1 <0>         0.0153
     19 N1         -1.9121   -0.1055    4.3314 N.pl3     1 <0>        -0.0001
     20 O3         -0.7763    0.2476    4.5477 O.2       1 <0>        -0.1334
     21 O4         -2.4618   -0.8712    5.0886 O.3       1 <0>        -0.0910
     22 C16        -3.4728    2.3108    4.4220 C.ar      1 <0>        -0.0701
     23 C17        -4.2263    3.4502    4.4302 C.ar      1 <0>        -0.1362
     24 C18        -4.8778    3.8608    3.2696 C.ar      1 <0>         0.1406
     25 N2         -4.7911    3.1795    2.1527 N.ar      1 <0>        -0.4583
     26 N3         -4.6481    1.7733   -0.2699 N.pl3     1 <0>        -0.8303
     27 H1          1.0039    1.9031    0.0027 H         1 <0>         0.0650
     28 H2         -0.5459    1.8868   -0.8726 H         1 <0>         0.0657
     29 H3         -0.5289    1.8773    0.9072 H         1 <0>         0.0542
     30 H4         -1.0205   -0.3814    0.0098 H         1 <0>         0.0822
     31 H5          1.7408   -0.1202   -1.2645 H         1 <0>         0.0605
     32 H6          0.7330   -1.5874   -1.2628 H         1 <0>         0.0659
     33 H7          0.1910   -0.1364   -2.1398 H         1 <0>         0.0658
     34 H8          2.5586    0.4873    0.7235 H         1 <0>         0.1334
     35 H9          3.7496   -0.3286    2.7180 H         1 <0>         0.1338
     36 H10         2.5905   -1.7771    4.3376 H         1 <0>         0.1375
     37 H11         0.2405   -2.4087    3.9627 H         1 <0>         0.1441
     38 H12        -3.1594   -0.3835   -0.0918 H         1 <0>         0.1687
     39 H13        -2.9611    1.9774    5.3128 H         1 <0>         0.1440
     40 H14        -4.3170    4.0319    5.3357 H         1 <0>         0.1547
     41 H15        -5.4702    4.7636    3.2904 H         1 <0>         0.1759
     42 H16        -4.5837    1.2699   -1.0965 H         1 <0>         0.4125
     43 H17        -5.1766    2.5860   -0.2368 H         1 <0>         0.4184
@<TRIPOS>BOND
     1    1    2 1
     2    1   27 1
     3    1   28 1
     4    1   29 1
     5    2    3 1
     6    2    4 1
     7    2   30 1
     8    3   31 1
     9    3   32 1
    10    3   33 1
    11    4    9 ar
    12    4    5 ar
    13    5    6 ar
    14    5   34 1
    15    6    7 ar
    16    6   35 1
    17    7    8 ar
    18    7   36 1
    19    8    9 ar
    20    8   37 1
    21    9   10 1
    22   10   11 2
    23   10   12 2
    24   10   13 1
    25   13   18 ar
    26   13   14 ar
    27   14   15 ar
    28   14   38 1
    29   15   16 ar
    30   15   26 1
    31   16   25 ar
    32   16   17 ar
    33   17   18 ar
    34   17   22 ar
    35   18   19 1
    36   19   20 2
    37   19   21 1
    38   22   23 ar
    39   22   39 1
    40   23   24 ar
    41   23   40 1
    42   24   25 ar
    43   24   41 1
    44   26   42 1
    45   26   43 1
