@<TRIPOS>MOLECULE
ZINC04095645
   52    52     0     0     0
SMALL
USER_CHARGES

@<TRIPOS>ATOM
      1 C1         -0.7138   -2.5640   -0.4210 C.3       1 <0>        -0.1550
      2 C2         -1.5731   -1.7628    0.5591 C.3       1 <0>        -0.1020
      3 C3         -1.0752   -2.0006    1.9862 C.3       1 <0>        -0.1465
      4 C4         -1.4727   -0.2730    0.2255 C.3       1 <0>        -0.1272
      5 C5         -2.1217   -0.0102   -1.1349 C.3       1 <0>         0.1280
      6 H1         -1.6692   -0.6591   -1.8847 H         1 <0>         0.1152
      7 C6         -3.5991   -0.2948   -1.0500 C.2       1 <0>         0.5162
      8 O1         -4.3871    0.6198   -0.9329 O.2       1 <0>        -0.5177
      9 N1         -4.0448   -1.5655   -1.1042 N.am      1 <0>        -0.7340
     10 C7         -5.4844   -1.8364   -1.1291 C.3       1 <0>         0.1167
     11 C8         -5.7180   -3.3472   -1.1906 C.3       1 <0>        -0.1305
     12 C9         -7.2214   -3.6302   -1.2165 C.3       1 <0>        -0.1313
     13 C10        -7.4550   -5.1410   -1.2780 C.3       1 <0>         0.0931
     14 N2         -8.8945   -5.4119   -1.3029 N.pl3     1 <0>        -0.6928
     15 C11        -9.3469   -6.7016   -1.3579 C.cat     1 <0>         0.7409
     16 N3        -10.6557   -6.9479   -1.3805 N.pl3     1 <0>        -0.7959
     17 N4         -8.4786   -7.7112   -1.3889 N.pl3     1 <0>        -0.7940
     18 N5         -1.9150    1.3902   -1.5121 N.am      1 <0>        -0.7100
     19 C12        -0.8081    1.7485   -2.1925 C.2       1 <0>         0.5464
     20 O2         -0.0284    0.9005   -2.5718 O.2       1 <0>        -0.5314
     21 C13        -0.5393    3.2028   -2.4820 C.3       1 <0>        -0.0416
     22 H2         -1.0786    3.6237   -3.3306 H         1 <0>         0.1494
     23 C14        -0.2465    4.1236   -1.2957 C.3       1 <0>        -0.0276
     24 H3         -0.2465    3.6830   -0.2987 H         1 <0>         0.1137
     25 O3          0.7708    3.7047   -2.2104 O.3       1 <0>        -0.3182
     26 C15        -0.7234    5.5507   -1.3799 C.2       1 <0>         0.5091
     27 O4         -1.9177    5.7932   -1.4162 O.co2     1 <0>        -0.6728
     28 O5          0.0851    6.4627   -1.4118 O.co2     1 <0>        -0.6670
     29 H4         -0.7071   -3.6130   -0.1249 H         1 <0>         0.0565
     30 H5         -1.1272   -2.4726   -1.4254 H         1 <0>         0.0534
     31 H6          0.3052   -2.1772   -0.4109 H         1 <0>         0.0656
     32 H7         -2.6116   -2.0841    0.4784 H         1 <0>         0.0707
     33 H8         -0.0367   -1.6793    2.0669 H         1 <0>         0.0600
     34 H9         -1.6874   -1.4298    2.6844 H         1 <0>         0.0559
     35 H10        -1.1467   -3.0619    2.2239 H         1 <0>         0.0551
     36 H11        -1.9877    0.3064    0.9918 H         1 <0>         0.0766
     37 H12        -0.4239    0.0216    0.1907 H         1 <0>         0.0871
     38 H13        -3.4125   -2.3007   -1.1268 H         1 <0>         0.4033
     39 H14        -5.9455   -1.4339   -0.2271 H         1 <0>         0.0730
     40 H15        -5.9279   -1.3642   -2.0057 H         1 <0>         0.0716
     41 H16        -5.2569   -3.7498   -2.0925 H         1 <0>         0.0792
     42 H17        -5.2745   -3.8195   -0.3140 H         1 <0>         0.0792
     43 H18        -7.6825   -3.2276   -0.3146 H         1 <0>         0.0868
     44 H19        -7.6649   -3.1580   -2.0931 H         1 <0>         0.0868
     45 H20        -6.9939   -5.5435   -2.1800 H         1 <0>         0.0938
     46 H21        -7.0115   -5.6132   -0.4014 H         1 <0>         0.0938
     47 H22        -9.5269   -4.6767   -1.2803 H         1 <0>         0.4368
     48 H23       -11.2880   -6.2127   -1.3580 H         1 <0>         0.4411
     49 H24        -7.5255   -7.5318   -1.3724 H         1 <0>         0.4401
     50 H25        -8.7994   -8.6258   -1.4279 H         1 <0>         0.4400
     51 H26        -2.5747    2.0596   -1.2722 H         1 <0>         0.4200
     52 H27       -10.9765   -7.8625   -1.4195 H         1 <0>         0.4403
@<TRIPOS>BOND
     1    1    2 1
     2    1   29 1
     3    1   30 1
     4    1   31 1
     5    2    3 1
     6    2    4 1
     7    2   32 1
     8    3   33 1
     9    3   34 1
    10    3   35 1
    11    4    5 1
    12    4   36 1
    13    4   37 1
    14    5    6 1
    15    5    7 1
    16    5   18 1
    17    7    8 2
    18    7    9 am
    19    9   10 1
    20    9   38 1
    21   10   11 1
    22   10   39 1
    23   10   40 1
    24   11   12 1
    25   11   41 1
    26   11   42 1
    27   12   13 1
    28   12   43 1
    29   12   44 1
    30   13   14 1
    31   13   45 1
    32   13   46 1
    33   14   15 1
    34   14   47 1
    35   15   16 2
    36   15   17 1
    37   16   48 1
    38   16   52 1
    39   17   49 1
    40   17   50 1
    41   18   19 am
    42   18   51 1
    43   19   20 2
    44   19   21 1
    45   21   22 1
    46   21   25 1
    47   21   23 1
    48   23   24 1
    49   23   25 1
    50   23   26 1
    51   26   27 2
    52   26   28 1
@<TRIPOS>MOLECULE
ZINC04475165
   52    52     0     0     0
SMALL
USER_CHARGES

@<TRIPOS>ATOM
      1 C1         -0.7600   -2.5948   -0.4137 C.3       1 <0>        -0.1547
      2 C2         -1.6080   -1.7789    0.5642 C.3       1 <0>        -0.1033
      3 C3         -1.1153   -2.0220    1.9922 C.3       1 <0>        -0.1443
      4 C4         -1.4843   -0.2914    0.2283 C.3       1 <0>        -0.1230
      5 C5         -2.1282   -0.0207   -1.1330 C.3       1 <0>         0.1313
      6 H1         -1.6851   -0.6777   -1.8815 H         1 <0>         0.1086
      7 C6         -3.6099   -0.2824   -1.0488 C.2       1 <0>         0.5152
      8 O1         -4.3837    0.6443   -0.9325 O.2       1 <0>        -0.4988
      9 N1         -4.0752   -1.5461   -1.1028 N.am      1 <0>        -0.7389
     10 C7         -5.5187   -1.7948   -1.1283 C.3       1 <0>         0.1185
     11 C8         -5.7756   -3.3018   -1.1894 C.3       1 <0>        -0.1294
     12 C9         -7.2832   -3.5615   -1.2160 C.3       1 <0>        -0.1314
     13 C10        -7.5401   -5.0685   -1.2771 C.3       1 <0>         0.0930
     14 N2         -8.9836   -5.3171   -1.3026 N.pl3     1 <0>        -0.6914
     15 C11        -9.4558   -6.5998   -1.3574 C.cat     1 <0>         0.7403
     16 N3        -10.7683   -6.8258   -1.3806 N.pl3     1 <0>        -0.7969
     17 N4         -8.6032   -7.6226   -1.3874 N.pl3     1 <0>        -0.7943
     18 N5         -1.8996    1.3758   -1.5123 N.am      1 <0>        -0.6857
     19 C12        -0.7853    1.7164   -2.1895 C.2       1 <0>         0.5493
     20 O2         -0.0162    0.8565   -2.5634 O.2       1 <0>        -0.5428
     21 C13        -0.4950    3.1660   -2.4823 C.3       1 <0>        -0.0439
     22 H2         -0.0537    3.7346   -1.6637 H         1 <0>         0.1435
     23 C14        -1.4374    3.9033   -3.4358 C.3       1 <0>        -0.0395
     24 H3         -1.6209    4.9617   -3.2508 H         1 <0>         0.1207
     25 O3         -0.1143    3.5128   -3.8152 O.3       1 <0>        -0.3217
     26 C15        -2.5934    3.1310   -4.0173 C.2       1 <0>         0.5042
     27 O4         -3.4773    2.7151   -3.2876 O.co2     1 <0>        -0.6593
     28 O5         -2.6449    2.9221   -5.2173 O.co2     1 <0>        -0.6715
     29 H4         -0.7698   -3.6433   -0.1159 H         1 <0>         0.0548
     30 H5         -1.1709   -2.4987   -1.4187 H         1 <0>         0.0557
     31 H6          0.2648   -2.2237   -0.4031 H         1 <0>         0.0638
     32 H7         -2.6512   -2.0843    0.4828 H         1 <0>         0.0725
     33 H8         -0.0721   -1.7166    2.0735 H         1 <0>         0.0579
     34 H9         -1.7194   -1.4407    2.6888 H         1 <0>         0.0543
     35 H10        -1.2034   -3.0817    2.2315 H         1 <0>         0.0537
     36 H11        -1.9908    0.2972    0.9932 H         1 <0>         0.0726
     37 H12        -0.4310   -0.0130    0.1938 H         1 <0>         0.0828
     38 H13        -3.4542   -2.2910   -1.1247 H         1 <0>         0.3993
     39 H14        -5.9740   -1.3848   -0.2268 H         1 <0>         0.0696
     40 H15        -5.9543   -1.3161   -2.0054 H         1 <0>         0.0719
     41 H16        -5.3203   -3.7118   -2.0909 H         1 <0>         0.0788
     42 H17        -5.3399   -3.7805   -0.3123 H         1 <0>         0.0771
     43 H18        -7.7385   -3.1515   -0.3146 H         1 <0>         0.0858
     44 H19        -7.7188   -3.0828   -2.0931 H         1 <0>         0.0875
     45 H20        -7.0848   -5.4785   -2.1786 H         1 <0>         0.0942
     46 H21        -7.1044   -5.5472   -0.4000 H         1 <0>         0.0933
     47 H22        -9.6045   -4.5722   -1.2807 H         1 <0>         0.4369
     48 H23       -11.3892   -6.0809   -1.3587 H         1 <0>         0.4409
     49 H24        -7.6475   -7.4580   -1.3705 H         1 <0>         0.4403
     50 H25        -8.9381   -8.5322   -1.4263 H         1 <0>         0.4394
     51 H26        -2.5503    2.0552   -1.2760 H         1 <0>         0.4236
     52 H27       -11.1031   -7.7354   -1.4194 H         1 <0>         0.4397
@<TRIPOS>BOND
     1    1    2 1
     2    1   29 1
     3    1   30 1
     4    1   31 1
     5    2    3 1
     6    2    4 1
     7    2   32 1
     8    3   33 1
     9    3   34 1
    10    3   35 1
    11    4    5 1
    12    4   36 1
    13    4   37 1
    14    5    6 1
    15    5    7 1
    16    5   18 1
    17    7    8 2
    18    7    9 am
    19    9   10 1
    20    9   38 1
    21   10   11 1
    22   10   39 1
    23   10   40 1
    24   11   12 1
    25   11   41 1
    26   11   42 1
    27   12   13 1
    28   12   43 1
    29   12   44 1
    30   13   14 1
    31   13   45 1
    32   13   46 1
    33   14   15 1
    34   14   47 1
    35   15   16 2
    36   15   17 1
    37   16   48 1
    38   16   52 1
    39   17   49 1
    40   17   50 1
    41   18   19 am
    42   18   51 1
    43   19   20 2
    44   19   21 1
    45   21   22 1
    46   21   25 1
    47   21   23 1
    48   23   24 1
    49   23   25 1
    50   23   26 1
    51   26   27 2
    52   26   28 1
@<TRIPOS>MOLECULE
ZINC02940388
   43    44     0     0     0
SMALL
USER_CHARGES

@<TRIPOS>ATOM
      1 C1          1.5244    1.0610   -0.2751 C.3       1 <0>        -0.1158
      2 C2          0.7352   -0.2151   -0.1343 C.ar      1 <0>        -0.0667
      3 C3         -0.0113   -0.6867   -1.1988 C.ar      1 <0>        -0.1351
      4 C4         -0.7364   -1.8572   -1.0737 C.ar      1 <0>        -0.0965
      5 C5         -0.7174   -2.5595    0.1157 C.ar      1 <0>        -0.1270
      6 C6          0.0310   -2.0886    1.1863 C.ar      1 <0>         0.1476
      7 C7          0.7626   -0.9152    1.0557 C.ar      1 <0>        -0.1469
      8 N1          0.0521   -2.7974    2.3926 N.am      1 <0>        -0.6738
      9 C8         -0.0314   -4.1425    2.3854 C.2       1 <0>         0.5156
     10 O1         -0.0283   -4.7447    1.3326 O.2       1 <0>        -0.5202
     11 C9         -0.1286   -4.8984    3.6855 C.3       1 <0>        -0.1249
     12 C10        -0.2110   -6.3989    3.3981 C.3       1 <0>        -0.1202
     13 C11        -0.3082   -7.1548    4.6982 C.2       1 <0>         0.5324
     14 O2         -0.3113   -6.5525    5.7513 O.2       1 <0>        -0.4987
     15 N2         -0.3917   -8.4999    4.6910 N.am      1 <0>        -0.5870
     16 N3         -0.4821   -9.2026    5.8997 N.2       1 <0>        -0.1997
     17 C12        -0.5625  -10.4981    5.8927 C.2       1 <0>         0.0998
     18 C13        -0.6575  -11.2373    7.1642 C.ar      1 <0>        -0.0725
     19 C14        -0.7384  -12.6317    7.1613 C.ar      1 <0>        -0.0667
     20 C15        -0.8267  -13.3177    8.3555 C.ar      1 <0>        -0.0508
     21 C16        -0.8360  -12.6285    9.5574 C.ar      1 <0>        -0.0769
     22 C17        -0.7569  -11.2489    9.5723 C.ar      1 <0>        -0.1392
     23 C18        -0.6614  -10.5453    8.3828 C.ar      1 <0>         0.1527
     24 O3         -0.5780   -9.1897    8.3973 O.3       1 <0>        -0.4698
     25 Cl1        -0.9272  -15.0508    8.3517 Cl        1 <0>        -0.0605
     26 H1          2.5240    0.8311   -0.6440 H         1 <0>         0.0722
     27 H2          1.0210    1.7238   -0.9789 H         1 <0>         0.0688
     28 H3          1.5992    1.5510    0.6956 H         1 <0>         0.0670
     29 H4         -0.0281   -0.1393   -2.1296 H         1 <0>         0.1236
     30 H5         -1.3186   -2.2227   -1.9067 H         1 <0>         0.1263
     31 H6         -1.2843   -3.4736    0.2129 H         1 <0>         0.1332
     32 H7          1.3490   -0.5486    1.8852 H         1 <0>         0.1253
     33 H8          0.1268   -2.3206    3.2340 H         1 <0>         0.4136
     34 H9          0.7532   -4.6925    4.2923 H         1 <0>         0.1085
     35 H10        -1.0220   -4.5820    4.2238 H         1 <0>         0.1094
     36 H11        -1.0928   -6.6048    2.7913 H         1 <0>         0.1080
     37 H12         0.6825   -6.7153    2.8598 H         1 <0>         0.1081
     38 H13        -0.3892   -8.9815    3.8490 H         1 <0>         0.3879
     39 H14        -0.5597  -11.0343    4.9552 H         1 <0>         0.1245
     40 H15        -0.7322  -13.1721    6.2262 H         1 <0>         0.1435
     41 H16        -0.9057  -13.1725   10.4878 H         1 <0>         0.1413
     42 H17        -0.7650  -10.7186   10.5131 H         1 <0>         0.1439
     43 H18        -1.4349   -8.7426    8.3677 H         1 <0>         0.3958
@<TRIPOS>BOND
     1    1    2 1
     2    1   26 1
     3    1   27 1
     4    1   28 1
     5    2    7 ar
     6    2    3 ar
     7    3    4 ar
     8    3   29 1
     9    4    5 ar
    10    4   30 1
    11    5    6 ar
    12    5   31 1
    13    6    7 ar
    14    6    8 1
    15    7   32 1
    16    8    9 am
    17    8   33 1
    18    9   10 2
    19    9   11 1
    20   11   12 1
    21   11   34 1
    22   11   35 1
    23   12   13 1
    24   12   36 1
    25   12   37 1
    26   13   14 2
    27   13   15 am
    28   15   16 1
    29   15   38 1
    30   16   17 2
    31   17   18 1
    32   17   39 1
    33   18   23 ar
    34   18   19 ar
    35   19   20 ar
    36   19   40 1
    37   20   21 ar
    38   20   25 1
    39   21   22 ar
    40   21   41 1
    41   22   23 ar
    42   22   42 1
    43   23   24 1
    44   24   43 1
@<TRIPOS>MOLECULE
ZINC18045755
   48    51     0     0     0
SMALL
USER_CHARGES

@<TRIPOS>ATOM
      1 C1          0.8660    1.4004   -1.7364 C.ar      1 <0>        -0.1197
      2 C2          1.6459    2.1194   -0.8456 C.ar      1 <0>        -0.1099
      3 C3          2.4476    1.4615    0.0730 C.ar      1 <0>         0.0686
      4 C4          2.4732    0.0717    0.1043 C.ar      1 <0>         0.1327
      5 C5          1.6840   -0.6570   -0.7971 C.ar      1 <0>        -0.0965
      6 C6          0.8791    0.0230   -1.7187 C.ar      1 <0>        -0.0786
      7 C7          1.7023   -2.1263   -0.7747 C.2       1 <0>         0.1995
      8 N1          2.4546   -2.7567    0.0859 N.2       1 <0>        -0.4494
      9 C8          2.3992   -4.1166    0.1726 C.ar      1 <0>         0.0912
     10 C9          3.6238   -4.9151    0.1770 C.ar      1 <0>        -0.0287
     11 C10         3.5172   -6.3238    0.2691 C.ar      1 <0>        -0.0245
     12 C11         4.7418   -7.1224    0.2736 C.ar      1 <0>         0.0903
     13 C12         5.9640   -6.4657    0.1871 C.ar      1 <0>        -0.1454
     14 C13         6.0171   -5.0823    0.0990 C.ar      1 <0>        -0.1078
     15 C14         4.8871   -4.3193    0.0924 C.ar      1 <0>        -0.0930
     16 N2          4.6863   -8.4823    0.3612 N.2       1 <0>        -0.4501
     17 C15         5.4350   -9.1117    1.2257 C.2       1 <0>         0.1980
     18 C16         5.3120  -10.5679    1.3815 C.ar      1 <0>        -0.0952
     19 C17         4.3958  -11.2857    0.5996 C.ar      1 <0>         0.1325
     20 C18         4.2886  -12.6630    0.7563 C.ar      1 <0>         0.0688
     21 C19         5.0842  -13.3193    1.6814 C.ar      1 <0>        -0.1104
     22 C20         5.9896  -12.6109    2.4543 C.ar      1 <0>        -0.1195
     23 C21         6.1129  -11.2468    2.3074 C.ar      1 <0>        -0.0790
     24 O1          3.4023  -13.3662    0.0015 O.3       1 <0>        -0.4859
     25 O2          3.6169  -10.6391   -0.3057 O.3       1 <0>        -0.4618
     26 C22         2.2539   -6.9197    0.3529 C.ar      1 <0>        -0.0943
     27 C23         1.1239   -6.1568    0.3463 C.ar      1 <0>        -0.1065
     28 C24         1.1773   -4.7731    0.2644 C.ar      1 <0>        -0.1453
     29 O3          3.2586   -0.5765    1.0027 O.3       1 <0>        -0.4613
     30 O4          3.2102    2.1752    0.9440 O.3       1 <0>        -0.4859
     31 H1          0.2408    1.9224   -2.4457 H         1 <0>         0.1362
     32 H2          1.6291    3.1991   -0.8675 H         1 <0>         0.1360
     33 H3          0.2686   -0.5321   -2.4156 H         1 <0>         0.1368
     34 H4          1.0933   -2.6846   -1.4703 H         1 <0>         0.1136
     35 H5          6.8802   -7.0375    0.1889 H         1 <0>         0.1241
     36 H6          6.9795   -4.5966    0.0336 H         1 <0>         0.1256
     37 H7          4.9679   -3.2447    0.0221 H         1 <0>         0.1344
     38 H8          6.1448   -8.5624    1.8264 H         1 <0>         0.1126
     39 H9          4.9977  -14.3892    1.8009 H         1 <0>         0.1359
     40 H10         6.6050  -13.1316    3.1730 H         1 <0>         0.1361
     41 H11         6.8240  -10.7007    2.9094 H         1 <0>         0.1366
     42 H12         3.7662  -13.6881   -0.8346 H         1 <0>         0.3882
     43 H13         4.0114  -10.5700   -1.1858 H         1 <0>         0.3883
     44 H14         2.1732   -7.9944    0.4232 H         1 <0>         0.1364
     45 H15         0.1615   -6.6426    0.4117 H         1 <0>         0.1259
     46 H16         0.2612   -4.2010    0.2672 H         1 <0>         0.1242
     47 H17         2.8213   -0.7634    1.8447 H         1 <0>         0.3879
     48 H18         2.7656    2.3828    1.7773 H         1 <0>         0.3883
@<TRIPOS>BOND
     1    1    6 ar
     2    1    2 ar
     3    1   31 1
     4    2    3 ar
     5    2   32 1
     6    3    4 ar
     7    3   30 1
     8    4    5 ar
     9    4   29 1
    10    5    6 ar
    11    5    7 1
    12    6   33 1
    13    7    8 2
    14    7   34 1
    15    8    9 1
    16    9   28 ar
    17    9   10 ar
    18   10   15 ar
    19   10   11 ar
    20   11   12 ar
    21   11   26 ar
    22   12   13 ar
    23   12   16 1
    24   13   14 ar
    25   13   35 1
    26   14   15 ar
    27   14   36 1
    28   15   37 1
    29   16   17 2
    30   17   18 1
    31   17   38 1
    32   18   23 ar
    33   18   19 ar
    34   19   20 ar
    35   19   25 1
    36   20   21 ar
    37   20   24 1
    38   21   22 ar
    39   21   39 1
    40   22   23 ar
    41   22   40 1
    42   23   41 1
    43   24   42 1
    44   25   43 1
    45   26   27 ar
    46   26   44 1
    47   27   28 ar
    48   27   45 1
    49   28   46 1
    50   29   47 1
    51   30   48 1
@<TRIPOS>MOLECULE
ZINC01228042
   42    44     0     0     0
SMALL
USER_CHARGES
4-[[3-chloro-4-[(2,4-dihydroxyphenyl)methyleneamino]phenyl]iminomethyl]benzene-1,3-diol
@<TRIPOS>ATOM
      1 C1         -3.4299    3.8942   -1.0147 C.ar      1 <0>        -0.1307
      2 C2         -4.6247    4.5555   -0.9957 C.ar      1 <0>        -0.1240
      3 C3         -4.9171    5.4471    0.0406 C.ar      1 <0>         0.0863
      4 C4         -3.9864    5.6590    1.0649 C.ar      1 <0>        -0.0146
      5 C5         -2.7846    4.9878    1.0484 C.ar      1 <0>        -0.0834
      6 C6         -2.4985    4.0971    0.0083 C.ar      1 <0>         0.0880
      7 N1         -1.3064    3.4294   -0.0108 N.2       1 <0>        -0.4571
      8 C7         -1.2778    2.1522   -0.2793 C.2       1 <0>         0.2037
      9 C8          0.0030    1.4348   -0.2998 C.ar      1 <0>        -0.1234
     10 C9          0.0374    0.0651   -0.5873 C.ar      1 <0>        -0.0517
     11 C10         1.2406   -0.6016   -0.6110 C.ar      1 <0>        -0.1633
     12 C11         2.4252    0.0804   -0.3506 C.ar      1 <0>         0.1479
     13 C12         2.4033    1.4378   -0.0649 C.ar      1 <0>        -0.1875
     14 C13         1.2003    2.1208   -0.0368 C.ar      1 <0>         0.1785
     15 O1          1.1772    3.4486    0.2429 O.3       1 <0>        -0.4709
     16 O2          3.6080   -0.5856   -0.3766 O.3       1 <0>        -0.4972
     17 Cl1        -4.3469    6.7660    2.3526 Cl        1 <0>        -0.0411
     18 N2         -6.1108    6.1119    0.0537 N.2       1 <0>        -0.4503
     19 C14        -7.2238    5.4589   -0.1436 C.2       1 <0>         0.2071
     20 C15        -8.4940    6.1880   -0.2487 C.ar      1 <0>        -0.1237
     21 C16        -9.6895    5.4909   -0.4603 C.ar      1 <0>        -0.0514
     22 C17       -10.8772    6.1785   -0.5582 C.ar      1 <0>        -0.1640
     23 C18       -10.8954    7.5654   -0.4477 C.ar      1 <0>         0.1480
     24 C19        -9.7169    8.2666   -0.2376 C.ar      1 <0>        -0.1881
     25 C20        -8.5159    7.5876   -0.1318 C.ar      1 <0>         0.1806
     26 O3         -7.3629    8.2717    0.0789 O.3       1 <0>        -0.4678
     27 O4        -12.0721    8.2355   -0.5456 O.3       1 <0>        -0.4975
     28 H1         -3.2056    3.2098   -1.8195 H         1 <0>         0.1305
     29 H2         -5.3432    4.3927   -1.7854 H         1 <0>         0.1335
     30 H3         -2.0639    5.1488    1.8365 H         1 <0>         0.1438
     31 H4         -2.1964    1.6232   -0.4862 H         1 <0>         0.1113
     32 H5         -0.8799   -0.4678   -0.7900 H         1 <0>         0.1391
     33 H6          1.2659   -1.6583   -0.8329 H         1 <0>         0.1377
     34 H7          3.3261    1.9619    0.1357 H         1 <0>         0.1397
     35 H8          1.0862    3.6508    1.1841 H         1 <0>         0.3950
     36 H9          4.0346   -0.5958   -1.2443 H         1 <0>         0.3980
     37 H10        -7.2103    4.3824   -0.2295 H         1 <0>         0.1115
     38 H11        -9.6794    4.4144   -0.5469 H         1 <0>         0.1387
     39 H12       -11.7989    5.6396   -0.7210 H         1 <0>         0.1374
     40 H13        -9.7375    9.3430   -0.1520 H         1 <0>         0.1393
     41 H14        -6.9136    8.5447   -0.7327 H         1 <0>         0.3939
     42 H15       -12.5261    8.3586    0.2993 H         1 <0>         0.3979
@<TRIPOS>BOND
     1    1    6 ar
     2    1    2 ar
     3    1   28 1
     4    2    3 ar
     5    2   29 1
     6    3    4 ar
     7    3   18 1
     8    4    5 ar
     9    4   17 1
    10    5    6 ar
    11    5   30 1
    12    6    7 1
    13    7    8 2
    14    8    9 1
    15    8   31 1
    16    9   14 ar
    17    9   10 ar
    18   10   11 ar
    19   10   32 1
    20   11   12 ar
    21   11   33 1
    22   12   13 ar
    23   12   16 1
    24   13   14 ar
    25   13   34 1
    26   14   15 1
    27   15   35 1
    28   16   36 1
    29   18   19 2
    30   19   20 1
    31   19   37 1
    32   20   25 ar
    33   20   21 ar
    34   21   22 ar
    35   21   38 1
    36   22   23 ar
    37   22   39 1
    38   23   24 ar
    39   23   27 1
    40   24   25 ar
    41   24   40 1
    42   25   26 1
    43   26   41 1
    44   27   42 1
@<TRIPOS>MOLECULE
ZINC38812326
   46    48     0     0     0
SMALL
USER_CHARGES

@<TRIPOS>ATOM
      1 C1          1.0531   -0.5000    0.3882 C.ar      1 <0>        -0.1917
      2 C2          2.1170    0.3744    0.3746 C.ar      1 <0>        -0.0453
      3 C3          3.4249   -0.1190    0.3266 C.ar      1 <0>        -0.2062
      4 C4          3.6411   -1.5083    0.2926 C.ar      1 <0>         0.2444
      5 C5          2.5530   -2.3732    0.3071 C.ar      1 <0>        -0.1862
      6 C6          1.2698   -1.8691    0.3545 C.ar      1 <0>        -0.0876
      7 N1          4.9315   -2.0120    0.2445 N.pl3     1 <0>        -0.5534
      8 N2          5.1408   -3.3887    0.0907 N.2       1 <0>        -0.2351
      9 C7          6.3504   -3.8609    0.0455 C.2       1 <0>         0.0608
     10 C8          6.5703   -5.3078   -0.1161 C.ar      1 <0>        -0.0254
     11 C9          5.4768   -6.1736   -0.2268 C.ar      1 <0>        -0.0918
     12 C10         5.6808   -7.5155   -0.3767 C.ar      1 <0>        -0.1002
     13 C11         6.9833   -8.0246   -0.4200 C.ar      1 <0>        -0.0304
     14 C12         8.0768   -7.1587   -0.3102 C.ar      1 <0>        -0.0898
     15 C13         7.8729   -5.8163   -0.1647 C.ar      1 <0>        -0.1023
     16 C14         7.2032   -9.4716   -0.5807 C.2       1 <0>         0.0645
     17 N3          8.4128   -9.9444   -0.6209 N.2       1 <0>        -0.2262
     18 N4          8.6220  -11.3212   -0.7738 N.pl3     1 <0>        -0.5592
     19 C15         9.9124  -11.8255   -0.8167 C.ar      1 <0>         0.2321
     20 C16        10.1306  -13.1882   -1.0878 C.ar      1 <0>        -0.1831
     21 C17        11.4384  -13.6824   -1.1283 C.ar      1 <0>        -0.0587
     22 C18        12.5003  -12.8348   -0.9033 C.ar      1 <0>        -0.1797
     23 C19        12.2816  -11.4920   -0.6358 C.ar      1 <0>        -0.0977
     24 C20        10.9987  -10.9863   -0.5977 C.ar      1 <0>        -0.1740
     25 C21         8.9918  -14.0871   -1.3266 C.2       1 <0>         0.5254
     26 O1          8.9465  -15.1775   -0.7731 O.co2     1 <0>        -0.6849
     27 O2          8.0894  -13.7448   -2.0788 O.co2     1 <0>        -0.6911
     28 C22         4.5658    0.8084    0.3113 C.2       1 <0>         0.5320
     29 O3          4.3732    2.0140    0.2289 O.co2     1 <0>        -0.6799
     30 O4          5.7078    0.3745    0.3809 O.co2     1 <0>        -0.6919
     31 H1          0.0441   -0.1172    0.4298 H         1 <0>         0.1102
     32 H2          1.9416    1.4397    0.4006 H         1 <0>         0.1250
     33 H3          2.7124   -3.4411    0.2812 H         1 <0>         0.1250
     34 H4          0.4280   -2.5456    0.3656 H         1 <0>         0.1123
     35 H5          5.6897   -1.4113    0.3173 H         1 <0>         0.4165
     36 H6          7.1945   -3.1921    0.1266 H         1 <0>         0.1144
     37 H7          4.4714   -5.7806   -0.1934 H         1 <0>         0.1330
     38 H8          4.8367   -8.1838   -0.4615 H         1 <0>         0.1268
     39 H9          9.0822   -7.5517   -0.3433 H         1 <0>         0.1327
     40 H10         8.7170   -5.1475   -0.0837 H         1 <0>         0.1272
     41 H11         6.3591  -10.1400   -0.6651 H         1 <0>         0.1155
     42 H12         7.8639  -11.9215   -0.8496 H         1 <0>         0.4059
     43 H13        11.6153  -14.7275   -1.3355 H         1 <0>         0.1190
     44 H14        13.5094  -13.2184   -0.9350 H         1 <0>         0.1107
     45 H15        13.1217  -10.8365   -0.4605 H         1 <0>         0.1131
     46 H16        10.8379   -9.9381   -0.3931 H         1 <0>         0.1253
@<TRIPOS>BOND
     1    1    6 ar
     2    1    2 ar
     3    1   31 1
     4    2    3 ar
     5    2   32 1
     6    3    4 ar
     7    3   28 1
     8    4    5 ar
     9    4    7 1
    10    5    6 ar
    11    5   33 1
    12    6   34 1
    13    7    8 1
    14    7   35 1
    15    8    9 2
    16    9   10 1
    17    9   36 1
    18   10   15 ar
    19   10   11 ar
    20   11   12 ar
    21   11   37 1
    22   12   13 ar
    23   12   38 1
    24   13   14 ar
    25   13   16 1
    26   14   15 ar
    27   14   39 1
    28   15   40 1
    29   16   17 2
    30   16   41 1
    31   17   18 1
    32   18   19 1
    33   18   42 1
    34   19   24 ar
    35   19   20 ar
    36   20   21 ar
    37   20   25 1
    38   21   22 ar
    39   21   43 1
    40   22   23 ar
    41   22   44 1
    42   23   24 ar
    43   23   45 1
    44   24   46 1
    45   25   26 2
    46   25   27 1
    47   28   29 2
    48   28   30 1
@<TRIPOS>MOLECULE
ZINC00680891
   40    43     0     0     0
SMALL
USER_CHARGES
2-(1-phenyltetrazol-5-yl)sulfanyl-N-(4-tetrazol-1-ylphenyl)-acetamide
@<TRIPOS>ATOM
      1 C1        -10.5658   -0.3901   -0.6399 C.ar      1 <0>        -0.1004
      2 C2        -11.2575    0.6197    0.0035 C.ar      1 <0>        -0.0994
      3 C3        -10.7275    1.8938    0.0608 C.ar      1 <0>        -0.0918
      4 C4         -9.4988    2.1602   -0.5281 C.ar      1 <0>         0.1153
      5 C5         -8.8092    1.1456   -1.1780 C.ar      1 <0>        -0.1128
      6 C6         -9.3416   -0.1280   -1.2271 C.ar      1 <0>        -0.0939
      7 N1         -8.9581    3.4527   -0.4716 N.pl3     1 <0>        -0.3094
      8 C7         -7.6497    3.7948   -0.3619 C.2       1 <0>         0.1968
      9 N2         -7.5945    5.1093   -0.3504 N.2       1 <0>        -0.3303
     10 N3         -8.7736    5.6099   -0.4404 N.2       1 <0>        -0.0228
     11 N4         -9.6554    4.6728   -0.5147 N.2       1 <0>        -0.0662
     12 S1         -6.2824    2.6880   -0.2613 S.3       1 <0>         0.1372
     13 C8         -4.9228    3.8774   -0.1482 C.3       1 <0>        -0.1689
     14 C9         -3.6141    3.1367   -0.0502 C.2       1 <0>         0.5390
     15 O1         -3.6018    1.9238   -0.0562 O.2       1 <0>        -0.4997
     16 N5         -2.4573    3.8218    0.0442 N.am      1 <0>        -0.6639
     17 C10        -1.2357    3.1388    0.0240 C.ar      1 <0>         0.1565
     18 C11        -0.1621    3.6136    0.7664 C.ar      1 <0>        -0.1184
     19 C12         1.0438    2.9426    0.7425 C.ar      1 <0>        -0.0785
     20 C13         1.1806    1.7872   -0.0153 C.ar      1 <0>         0.1158
     21 C14         0.1060    1.3095   -0.7534 C.ar      1 <0>        -0.0975
     22 C15        -1.0985    1.9830   -0.7340 C.ar      1 <0>        -0.0964
     23 N6          2.4053    1.1025   -0.0356 N.pl3     1 <0>        -0.3267
     24 C16         2.7025   -0.0263   -0.7147 C.2       1 <0>         0.2269
     25 N7          3.9493   -0.3201   -0.4528 N.2       1 <0>        -0.3272
     26 N8          4.4606    0.5462    0.3456 N.2       1 <0>        -0.0313
     27 N9          3.5879    1.4480    0.6420 N.2       1 <0>        -0.0765
     28 H1        -10.9824   -1.3856   -0.6837 H         1 <0>         0.1377
     29 H2        -12.2133    0.4119    0.4615 H         1 <0>         0.1406
     30 H3        -11.2681    2.6821    0.5635 H         1 <0>         0.1387
     31 H4         -7.8552    1.3509   -1.6409 H         1 <0>         0.1389
     32 H5         -8.8033   -0.9188   -1.7283 H         1 <0>         0.1423
     33 H6         -5.0561    4.4984    0.7377 H         1 <0>         0.1385
     34 H7         -4.9173    4.5086   -1.0369 H         1 <0>         0.1401
     35 H8         -2.4714    4.7882    0.1261 H         1 <0>         0.4209
     36 H9         -0.2697    4.5099    1.3592 H         1 <0>         0.1448
     37 H10         1.8797    3.3138    1.3168 H         1 <0>         0.1485
     38 H11         0.2126    0.4106   -1.3425 H         1 <0>         0.1416
     39 H12        -1.9345    1.6112   -1.3078 H         1 <0>         0.1517
     40 H13         2.0342   -0.5831   -1.3548 H         1 <0>         0.2402
@<TRIPOS>BOND
     1    1    6 ar
     2    1    2 ar
     3    1   28 1
     4    2    3 ar
     5    2   29 1
     6    3    4 ar
     7    3   30 1
     8    4    5 ar
     9    4    7 1
    10    5    6 ar
    11    5   31 1
    12    6   32 1
    13    7   11 1
    14    7    8 1
    15    8    9 2
    16    8   12 1
    17    9   10 1
    18   10   11 2
    19   12   13 1
    20   13   14 1
    21   13   33 1
    22   13   34 1
    23   14   15 2
    24   14   16 am
    25   16   17 1
    26   16   35 1
    27   17   22 ar
    28   17   18 ar
    29   18   19 ar
    30   18   36 1
    31   19   20 ar
    32   19   37 1
    33   20   21 ar
    34   20   23 1
    35   21   22 ar
    36   21   38 1
    37   22   39 1
    38   23   27 1
    39   23   24 1
    40   24   25 2
    41   24   40 1
    42   25   26 1
    43   26   27 2
