@<TRIPOS>MOLECULE
ZINC13153883
   41    42     0     0     0
SMALL
USER_CHARGES

@<TRIPOS>ATOM
      1 C1         -0.0161    1.3371    0.0094 C.2       1 <0>         0.0044
      2 C2          1.2587    1.7711   -0.0004 C.2       1 <0>         0.0257
      3 N1          2.0558    0.6583   -0.0140 N.pl3     1 <0>        -0.4089
      4 C3          1.2397   -0.4176   -0.0120 C.cat     1 <0>         0.2891
      5 N2          0.0021   -0.0041    0.0020 N.pl3     1 <0>        -0.4760
      6 C4          3.5206    0.6384   -0.0281 C.3       1 <0>         0.0969
      7 C5          4.0443    0.6237    1.4094 C.3       1 <0>        -0.1566
      8 C6          5.5741    0.6029    1.3947 C.3       1 <0>         0.1297
      9 N3          6.0755    0.5889    2.7711 N.pl3     1 <0>        -0.6967
     10 C7          7.4027    0.5695    3.0046 C.2       1 <0>         0.5590
     11 S1          8.5027    0.5614    1.6927 S.2       1 <0>        -0.6222
     12 N4          7.8641    0.5566    4.2709 N.pl3     1 <0>        -0.6753
     13 C8          9.3068    0.5356    4.5247 C.3       1 <0>         0.1421
     14 C9          9.8112   -0.9082    4.4817 C.3       1 <0>        -0.1260
     15 C10        11.3179   -0.9302    4.7468 C.3       1 <0>        -0.1159
     16 C11        11.6018   -0.3316    6.1259 C.3       1 <0>        -0.1251
     17 C12        11.0974    1.1122    6.1689 C.3       1 <0>        -0.1156
     18 C13         9.5907    1.1342    5.9038 C.3       1 <0>        -0.1273
     19 H1         -0.8984    1.9597    0.0252 H         1 <0>         0.2243
     20 H2          1.5887    2.7994    0.0016 H         1 <0>         0.2237
     21 H3          1.5585   -1.4495   -0.0206 H         1 <0>         0.2604
     22 H4          3.8668   -0.2536   -0.5501 H         1 <0>         0.1296
     23 H5          3.8911    1.5261   -0.5408 H         1 <0>         0.1323
     24 H6          3.6980    1.5158    1.9313 H         1 <0>         0.0879
     25 H7          3.6737   -0.2640    1.9220 H         1 <0>         0.0858
     26 H8          5.9203   -0.2891    0.8727 H         1 <0>         0.0959
     27 H9          5.9446    1.4906    0.8820 H         1 <0>         0.0962
     28 H10         5.4523    0.5935    3.5144 H         1 <0>         0.3966
     29 H11         7.2409    0.5612    5.0142 H         1 <0>         0.3964
     30 H12         9.8185    1.1221    3.7617 H         1 <0>         0.1187
     31 H13         9.2994   -1.4948    5.2448 H         1 <0>         0.0585
     32 H14         9.6089   -1.3347    3.4992 H         1 <0>         0.0792
     33 H15        11.6772   -1.9588    4.7162 H         1 <0>         0.0686
     34 H16        11.8296   -0.3437    3.9838 H         1 <0>         0.0705
     35 H17        11.0901   -0.9181    6.8890 H         1 <0>         0.0621
     36 H18        12.6752   -0.3472    6.3148 H         1 <0>         0.0687
     37 H19        11.2997    1.5387    7.1514 H         1 <0>         0.0712
     38 H20        11.6092    1.6987    5.4059 H         1 <0>         0.0700
     39 H21         9.2314    2.1628    5.9345 H         1 <0>         0.0690
     40 H22         9.0790    0.5477    6.6669 H         1 <0>         0.0669
     41 H23        -0.7811   -0.5763    0.0069 H         1 <0>         0.4660
@<TRIPOS>BOND
     1    1    5 1
     2    1    2 2
     3    1   19 1
     4    2    3 1
     5    2   20 1
     6    3    4 1
     7    3    6 1
     8    4    5 2
     9    4   21 1
    10    5   41 1
    11    6    7 1
    12    6   22 1
    13    6   23 1
    14    7    8 1
    15    7   24 1
    16    7   25 1
    17    8    9 1
    18    8   26 1
    19    8   27 1
    20    9   10 1
    21    9   28 1
    22   10   11 2
    23   10   12 1
    24   12   13 1
    25   12   29 1
    26   13   18 1
    27   13   14 1
    28   13   30 1
    29   14   15 1
    30   14   31 1
    31   14   32 1
    32   15   16 1
    33   15   33 1
    34   15   34 1
    35   16   17 1
    36   16   35 1
    37   16   36 1
    38   17   18 1
    39   17   37 1
    40   17   38 1
    41   18   39 1
    42   18   40 1
@<TRIPOS>MOLECULE
ZINC13153883
   40    41     0     0     0
SMALL
USER_CHARGES

@<TRIPOS>ATOM
      1 C1         -0.0161    1.3371    0.0094 C.2       1 <0>        -0.0284
      2 C2          1.2587    1.7711   -0.0004 C.2       1 <0>        -0.0573
      3 N1          2.0558    0.6583   -0.0140 N.pl3     1 <0>        -0.4612
      4 C3          1.2397   -0.4176   -0.0120 C.2       1 <0>         0.1817
      5 N2          0.0021   -0.0041    0.0020 N.2       1 <0>        -0.4945
      6 C4          3.5206    0.6384   -0.0281 C.3       1 <0>         0.1103
      7 C5          4.0443    0.6237    1.4094 C.3       1 <0>        -0.1507
      8 C6          5.5741    0.6029    1.3947 C.3       1 <0>         0.1285
      9 N3          6.0755    0.5889    2.7711 N.pl3     1 <0>        -0.6885
     10 C7          7.4027    0.5695    3.0046 C.2       1 <0>         0.5619
     11 S1          8.5027    0.5614    1.6927 S.2       1 <0>        -0.6347
     12 N4          7.8641    0.5566    4.2709 N.pl3     1 <0>        -0.6814
     13 C8          9.3068    0.5356    4.5247 C.3       1 <0>         0.1442
     14 C9          9.8112   -0.9082    4.4817 C.3       1 <0>        -0.1273
     15 C10        11.3179   -0.9302    4.7468 C.3       1 <0>        -0.1151
     16 C11        11.6018   -0.3316    6.1259 C.3       1 <0>        -0.1240
     17 C12        11.0974    1.1122    6.1689 C.3       1 <0>        -0.1146
     18 C13         9.5907    1.1342    5.9038 C.3       1 <0>        -0.1275
     19 H1         -0.8984    1.9597    0.0252 H         1 <0>         0.1699
     20 H2          1.5887    2.7994    0.0016 H         1 <0>         0.1741
     21 H3          1.5585   -1.4495   -0.0206 H         1 <0>         0.2042
     22 H4          3.8668   -0.2536   -0.5501 H         1 <0>         0.1022
     23 H5          3.8911    1.5261   -0.5408 H         1 <0>         0.0998
     24 H6          3.6980    1.5158    1.9313 H         1 <0>         0.0784
     25 H7          3.6737   -0.2640    1.9220 H         1 <0>         0.0791
     26 H8          5.9203   -0.2891    0.8727 H         1 <0>         0.0925
     27 H9          5.9446    1.4906    0.8820 H         1 <0>         0.0920
     28 H10         5.4523    0.5935    3.5144 H         1 <0>         0.3973
     29 H11         7.2409    0.5612    5.0142 H         1 <0>         0.3958
     30 H12         9.8185    1.1221    3.7617 H         1 <0>         0.1173
     31 H13         9.2994   -1.4948    5.2448 H         1 <0>         0.0580
     32 H14         9.6089   -1.3347    3.4992 H         1 <0>         0.0804
     33 H15        11.6772   -1.9588    4.7162 H         1 <0>         0.0669
     34 H16        11.8296   -0.3437    3.9838 H         1 <0>         0.0698
     35 H17        11.0901   -0.9181    6.8890 H         1 <0>         0.0614
     36 H18        12.6752   -0.3472    6.3148 H         1 <0>         0.0663
     37 H19        11.2997    1.5387    7.1514 H         1 <0>         0.0691
     38 H20        11.6092    1.6987    5.4059 H         1 <0>         0.0692
     39 H21         9.2314    2.1628    5.9345 H         1 <0>         0.0688
     40 H22         9.0790    0.5477    6.6669 H         1 <0>         0.0664
@<TRIPOS>BOND
     1    1    5 1
     2    1    2 2
     3    1   19 1
     4    2    3 1
     5    2   20 1
     6    3    4 1
     7    3    6 1
     8    4    5 2
     9    4   21 1
    10    6    7 1
    11    6   22 1
    12    6   23 1
    13    7    8 1
    14    7   24 1
    15    7   25 1
    16    8    9 1
    17    8   26 1
    18    8   27 1
    19    9   10 1
    20    9   28 1
    21   10   11 2
    22   10   12 1
    23   12   13 1
    24   12   29 1
    25   13   18 1
    26   13   14 1
    27   13   30 1
    28   14   15 1
    29   14   31 1
    30   14   32 1
    31   15   16 1
    32   15   33 1
    33   15   34 1
    34   16   17 1
    35   16   35 1
    36   16   36 1
    37   17   18 1
    38   17   37 1
    39   17   38 1
    40   18   39 1
    41   18   40 1
@<TRIPOS>MOLECULE
ZINC13679593
   34    35     0     0     0
SMALL
USER_CHARGES
3-(3-imidazol-1-ylpropyl)-1-phenyl-thiourea
@<TRIPOS>ATOM
      1 C1         -1.2541    6.1532    0.3558 C.ar      1 <0>        -0.1125
      2 C2         -1.8936    5.5376   -0.7045 C.ar      1 <0>        -0.1147
      3 C3         -1.8750    4.1614   -0.8192 C.ar      1 <0>        -0.1236
      4 C4         -1.2131    3.3957    0.1319 C.ar      1 <0>         0.1217
      5 C5         -0.5767    4.0167    1.1986 C.ar      1 <0>        -0.0714
      6 C6         -0.5945    5.3936    1.3047 C.ar      1 <0>        -0.1111
      7 N1         -1.1924    2.0015    0.0186 N.pl3     1 <0>        -0.6315
      8 C7         -0.0586    1.3210    0.2790 C.2       1 <0>         0.5538
      9 S1          1.3921    2.1686    0.6079 S.2       1 <0>        -0.6079
     10 N2         -0.0655   -0.0267    0.2752 N.pl3     1 <0>        -0.6808
     11 C8          1.1683   -0.7664    0.5524 C.3       1 <0>         0.1265
     12 C9          0.8878   -2.2690    0.4865 C.3       1 <0>        -0.1512
     13 C10         2.1764   -3.0415    0.7760 C.3       1 <0>         0.1104
     14 N3          1.9078   -4.4803    0.7129 N.pl3     1 <0>        -0.4615
     15 C11         1.5216   -5.2809    1.7539 C.2       1 <0>        -0.0574
     16 C12         1.3828   -6.5251    1.2578 C.2       1 <0>        -0.0279
     17 N4          1.6852   -6.4872   -0.0483 N.2       1 <0>        -0.4943
     18 C13         2.0006   -5.2656   -0.3818 C.2       1 <0>         0.1818
     19 H1         -1.2700    7.2295    0.4433 H         1 <0>         0.1253
     20 H2         -2.4078    6.1336   -1.4439 H         1 <0>         0.1275
     21 H3         -2.3750    3.6811   -1.6473 H         1 <0>         0.1228
     22 H4         -0.0653    3.4238    1.9425 H         1 <0>         0.1412
     23 H5         -0.0963    5.8774    2.1318 H         1 <0>         0.1285
     24 H6         -1.9941    1.5245   -0.2474 H         1 <0>         0.4064
     25 H7         -0.8875   -0.5070    0.0889 H         1 <0>         0.3996
     26 H8          1.9231   -0.5048   -0.1892 H         1 <0>         0.0947
     27 H9          1.5313   -0.5078    1.5471 H         1 <0>         0.0946
     28 H10         0.1330   -2.5306    1.2281 H         1 <0>         0.0796
     29 H11         0.5248   -2.5276   -0.5082 H         1 <0>         0.0801
     30 H12         2.9312   -2.7800    0.0344 H         1 <0>         0.1024
     31 H13         2.5393   -2.7829    1.7707 H         1 <0>         0.1001
     32 H14         1.3574   -4.9733    2.7761 H         1 <0>         0.1743
     33 H15         1.0854   -7.4011    1.8152 H         1 <0>         0.1701
     34 H16         2.2877   -4.9369   -1.3697 H         1 <0>         0.2043
@<TRIPOS>BOND
     1    1    6 ar
     2    1    2 ar
     3    1   19 1
     4    2    3 ar
     5    2   20 1
     6    3    4 ar
     7    3   21 1
     8    4    5 ar
     9    4    7 1
    10    5    6 ar
    11    5   22 1
    12    6   23 1
    13    7    8 1
    14    7   24 1
    15    8    9 2
    16    8   10 1
    17   10   11 1
    18   10   25 1
    19   11   12 1
    20   11   26 1
    21   11   27 1
    22   12   13 1
    23   12   28 1
    24   12   29 1
    25   13   14 1
    26   13   30 1
    27   13   31 1
    28   14   18 1
    29   14   15 1
    30   15   16 2
    31   15   32 1
    32   16   17 1
    33   16   33 1
    34   17   18 2
    35   18   34 1
@<TRIPOS>MOLECULE
ZINC07502188
   37    38     0     0     0
SMALL
USER_CHARGES
1-benzyl-3-(3-imidazol-1-ylpropyl)thiourea
@<TRIPOS>ATOM
      1 C1          2.0646   -0.3519   -9.0993 C.ar      1 <0>        -0.1067
      2 C2          0.9829   -1.0607   -8.6109 C.ar      1 <0>        -0.1217
      3 C3          0.1757   -0.5050   -7.6360 C.ar      1 <0>        -0.0979
      4 C4          0.4497    0.7597   -7.1499 C.ar      1 <0>        -0.1202
      5 C5          1.5280    1.4708   -7.6424 C.ar      1 <0>        -0.0977
      6 C6          2.3384    0.9130   -8.6135 C.ar      1 <0>        -0.1217
      7 C7         -0.4306    1.3656   -6.0874 C.3       1 <0>         0.1682
      8 N1          0.0874    1.0114   -4.7636 N.pl3     1 <0>        -0.6800
      9 C8         -0.5435    1.4461   -3.6547 C.2       1 <0>         0.5596
     10 S1         -1.9501    2.4121   -3.7932 S.2       1 <0>        -0.6344
     11 N2         -0.0670    1.1202   -2.4368 N.pl3     1 <0>        -0.6876
     12 C9         -0.7527    1.5927   -1.2315 C.3       1 <0>         0.1285
     13 C10        -0.0127    1.0858    0.0080 C.3       1 <0>        -0.1508
     14 C11        -0.7288    1.5792    1.2668 C.3       1 <0>         0.1102
     15 N3         -0.0203    1.0939    2.4537 N.pl3     1 <0>        -0.4612
     16 C12        -0.2549   -0.0808    3.1160 C.2       1 <0>        -0.0572
     17 C13         0.6181   -0.1318    4.1401 C.2       1 <0>        -0.0284
     18 N4          1.3592    0.9858    4.1096 N.2       1 <0>        -0.4946
     19 C14         0.9824    1.7247    3.1021 C.2       1 <0>         0.1817
     20 H1          2.6955   -0.7862   -9.8607 H         1 <0>         0.1256
     21 H2          0.7688   -2.0488   -8.9907 H         1 <0>         0.1263
     22 H3         -0.6694   -1.0588   -7.2544 H         1 <0>         0.1252
     23 H4          1.7395    2.4606   -7.2657 H         1 <0>         0.1254
     24 H5          3.1832    1.4669   -8.9954 H         1 <0>         0.1264
     25 H6         -1.4456    0.9830   -6.1948 H         1 <0>         0.0970
     26 H7         -0.4377    2.4501   -6.1965 H         1 <0>         0.0970
     27 H8          0.8843    0.4641   -4.6851 H         1 <0>         0.3980
     28 H9          0.7300    0.5728   -2.3584 H         1 <0>         0.3977
     29 H10        -1.7753    1.2154   -1.2238 H         1 <0>         0.0922
     30 H11        -0.7675    2.6825   -1.2255 H         1 <0>         0.0928
     31 H12         0.0021   -0.0041    0.0020 H         1 <0>         0.0785
     32 H13         1.0099    1.4631    0.0003 H         1 <0>         0.0793
     33 H14        -0.7436    2.6691    1.2728 H         1 <0>         0.1022
     34 H15        -1.7514    1.2020    1.2746 H         1 <0>         0.0999
     35 H16        -0.9961   -0.8248    2.8642 H         1 <0>         0.1741
     36 H17         0.7030   -0.9301    4.8625 H         1 <0>         0.1698
     37 H18         1.4032    2.6818    2.8313 H         1 <0>         0.2042
@<TRIPOS>BOND
     1    1    6 ar
     2    1    2 ar
     3    1   20 1
     4    2    3 ar
     5    2   21 1
     6    3    4 ar
     7    3   22 1
     8    4    5 ar
     9    4    7 1
    10    5    6 ar
    11    5   23 1
    12    6   24 1
    13    7    8 1
    14    7   25 1
    15    7   26 1
    16    8    9 1
    17    8   27 1
    18    9   10 2
    19    9   11 1
    20   11   12 1
    21   11   28 1
    22   12   13 1
    23   12   29 1
    24   12   30 1
    25   13   14 1
    26   13   31 1
    27   13   32 1
    28   14   15 1
    29   14   33 1
    30   14   34 1
    31   15   19 1
    32   15   16 1
    33   16   17 2
    34   16   35 1
    35   17   18 1
    36   17   36 1
    37   18   19 2
    38   19   37 1
@<TRIPOS>MOLECULE
ZINC07502188
   38    39     0     0     0
SMALL
USER_CHARGES
1-benzyl-3-(3-imidazol-1-ylpropyl)thiourea
@<TRIPOS>ATOM
      1 C1          2.0646   -0.3519   -9.0993 C.ar      1 <0>        -0.1037
      2 C2          0.9829   -1.0607   -8.6109 C.ar      1 <0>        -0.1208
      3 C3          0.1757   -0.5050   -7.6360 C.ar      1 <0>        -0.0978
      4 C4          0.4497    0.7597   -7.1499 C.ar      1 <0>        -0.1246
      5 C5          1.5280    1.4708   -7.6424 C.ar      1 <0>        -0.0978
      6 C6          2.3384    0.9130   -8.6135 C.ar      1 <0>        -0.1209
      7 C7         -0.4306    1.3656   -6.0874 C.3       1 <0>         0.1669
      8 N1          0.0874    1.0114   -4.7636 N.pl3     1 <0>        -0.6737
      9 C8         -0.5435    1.4461   -3.6547 C.2       1 <0>         0.5564
     10 S1         -1.9501    2.4121   -3.7932 S.2       1 <0>        -0.6221
     11 N2         -0.0670    1.1202   -2.4368 N.pl3     1 <0>        -0.6959
     12 C9         -0.7527    1.5927   -1.2315 C.3       1 <0>         0.1298
     13 C10        -0.0127    1.0858    0.0080 C.3       1 <0>        -0.1565
     14 C11        -0.7288    1.5792    1.2668 C.3       1 <0>         0.0971
     15 N3         -0.0203    1.0939    2.4537 N.pl3     1 <0>        -0.4103
     16 C12        -0.2549   -0.0808    3.1160 C.2       1 <0>         0.0237
     17 C13         0.6181   -0.1318    4.1401 C.2       1 <0>         0.0052
     18 C14         0.9824    1.7247    3.1021 C.cat     1 <0>         0.2881
     19 H1          2.6955   -0.7862   -9.8607 H         1 <0>         0.1274
     20 H2          0.7688   -2.0488   -8.9907 H         1 <0>         0.1277
     21 H3         -0.6694   -1.0588   -7.2544 H         1 <0>         0.1251
     22 H4          1.7395    2.4606   -7.2657 H         1 <0>         0.1250
     23 H5          3.1832    1.4669   -8.9954 H         1 <0>         0.1276
     24 H6         -1.4456    0.9830   -6.1948 H         1 <0>         0.0991
     25 H7         -0.4377    2.4501   -6.1965 H         1 <0>         0.0991
     26 H8          0.8843    0.4641   -4.6851 H         1 <0>         0.3986
     27 H9          0.7300    0.5728   -2.3584 H         1 <0>         0.3970
     28 H10        -1.7753    1.2154   -1.2238 H         1 <0>         0.0963
     29 H11        -0.7675    2.6825   -1.2255 H         1 <0>         0.0961
     30 H12         0.0021   -0.0041    0.0020 H         1 <0>         0.0878
     31 H13         1.0099    1.4631    0.0003 H         1 <0>         0.0857
     32 H14        -0.7436    2.6691    1.2728 H         1 <0>         0.1291
     33 H15        -1.7514    1.2020    1.2746 H         1 <0>         0.1316
     34 H16        -0.9961   -0.8248    2.8642 H         1 <0>         0.2224
     35 H17         0.7030   -0.9301    4.8625 H         1 <0>         0.2232
     36 H18         1.4032    2.6818    2.8313 H         1 <0>         0.2593
     37 N4          1.3582    0.9855    4.1087 N.pl3     1 <0>        -0.4835
     38 H19         2.1043    1.2222    4.7732 H         1 <0>         0.4821
@<TRIPOS>BOND
     1    1    6 ar
     2    1    2 ar
     3    1   19 1
     4    2    3 ar
     5    2   20 1
     6    3    4 ar
     7    3   21 1
     8    4    5 ar
     9    4    7 1
    10    5    6 ar
    11    5   22 1
    12    6   23 1
    13    7    8 1
    14    7   24 1
    15    7   25 1
    16    8    9 1
    17    8   26 1
    18    9   10 2
    19    9   11 1
    20   11   12 1
    21   11   27 1
    22   12   13 1
    23   12   28 1
    24   12   29 1
    25   13   14 1
    26   13   30 1
    27   13   31 1
    28   14   15 1
    29   14   32 1
    30   14   33 1
    31   15   18 1
    32   15   16 1
    33   16   17 2
    34   16   34 1
    35   17   35 1
    36   17   37 1
    37   18   36 1
    38   18   37 2
    39   37   38 1
@<TRIPOS>MOLECULE
ZINC04819319
   37    38     0     0     0
SMALL
USER_CHARGES

@<TRIPOS>ATOM
      1 C1          1.0037   -0.3469   -0.9071 C.ar      1 <0>        -0.0752
      2 C2          2.1873    0.3645   -0.9240 C.ar      1 <0>        -0.0431
      3 C3          2.3753    1.4178   -0.0479 C.ar      1 <0>        -0.0418
      4 C4          1.3793    1.7626    0.8473 C.ar      1 <0>        -0.0438
      5 C5          0.1933    1.0552    0.8693 C.ar      1 <0>        -0.1224
      6 C6          0.0014   -0.0032   -0.0093 C.ar      1 <0>         0.1755
      7 N1         -1.1989   -0.7214    0.0101 N.pl3     1 <0>        -0.6326
      8 C7         -1.1822   -2.0647   -0.0990 C.2       1 <0>         0.5490
      9 S1          0.3101   -2.9034   -0.1186 S.2       1 <0>        -0.5790
     10 N2         -2.3403   -2.7476   -0.1927 N.pl3     1 <0>        -0.6823
     11 C8         -2.3222   -4.2077   -0.3113 C.3       1 <0>         0.1253
     12 C9         -3.7575   -4.7299   -0.4010 C.3       1 <0>        -0.1578
     13 C10        -3.7386   -6.2548   -0.5248 C.3       1 <0>         0.0973
     14 N3         -5.1130   -6.7548   -0.6107 N.pl3     1 <0>        -0.4100
     15 C11        -5.9130   -7.1160    0.4396 C.2       1 <0>         0.0253
     16 C12        -7.0880   -7.5139   -0.0844 C.2       1 <0>         0.0056
     17 N4         -7.0076   -7.3988   -1.4183 N.pl3     1 <0>        -0.4754
     18 C13        -5.8292   -6.9399   -1.7405 C.cat     1 <0>         0.2895
     19 N5          3.6455    2.1775   -0.0680 N.pl3     1 <0>         0.0300
     20 O1          4.5173    1.8769   -0.8499 O.2       1 <0>        -0.1501
     21 O2          3.8112    3.0986    0.6973 O.3       1 <0>        -0.1531
     22 H1          0.8559   -1.1668   -1.5944 H         1 <0>         0.1631
     23 H2          2.9671    0.0977   -1.6219 H         1 <0>         0.1615
     24 H3          1.5291    2.5857    1.5303 H         1 <0>         0.1616
     25 H4         -0.5839    1.3245    1.5692 H         1 <0>         0.1497
     26 H5         -2.0431   -0.2527    0.1020 H         1 <0>         0.4136
     27 H6         -3.1859   -2.2723   -0.1816 H         1 <0>         0.4013
     28 H7         -1.7752   -4.4924   -1.2100 H         1 <0>         0.1011
     29 H8         -1.8333   -4.6372    0.5631 H         1 <0>         0.1006
     30 H9         -4.3046   -4.4451    0.4978 H         1 <0>         0.0897
     31 H10        -4.2465   -4.3004   -1.2754 H         1 <0>         0.0879
     32 H11        -3.1916   -6.5395   -1.4236 H         1 <0>         0.1303
     33 H12        -3.2497   -6.6843    0.3495 H         1 <0>         0.1327
     34 H13        -5.6519   -7.0877    1.4872 H         1 <0>         0.2239
     35 H14        -7.9448   -7.8643    0.4719 H         1 <0>         0.2248
     36 H15        -5.4832   -6.7433   -2.7445 H         1 <0>         0.2608
     37 H16        -7.7151   -7.6185   -2.0445 H         1 <0>         0.4664
@<TRIPOS>BOND
     1    1    6 ar
     2    1    2 ar
     3    1   22 1
     4    2    3 ar
     5    2   23 1
     6    3    4 ar
     7    3   19 1
     8    4    5 ar
     9    4   24 1
    10    5    6 ar
    11    5   25 1
    12    6    7 1
    13    7    8 1
    14    7   26 1
    15    8    9 2
    16    8   10 1
    17   10   11 1
    18   10   27 1
    19   11   12 1
    20   11   28 1
    21   11   29 1
    22   12   13 1
    23   12   30 1
    24   12   31 1
    25   13   14 1
    26   13   32 1
    27   13   33 1
    28   14   18 1
    29   14   15 1
    30   15   16 2
    31   15   34 1
    32   16   17 1
    33   16   35 1
    34   17   18 2
    35   17   37 1
    36   18   36 1
    37   19   20 2
    38   19   21 1
@<TRIPOS>MOLECULE
ZINC02815633
   38    39     0     0     0
SMALL
USER_CHARGES

@<TRIPOS>ATOM
      1 C1          0.0299    1.5032    0.0049 C.3       1 <0>        -0.1205
      2 C2          0.0373   -0.0037   -0.0019 C.ar      1 <0>        -0.0709
      3 C3          0.9232   -0.6929    0.8058 C.ar      1 <0>        -0.1123
      4 C4          0.9325   -2.0740    0.8020 C.ar      1 <0>        -0.0653
      5 C5          0.0509   -2.7706   -0.0143 C.ar      1 <0>         0.1056
      6 C6         -0.8376   -2.0754   -0.8243 C.ar      1 <0>        -0.1150
      7 C7         -0.8457   -0.6944   -0.8115 C.ar      1 <0>        -0.1151
      8 N1          0.0581   -4.1694   -0.0209 N.pl3     1 <0>        -0.6233
      9 C8          0.1745   -4.8482    1.1376 C.2       1 <0>         0.5513
     10 N2          0.2938   -6.1906    1.1231 N.pl3     1 <0>        -0.6904
     11 C9          0.4203   -6.9284    2.3824 C.3       1 <0>         0.1283
     12 C10         0.5399   -8.4249    2.0869 C.3       1 <0>        -0.1572
     13 C11         0.6720   -9.1954    3.4020 C.3       1 <0>         0.0971
     14 N3          0.7865  -10.6283    3.1191 N.pl3     1 <0>        -0.4091
     15 C12        -0.2466  -11.5195    3.0091 C.2       1 <0>         0.0256
     16 C13         0.3016  -12.7207    2.7441 C.2       1 <0>         0.0047
     17 N4          1.6331  -12.5671    2.6936 N.pl3     1 <0>        -0.4758
     18 C14         1.9305  -11.3154    2.9123 C.cat     1 <0>         0.2892
     19 S1          0.1709   -4.0053    2.6277 S.2       1 <0>        -0.5974
     20 H1         -0.6636    1.8597    0.7666 H         1 <0>         0.0752
     21 H2          1.0321    1.8705    0.2255 H         1 <0>         0.0698
     22 H3         -0.2844    1.8694   -0.9725 H         1 <0>         0.0689
     23 H4          1.6088   -0.1506    1.4401 H         1 <0>         0.1297
     24 H5          1.6249   -2.6117    1.4328 H         1 <0>         0.1402
     25 H6         -1.5242   -2.6142   -1.4604 H         1 <0>         0.1236
     26 H7         -1.5394   -0.1532   -1.4379 H         1 <0>         0.1295
     27 H8         -0.0207   -4.6509   -0.8593 H         1 <0>         0.4062
     28 H9          1.3103   -6.5908    2.9135 H         1 <0>         0.0981
     29 H10        -0.4606   -6.7490    2.9987 H         1 <0>         0.0978
     30 H11        -0.3501   -8.7626    1.5558 H         1 <0>         0.0887
     31 H12         1.4208   -8.6043    1.4705 H         1 <0>         0.0869
     32 H13         1.5620   -8.8578    3.9332 H         1 <0>         0.1300
     33 H14        -0.2089   -9.0160    4.0184 H         1 <0>         0.1325
     34 H15        -1.2991  -11.3014    3.1149 H         1 <0>         0.2237
     35 H16        -0.2366  -13.6456    2.5978 H         1 <0>         0.2245
     36 H17         2.9267  -10.8986    2.9280 H         1 <0>         0.2606
     37 H18         0.2958   -6.6682    0.2788 H         1 <0>         0.3985
     38 H19         2.2736  -13.2741    2.5185 H         1 <0>         0.4661
@<TRIPOS>BOND
     1    1    2 1
     2    1   20 1
     3    1   21 1
     4    1   22 1
     5    2    7 ar
     6    2    3 ar
     7    3    4 ar
     8    3   23 1
     9    4    5 ar
    10    4   24 1
    11    5    6 ar
    12    5    8 1
    13    6    7 ar
    14    6   25 1
    15    7   26 1
    16    8    9 1
    17    8   27 1
    18    9   10 1
    19    9   19 2
    20   10   11 1
    21   10   37 1
    22   11   12 1
    23   11   28 1
    24   11   29 1
    25   12   13 1
    26   12   30 1
    27   12   31 1
    28   13   14 1
    29   13   32 1
    30   13   33 1
    31   14   18 1
    32   14   15 1
    33   15   16 2
    34   15   34 1
    35   16   17 1
    36   16   35 1
    37   17   18 2
    38   17   38 1
    39   18   36 1
@<TRIPOS>MOLECULE
ZINC02872412
   42    43     0     0     0
SMALL
USER_CHARGES

@<TRIPOS>ATOM
      1 C1          1.6172    1.7708    1.1124 C.3       1 <0>        -0.1545
      2 C2          1.9231    0.2869    1.3251 C.3       1 <0>         0.0530
      3 O1          0.7313   -0.4776    1.1317 O.3       1 <0>        -0.3130
      4 C3          0.8306   -1.8251    1.2848 C.ar      1 <0>         0.1462
      5 C4          2.0493   -2.3968    1.6197 C.ar      1 <0>        -0.2007
      6 C5          2.1510   -3.7652    1.7754 C.ar      1 <0>        -0.0268
      7 C6          1.0329   -4.5688    1.5965 C.ar      1 <0>         0.0712
      8 C7         -0.1866   -3.9959    1.2613 C.ar      1 <0>        -0.0769
      9 C8         -0.2880   -2.6268    1.1115 C.ar      1 <0>        -0.1475
     10 N1          1.1353   -5.9571    1.7538 N.pl3     1 <0>        -0.6191
     11 C9          1.8561   -6.4687    2.7712 C.2       1 <0>         0.5517
     12 N2          2.0476   -7.7999    2.8589 N.pl3     1 <0>        -0.6907
     13 C10         2.8310   -8.3560    3.9649 C.3       1 <0>         0.1286
     14 C11         2.8951   -9.8787    3.8295 C.3       1 <0>        -0.1572
     15 C12         3.7133  -10.4594    4.9846 C.3       1 <0>         0.0970
     16 N3          3.7746  -11.9174    4.8549 N.pl3     1 <0>        -0.4090
     17 C13         2.8881  -12.8176    5.3814 C.2       1 <0>         0.0256
     18 C14         3.3178  -14.0427    5.0233 C.2       1 <0>         0.0048
     19 N4          4.4362  -13.8944    4.2980 N.pl3     1 <0>        -0.4758
     20 C15         4.7131  -12.6238    4.1887 C.cat     1 <0>         0.2891
     21 S1          2.5283   -5.4276    3.9524 S.2       1 <0>        -0.6021
     22 H1          0.8597    2.0918    1.8274 H         1 <0>         0.0679
     23 H2          2.5262    2.3539    1.2598 H         1 <0>         0.0809
     24 H3          1.2478    1.9239    0.0984 H         1 <0>         0.0674
     25 H4          2.6806   -0.0341    0.6100 H         1 <0>         0.0640
     26 H5          2.2925    0.1337    2.3390 H         1 <0>         0.0654
     27 H6          2.9190   -1.7716    1.7585 H         1 <0>         0.1349
     28 H7          3.0999   -4.2102    2.0358 H         1 <0>         0.1430
     29 H8         -1.0567   -4.6204    1.1220 H         1 <0>         0.1312
     30 H9         -1.2376   -2.1806    0.8554 H         1 <0>         0.1386
     31 H10         0.6875   -6.5502    1.1303 H         1 <0>         0.4063
     32 H11         3.8406   -7.9460    3.9372 H         1 <0>         0.0977
     33 H12         2.3587   -8.0950    4.9119 H         1 <0>         0.0976
     34 H13         1.8855  -10.2887    3.8572 H         1 <0>         0.0888
     35 H14         3.3674  -10.1397    2.8824 H         1 <0>         0.0868
     36 H15         4.7228  -10.0494    4.9569 H         1 <0>         0.1298
     37 H16         3.2410  -10.1984    5.9316 H         1 <0>         0.1325
     38 H17         2.0124  -12.5894    5.9710 H         1 <0>         0.2238
     39 H18         2.8448  -14.9801    5.2760 H         1 <0>         0.2244
     40 H19         5.5548  -12.2066    3.6560 H         1 <0>         0.2605
     41 H20         1.6667   -8.3898    2.1897 H         1 <0>         0.3986
     42 H21         4.9553  -14.6174    3.9124 H         1 <0>         0.4661
@<TRIPOS>BOND
     1    1    2 1
     2    1   22 1
     3    1   23 1
     4    1   24 1
     5    2    3 1
     6    2   25 1
     7    2   26 1
     8    3    4 1
     9    4    9 ar
    10    4    5 ar
    11    5    6 ar
    12    5   27 1
    13    6    7 ar
    14    6   28 1
    15    7    8 ar
    16    7   10 1
    17    8    9 ar
    18    8   29 1
    19    9   30 1
    20   10   11 1
    21   10   31 1
    22   11   12 1
    23   11   21 2
    24   12   13 1
    25   12   41 1
    26   13   14 1
    27   13   32 1
    28   13   33 1
    29   14   15 1
    30   14   34 1
    31   14   35 1
    32   15   16 1
    33   15   36 1
    34   15   37 1
    35   16   20 1
    36   16   17 1
    37   17   18 2
    38   17   38 1
    39   18   19 1
    40   18   39 1
    41   19   20 2
    42   19   42 1
    43   20   40 1
@<TRIPOS>MOLECULE
ZINC02872412
   41    42     0     0     0
SMALL
USER_CHARGES

@<TRIPOS>ATOM
      1 C1         -1.7943    1.7258    0.8808 C.3       1 <0>        -0.1533
      2 C2         -2.1082    0.2339    1.0096 C.3       1 <0>         0.0529
      3 O1         -1.3334   -0.4997    0.0591 O.3       1 <0>        -0.3150
      4 C3         -1.4946   -1.8498    0.0417 C.ar      1 <0>         0.1400
      5 C4         -2.3848   -2.4531    0.9180 C.ar      1 <0>        -0.2002
      6 C5         -2.5490   -3.8241    0.9008 C.ar      1 <0>        -0.0275
      7 C6         -1.8228   -4.5988    0.0061 C.ar      1 <0>         0.0812
      8 C7         -0.9320   -3.9943   -0.8707 C.ar      1 <0>        -0.0801
      9 C8         -0.7730   -2.6226   -0.8563 C.ar      1 <0>        -0.1482
     10 N1         -1.9886   -5.9898   -0.0116 N.pl3     1 <0>        -0.6266
     11 C9         -3.2220   -6.5229    0.0935 C.2       1 <0>         0.5543
     12 N2         -3.3729   -7.8588    0.1889 N.pl3     1 <0>        -0.6815
     13 C10        -4.7136   -8.4382    0.3032 C.3       1 <0>         0.1269
     14 C11        -4.6046   -9.9615    0.3959 C.3       1 <0>        -0.1513
     15 C12        -6.0048  -10.5666    0.5152 C.3       1 <0>         0.1104
     16 N3         -5.9004  -12.0252    0.6040 N.pl3     1 <0>        -0.4614
     17 C13        -5.8998  -12.9048   -0.4448 C.2       1 <0>        -0.0574
     18 C14        -5.7852  -14.1389    0.0818 C.2       1 <0>        -0.0279
     19 N4         -5.7177  -14.0163    1.4157 N.2       1 <0>        -0.4942
     20 C15        -5.7810  -12.7526    1.7354 C.2       1 <0>         0.1817
     21 S1         -4.5971   -5.5031    0.1059 S.2       1 <0>        -0.6132
     22 H1         -2.3853    2.2854    1.6058 H         1 <0>         0.0795
     23 H2         -0.7339    1.8917    1.0709 H         1 <0>         0.0663
     24 H3         -2.0400    2.0632   -0.1262 H         1 <0>         0.0669
     25 H4         -1.8625   -0.1034    2.0166 H         1 <0>         0.0634
     26 H5         -3.1686    0.0680    0.8195 H         1 <0>         0.0649
     27 H6         -2.9492   -1.8504    1.6141 H         1 <0>         0.1333
     28 H7         -3.2418   -4.2937    1.5833 H         1 <0>         0.1445
     29 H8         -0.3669   -4.5962   -1.5669 H         1 <0>         0.1307
     30 H9         -0.0836   -2.1517   -1.5415 H         1 <0>         0.1363
     31 H10        -1.2157   -6.5693   -0.0995 H         1 <0>         0.4061
     32 H11        -5.2005   -8.0535    1.1993 H         1 <0>         0.0947
     33 H12        -5.3018   -8.1687   -0.5740 H         1 <0>         0.0938
     34 H13        -4.1177  -10.3461   -0.5003 H         1 <0>         0.0794
     35 H14        -4.0164  -10.2309    1.2731 H         1 <0>         0.0802
     36 H15        -6.4917  -10.1820    1.4113 H         1 <0>         0.1024
     37 H16        -6.5930  -10.2972   -0.3620 H         1 <0>         0.1000
     38 H17        -5.9768  -12.6567   -1.4931 H         1 <0>         0.1742
     39 H18        -5.7532  -15.0651   -0.4728 H         1 <0>         0.1700
     40 H19        -5.7463  -12.3547    2.7389 H         1 <0>         0.2043
     41 H20        -2.5938   -8.4366    0.1819 H         1 <0>         0.3995
@<TRIPOS>BOND
     1    1    2 1
     2    1   22 1
     3    1   23 1
     4    1   24 1
     5    2    3 1
     6    2   25 1
     7    2   26 1
     8    3    4 1
     9    4    9 ar
    10    4    5 ar
    11    5    6 ar
    12    5   27 1
    13    6    7 ar
    14    6   28 1
    15    7    8 ar
    16    7   10 1
    17    8    9 ar
    18    8   29 1
    19    9   30 1
    20   10   11 1
    21   10   31 1
    22   11   12 1
    23   11   21 2
    24   12   13 1
    25   12   41 1
    26   13   14 1
    27   13   32 1
    28   13   33 1
    29   14   15 1
    30   14   34 1
    31   14   35 1
    32   15   16 1
    33   15   36 1
    34   15   37 1
    35   16   20 1
    36   16   17 1
    37   17   18 2
    38   17   38 1
    39   18   19 1
    40   18   39 1
    41   19   20 2
    42   20   40 1
@<TRIPOS>MOLECULE
ZINC12533415
   39    40     0     0     0
SMALL
USER_CHARGES

@<TRIPOS>ATOM
      1 C1         -1.3295   -0.4959   -0.3280 C.3       1 <0>         0.0245
      2 O1         -0.0373   -0.0006    0.0280 O.3       1 <0>        -0.3140
      3 C2          0.5966   -0.6161    1.0615 C.ar      1 <0>         0.1424
      4 C3         -0.0118   -1.6783    1.7142 C.ar      1 <0>        -0.1999
      5 C4          0.6314   -2.3039    2.7639 C.ar      1 <0>        -0.0273
      6 C5          1.8874   -1.8696    3.1660 C.ar      1 <0>         0.0720
      7 C6          2.4958   -0.8064    2.5123 C.ar      1 <0>        -0.0773
      8 C7          1.8539   -0.1854    1.4590 C.ar      1 <0>        -0.1467
      9 N1          2.5403   -2.5035    4.2311 N.pl3     1 <0>        -0.6193
     10 C8          2.5125   -3.8470    4.3350 C.2       1 <0>         0.5517
     11 N2          3.0436   -4.4504    5.4168 N.pl3     1 <0>        -0.6906
     12 C9          3.0133   -5.9107    5.5296 C.3       1 <0>         0.1285
     13 C10         3.6764   -6.3347    6.8417 C.3       1 <0>        -0.1572
     14 C11         3.6448   -7.8598    6.9596 C.3       1 <0>         0.0970
     15 N3          4.2797   -8.2658    8.2159 N.pl3     1 <0>        -0.4091
     16 C12         5.6067   -8.5448    8.4023 C.2       1 <0>         0.0257
     17 C13         5.7573   -8.8735    9.6995 C.2       1 <0>         0.0047
     18 N4          4.5550   -8.7972   10.2892 N.pl3     1 <0>        -0.4758
     19 C14         3.6660   -8.4289    9.4077 C.cat     1 <0>         0.2891
     20 S1          1.8025   -4.7870    3.0927 S.2       1 <0>        -0.6020
     21 H1         -2.0018   -0.4032    0.5249 H         1 <0>         0.0579
     22 H2         -1.7223    0.0818   -1.1647 H         1 <0>         0.1040
     23 H3         -1.2502   -1.5443   -0.6157 H         1 <0>         0.0593
     24 H4         -0.9889   -2.0157    1.4015 H         1 <0>         0.1357
     25 H5          0.1574   -3.1306    3.2722 H         1 <0>         0.1432
     26 H6          3.4728   -0.4680    2.8245 H         1 <0>         0.1314
     27 H7          2.3290    0.6385    0.9474 H         1 <0>         0.1389
     28 H8          3.0124   -1.9755    4.8939 H         1 <0>         0.4064
     29 H9          1.9791   -6.2547    5.5174 H         1 <0>         0.0978
     30 H10         3.5527   -6.3512    4.6911 H         1 <0>         0.0977
     31 H11         4.7106   -5.9907    6.8539 H         1 <0>         0.0888
     32 H12         3.1370   -5.8942    7.6803 H         1 <0>         0.0868
     33 H13         2.6106   -8.2038    6.9474 H         1 <0>         0.1298
     34 H14         4.1841   -8.3003    6.1210 H         1 <0>         0.1325
     35 H15         6.3836   -8.5086    7.6529 H         1 <0>         0.2237
     36 H16         6.6838   -9.1500   10.1807 H         1 <0>         0.2245
     37 H17         2.6133   -8.2815    9.5991 H         1 <0>         0.2606
     38 H18         3.4459   -3.9178    6.1206 H         1 <0>         0.3986
     39 H19         4.3754   -8.9830   11.2241 H         1 <0>         0.4661
@<TRIPOS>BOND
     1    1    2 1
     2    1   21 1
     3    1   22 1
     4    1   23 1
     5    2    3 1
     6    3    8 ar
     7    3    4 ar
     8    4    5 ar
     9    4   24 1
    10    5    6 ar
    11    5   25 1
    12    6    7 ar
    13    6    9 1
    14    7    8 ar
    15    7   26 1
    16    8   27 1
    17    9   10 1
    18    9   28 1
    19   10   11 1
    20   10   20 2
    21   11   12 1
    22   11   38 1
    23   12   13 1
    24   12   29 1
    25   12   30 1
    26   13   14 1
    27   13   31 1
    28   13   32 1
    29   14   15 1
    30   14   33 1
    31   14   34 1
    32   15   19 1
    33   15   16 1
    34   16   17 2
    35   16   35 1
    36   17   18 1
    37   17   36 1
    38   18   19 2
    39   18   39 1
    40   19   37 1
@<TRIPOS>MOLECULE
ZINC12533415
   38    39     0     0     0
SMALL
USER_CHARGES

@<TRIPOS>ATOM
      1 C1         -1.3295   -0.4959   -0.3280 C.3       1 <0>         0.0253
      2 O1         -0.0373   -0.0006    0.0280 O.3       1 <0>        -0.3162
      3 C2          0.5966   -0.6161    1.0615 C.ar      1 <0>         0.1364
      4 C3         -0.0118   -1.6783    1.7142 C.ar      1 <0>        -0.1995
      5 C4          0.6314   -2.3039    2.7639 C.ar      1 <0>        -0.0280
      6 C5          1.8874   -1.8696    3.1660 C.ar      1 <0>         0.0820
      7 C6          2.4958   -0.8064    2.5123 C.ar      1 <0>        -0.0806
      8 C7          1.8539   -0.1854    1.4590 C.ar      1 <0>        -0.1475
      9 N1          2.5403   -2.5035    4.2311 N.pl3     1 <0>        -0.6267
     10 C8          2.5125   -3.8470    4.3350 C.2       1 <0>         0.5543
     11 N2          3.0436   -4.4504    5.4168 N.pl3     1 <0>        -0.6814
     12 C9          3.0133   -5.9107    5.5296 C.3       1 <0>         0.1269
     13 C10         3.6764   -6.3347    6.8417 C.3       1 <0>        -0.1513
     14 C11         3.6448   -7.8598    6.9596 C.3       1 <0>         0.1104
     15 N3          4.2797   -8.2658    8.2159 N.pl3     1 <0>        -0.4614
     16 C12         5.6066   -8.5452    8.4022 C.2       1 <0>        -0.0574
     17 C13         5.7573   -8.8737    9.6995 C.2       1 <0>        -0.0279
     18 N4          4.5551   -8.7970   10.2892 N.2       1 <0>        -0.4943
     19 C14         3.6661   -8.4284    9.4078 C.2       1 <0>         0.1817
     20 S1          1.8025   -4.7870    3.0927 S.2       1 <0>        -0.6131
     21 H1         -2.0018   -0.4032    0.5249 H         1 <0>         0.0570
     22 H2         -1.7223    0.0818   -1.1647 H         1 <0>         0.1015
     23 H3         -1.2502   -1.5443   -0.6157 H         1 <0>         0.0585
     24 H4         -0.9889   -2.0157    1.4015 H         1 <0>         0.1341
     25 H5          0.1574   -3.1306    3.2722 H         1 <0>         0.1447
     26 H6          3.4728   -0.4680    2.8245 H         1 <0>         0.1310
     27 H7          2.3290    0.6385    0.9474 H         1 <0>         0.1366
     28 H8          3.0124   -1.9755    4.8939 H         1 <0>         0.4062
     29 H9          1.9791   -6.2547    5.5174 H         1 <0>         0.0947
     30 H10         3.5527   -6.3512    4.6911 H         1 <0>         0.0938
     31 H11         4.7106   -5.9907    6.8539 H         1 <0>         0.0794
     32 H12         3.1370   -5.8942    7.6803 H         1 <0>         0.0802
     33 H13         2.6106   -8.2038    6.9474 H         1 <0>         0.1025
     34 H14         4.1841   -8.3003    6.1210 H         1 <0>         0.1000
     35 H15         6.3834   -8.5095    7.6527 H         1 <0>         0.1742
     36 H16         6.6837   -9.1505   10.1806 H         1 <0>         0.1700
     37 H17         2.6135   -8.2806    9.5993 H         1 <0>         0.2043
     38 H18         3.4459   -3.9178    6.1206 H         1 <0>         0.3996
@<TRIPOS>BOND
     1    1    2 1
     2    1   21 1
     3    1   22 1
     4    1   23 1
     5    2    3 1
     6    3    8 ar
     7    3    4 ar
     8    4    5 ar
     9    4   24 1
    10    5    6 ar
    11    5   25 1
    12    6    7 ar
    13    6    9 1
    14    7    8 ar
    15    7   26 1
    16    8   27 1
    17    9   10 1
    18    9   28 1
    19   10   11 1
    20   10   20 2
    21   11   12 1
    22   11   38 1
    23   12   13 1
    24   12   29 1
    25   12   30 1
    26   13   14 1
    27   13   31 1
    28   13   32 1
    29   14   15 1
    30   14   33 1
    31   14   34 1
    32   15   19 1
    33   15   16 1
    34   16   17 2
    35   16   35 1
    36   17   18 1
    37   17   36 1
    38   18   19 2
    39   19   37 1
@<TRIPOS>MOLECULE
ZINC13684672
   40    41     0     0     0
SMALL
USER_CHARGES

@<TRIPOS>ATOM
      1 C1          1.0818   -0.3705   -1.0259 C.3       1 <0>        -0.2024
      2 C2         -0.0009    0.0000   -0.0452 C.2       1 <0>         0.3923
      3 O1          0.1690    0.9200    0.7269 O.2       1 <0>        -0.4530
      4 C3         -1.2614   -0.7525   -0.0244 C.ar      1 <0>        -0.1623
      5 C4         -1.4576   -1.8189   -0.9112 C.ar      1 <0>        -0.0612
      6 C5         -2.6318   -2.5162   -0.8884 C.ar      1 <0>        -0.0864
      7 C6         -3.6332   -2.1682    0.0144 C.ar      1 <0>         0.1497
      8 C7         -3.4428   -1.1086    0.8974 C.ar      1 <0>        -0.1328
      9 C8         -2.2691   -0.4099    0.8862 C.ar      1 <0>        -0.0524
     10 N1         -4.8287   -2.8815    0.0338 N.pl3     1 <0>        -0.6274
     11 C9         -4.8134   -4.2252   -0.0693 C.2       1 <0>         0.5500
     12 N2         -5.9722   -4.9071   -0.1630 N.pl3     1 <0>        -0.6872
     13 C10        -5.9555   -6.3678   -0.2750 C.3       1 <0>         0.1272
     14 C11        -7.3912   -6.8887   -0.3661 C.3       1 <0>        -0.1575
     15 C12        -7.3739   -8.4141   -0.4831 C.3       1 <0>         0.0972
     16 N3         -8.7486   -8.9128   -0.5703 N.pl3     1 <0>        -0.4094
     17 C13        -9.5518   -9.2684    0.4795 C.2       1 <0>         0.0256
     18 C14       -10.7259   -9.6672   -0.0458 C.2       1 <0>         0.0050
     19 N4        -10.6419   -9.5582   -1.3800 N.pl3     1 <0>        -0.4756
     20 C15        -9.4621   -9.1022   -1.7011 C.cat     1 <0>         0.2893
     21 S1         -3.3221   -5.0659   -0.0812 S.2       1 <0>        -0.5884
     22 H1          1.9353    0.2943   -0.8930 H         1 <0>         0.0875
     23 H2          1.3929   -1.4005   -0.8516 H         1 <0>         0.0961
     24 H3          0.7002   -0.2732   -2.0423 H         1 <0>         0.0950
     25 H4         -0.6817   -2.0891   -1.6122 H         1 <0>         0.1406
     26 H5         -2.7840   -3.3386   -1.5717 H         1 <0>         0.1468
     27 H6         -4.2223   -0.8418    1.5957 H         1 <0>         0.1313
     28 H7         -2.1202    0.4085    1.5750 H         1 <0>         0.1410
     29 H8         -5.6726   -2.4114    0.1214 H         1 <0>         0.4094
     30 H9         -5.4065   -6.6572   -1.1710 H         1 <0>         0.0994
     31 H10        -5.4694   -6.7939    0.6026 H         1 <0>         0.0989
     32 H11        -7.9403   -6.5992    0.5299 H         1 <0>         0.0891
     33 H12        -7.8774   -6.4625   -1.2437 H         1 <0>         0.0873
     34 H13        -6.8248   -8.7035   -1.3791 H         1 <0>         0.1301
     35 H14        -6.8877   -8.8403    0.3945 H         1 <0>         0.1326
     36 H15        -9.2934   -9.2357    1.5277 H         1 <0>         0.2238
     37 H16       -11.5846  -10.0141    0.5098 H         1 <0>         0.2246
     38 H17        -9.1132   -8.9104   -2.7051 H         1 <0>         0.2607
     39 H18        -6.8171   -4.4308   -0.1562 H         1 <0>         0.3996
     40 H19       -11.3480   -9.7798   -2.0070 H         1 <0>         0.4662
@<TRIPOS>BOND
     1    1    2 1
     2    1   22 1
     3    1   23 1
     4    1   24 1
     5    2    3 2
     6    2    4 1
     7    4    9 ar
     8    4    5 ar
     9    5    6 ar
    10    5   25 1
    11    6    7 ar
    12    6   26 1
    13    7    8 ar
    14    7   10 1
    15    8    9 ar
    16    8   27 1
    17    9   28 1
    18   10   11 1
    19   10   29 1
    20   11   12 1
    21   11   21 2
    22   12   13 1
    23   12   39 1
    24   13   14 1
    25   13   30 1
    26   13   31 1
    27   14   15 1
    28   14   32 1
    29   14   33 1
    30   15   16 1
    31   15   34 1
    32   15   35 1
    33   16   20 1
    34   16   17 1
    35   17   18 2
    36   17   36 1
    37   18   19 1
    38   18   37 1
    39   19   20 2
    40   19   40 1
    41   20   38 1
@<TRIPOS>MOLECULE
ZINC13684672
   39    40     0     0     0
SMALL
USER_CHARGES

@<TRIPOS>ATOM
      1 C1          1.0818   -0.3705   -1.0259 C.3       1 <0>        -0.2020
      2 C2         -0.0009    0.0000   -0.0452 C.2       1 <0>         0.3946
      3 O1          0.1690    0.9200    0.7269 O.2       1 <0>        -0.4579
      4 C3         -1.2614   -0.7525   -0.0244 C.ar      1 <0>        -0.1694
      5 C4         -1.4576   -1.8189   -0.9112 C.ar      1 <0>        -0.0611
      6 C5         -2.6318   -2.5162   -0.8884 C.ar      1 <0>        -0.0873
      7 C6         -3.6332   -2.1682    0.0144 C.ar      1 <0>         0.1600
      8 C7         -3.4428   -1.1086    0.8974 C.ar      1 <0>        -0.1366
      9 C8         -2.2691   -0.4099    0.8862 C.ar      1 <0>        -0.0523
     10 N1         -4.8287   -2.8815    0.0338 N.pl3     1 <0>        -0.6341
     11 C9         -4.8134   -4.2252   -0.0693 C.2       1 <0>         0.5519
     12 N2         -5.9722   -4.9071   -0.1630 N.pl3     1 <0>        -0.6777
     13 C10        -5.9555   -6.3678   -0.2750 C.3       1 <0>         0.1255
     14 C11        -7.3912   -6.8887   -0.3661 C.3       1 <0>        -0.1517
     15 C12        -7.3739   -8.4141   -0.4831 C.3       1 <0>         0.1105
     16 N3         -8.7486   -8.9128   -0.5703 N.pl3     1 <0>        -0.4618
     17 C13        -9.5516   -9.2688    0.4795 C.2       1 <0>        -0.0574
     18 C14       -10.7258   -9.6675   -0.0458 C.2       1 <0>        -0.0276
     19 N4        -10.6420   -9.5579   -1.3800 N.2       1 <0>        -0.4940
     20 C15        -9.4623   -9.1017   -1.7011 C.2       1 <0>         0.1819
     21 S1         -3.3221   -5.0659   -0.0812 S.2       1 <0>        -0.5999
     22 H1          1.9353    0.2943   -0.8930 H         1 <0>         0.0855
     23 H2          1.3929   -1.4005   -0.8516 H         1 <0>         0.0959
     24 H3          0.7002   -0.2732   -2.0423 H         1 <0>         0.0947
     25 H4         -0.6817   -2.0891   -1.6122 H         1 <0>         0.1390
     26 H5         -2.7840   -3.3386   -1.5717 H         1 <0>         0.1482
     27 H6         -4.2223   -0.8418    1.5957 H         1 <0>         0.1308
     28 H7         -2.1202    0.4085    1.5750 H         1 <0>         0.1388
     29 H8         -5.6726   -2.4114    0.1214 H         1 <0>         0.4093
     30 H9         -5.4065   -6.6572   -1.1710 H         1 <0>         0.0964
     31 H10        -5.4694   -6.7939    0.6026 H         1 <0>         0.0951
     32 H11        -7.9403   -6.5992    0.5299 H         1 <0>         0.0797
     33 H12        -7.8774   -6.4625   -1.2437 H         1 <0>         0.0807
     34 H13        -6.8248   -8.7035   -1.3791 H         1 <0>         0.1027
     35 H14        -6.8877   -8.8403    0.3945 H         1 <0>         0.1001
     36 H15        -9.2931   -9.2365    1.5276 H         1 <0>         0.1743
     37 H16       -11.5844  -10.0146    0.5098 H         1 <0>         0.1702
     38 H17        -9.1135   -8.9096   -2.7050 H         1 <0>         0.2044
     39 H18        -6.8171   -4.4308   -0.1562 H         1 <0>         0.4006
@<TRIPOS>BOND
     1    1    2 1
     2    1   22 1
     3    1   23 1
     4    1   24 1
     5    2    3 2
     6    2    4 1
     7    4    9 ar
     8    4    5 ar
     9    5    6 ar
    10    5   25 1
    11    6    7 ar
    12    6   26 1
    13    7    8 ar
    14    7   10 1
    15    8    9 ar
    16    8   27 1
    17    9   28 1
    18   10   11 1
    19   10   29 1
    20   11   12 1
    21   11   21 2
    22   12   13 1
    23   12   39 1
    24   13   14 1
    25   13   30 1
    26   13   31 1
    27   14   15 1
    28   14   32 1
    29   14   33 1
    30   15   16 1
    31   15   34 1
    32   15   35 1
    33   16   20 1
    34   16   17 1
    35   17   18 2
    36   17   36 1
    37   18   19 1
    38   18   37 1
    39   19   20 2
    40   20   38 1
@<TRIPOS>MOLECULE
ZINC13679633
   36    38     0     0     0
SMALL
USER_CHARGES
N-(3-imidazol-1-ylpropyl)-6-methoxy-1,3-benzothiazol-2-amine
@<TRIPOS>ATOM
      1 C1         -2.3755    0.0454    0.0258 C.3       1 <0>         0.0256
      2 O1         -1.1614   -0.7081    0.0098 O.3       1 <0>        -0.3109
      3 C2          0.0021   -0.0041    0.0020 C.ar      1 <0>         0.1321
      4 C3         -0.0168    1.3872    0.0097 C.ar      1 <0>        -0.1811
      5 C4          1.1426    2.1177    0.0025 C.ar      1 <0>        -0.0412
      6 C5          2.4023    1.4764   -0.0129 C.ar      1 <0>         0.0885
      7 C6          2.3854    0.0637   -0.0203 C.ar      1 <0>        -0.1231
      8 C7          1.2219   -0.6643   -0.0132 C.ar      1 <0>        -0.0913
      9 S1          4.1165   -0.3360   -0.0390 S.3       1 <0>        -0.0122
     10 C8          4.7350    1.3407   -0.0359 C.2       1 <0>         0.4072
     11 N1          3.6286    2.0475   -0.0215 N.2       1 <0>        -0.5721
     12 N2          6.0437    1.7810   -0.0464 N.pl3     1 <0>        -0.6755
     13 C9          6.3334    3.2170   -0.0414 C.3       1 <0>         0.1365
     14 C10         7.8482    3.4317   -0.0551 C.3       1 <0>        -0.1502
     15 C11         8.1509    4.9315   -0.0499 C.3       1 <0>         0.1102
     16 N3          9.6013    5.1370   -0.0631 N.pl3     1 <0>        -0.4615
     17 C12        10.4156    5.2504    1.0314 C.2       1 <0>        -0.0572
     18 C13        11.6682    5.4251    0.5687 C.2       1 <0>        -0.0280
     19 N4         11.6187    5.4279   -0.7717 N.2       1 <0>        -0.4945
     20 C14        10.3839    5.2559   -1.1572 C.2       1 <0>         0.1820
     21 H1         -2.4044    0.6688    0.9195 H         1 <0>         0.0581
     22 H2         -2.4221    0.6783   -0.8603 H         1 <0>         0.0580
     23 H3         -3.2261   -0.6362    0.0306 H         1 <0>         0.1036
     24 H4         -0.9659    1.9026    0.0169 H         1 <0>         0.1381
     25 H5          1.0933    3.1966    0.0084 H         1 <0>         0.1349
     26 H6          1.2559   -1.7438   -0.0189 H         1 <0>         0.1400
     27 H7          6.7711    1.1395   -0.0570 H         1 <0>         0.4219
     28 H8          5.8929    3.6797   -0.9245 H         1 <0>         0.0765
     29 H9          5.9104    3.6699    0.8553 H         1 <0>         0.0758
     30 H10         8.2888    2.9691    0.8280 H         1 <0>         0.0814
     31 H11         8.2713    2.9788   -0.9518 H         1 <0>         0.0822
     32 H12         7.7103    5.3941   -0.9331 H         1 <0>         0.1003
     33 H13         7.7279    5.3844    0.8468 H         1 <0>         0.0979
     34 H14        10.1122    5.2058    2.0669 H         1 <0>         0.1741
     35 H15        12.5561    5.5470    1.1713 H         1 <0>         0.1699
     36 H16        10.0442    5.2147   -2.1816 H         1 <0>         0.2042
@<TRIPOS>BOND
     1    1    2 1
     2    1   21 1
     3    1   22 1
     4    1   23 1
     5    2    3 1
     6    3    8 ar
     7    3    4 ar
     8    4    5 ar
     9    4   24 1
    10    5    6 ar
    11    5   25 1
    12    6   11 1
    13    6    7 ar
    14    7    8 ar
    15    7    9 1
    16    8   26 1
    17    9   10 1
    18   10   11 2
    19   10   12 1
    20   12   13 1
    21   12   27 1
    22   13   14 1
    23   13   28 1
    24   13   29 1
    25   14   15 1
    26   14   30 1
    27   14   31 1
    28   15   16 1
    29   15   32 1
    30   15   33 1
    31   16   20 1
    32   16   17 1
    33   17   18 2
    34   17   34 1
    35   18   19 1
    36   18   35 1
    37   19   20 2
    38   20   36 1
@<TRIPOS>MOLECULE
ZINC13679633
   37    39     0     0     0
SMALL
USER_CHARGES
N-(3-imidazol-1-ylpropyl)-6-methoxy-1,3-benzothiazol-2-amine
@<TRIPOS>ATOM
      1 C1         -2.3755    0.0454    0.0258 C.3       1 <0>         0.0241
      2 O1         -1.1614   -0.7081    0.0098 O.3       1 <0>        -0.3084
      3 C2          0.0021   -0.0041    0.0020 C.ar      1 <0>         0.1425
      4 C3         -0.0168    1.3872    0.0097 C.ar      1 <0>        -0.1821
      5 C4          1.1426    2.1177    0.0025 C.ar      1 <0>        -0.0356
      6 C5          2.4023    1.4764   -0.0129 C.ar      1 <0>         0.0771
      7 C6          2.3854    0.0637   -0.0203 C.ar      1 <0>        -0.1169
      8 C7          1.2219   -0.6643   -0.0132 C.ar      1 <0>        -0.0949
      9 S1          4.1165   -0.3360   -0.0390 S.3       1 <0>        -0.0018
     10 C8          4.7350    1.3407   -0.0359 C.2       1 <0>         0.3926
     11 N1          3.6286    2.0475   -0.0215 N.2       1 <0>        -0.5640
     12 N2          6.0437    1.7810   -0.0464 N.pl3     1 <0>        -0.6820
     13 C9          6.3334    3.2170   -0.0414 C.3       1 <0>         0.1378
     14 C10         7.8482    3.4317   -0.0551 C.3       1 <0>        -0.1555
     15 C11         8.1509    4.9315   -0.0499 C.3       1 <0>         0.0970
     16 N3          9.6013    5.1370   -0.0631 N.pl3     1 <0>        -0.4104
     17 C12        10.4156    5.2504    1.0314 C.2       1 <0>         0.0238
     18 C13        11.6682    5.4251    0.5687 C.2       1 <0>         0.0054
     19 C14        10.3839    5.2559   -1.1572 C.cat     1 <0>         0.2883
     20 H1         -2.4044    0.6688    0.9195 H         1 <0>         0.0596
     21 H2         -2.4221    0.6783   -0.8603 H         1 <0>         0.0595
     22 H3         -3.2261   -0.6362    0.0306 H         1 <0>         0.1065
     23 H4         -0.9659    1.9026    0.0169 H         1 <0>         0.1408
     24 H5          1.0933    3.1966    0.0084 H         1 <0>         0.1356
     25 H6          1.2559   -1.7438   -0.0189 H         1 <0>         0.1424
     26 H7          6.7711    1.1395   -0.0570 H         1 <0>         0.4213
     27 H8          5.8929    3.6797   -0.9245 H         1 <0>         0.0791
     28 H9          5.9104    3.6699    0.8553 H         1 <0>         0.0793
     29 H10         8.2888    2.9691    0.8280 H         1 <0>         0.0904
     30 H11         8.2713    2.9788   -0.9518 H         1 <0>         0.0884
     31 H12         7.7103    5.3941   -0.9331 H         1 <0>         0.1270
     32 H13         7.7279    5.3844    0.8468 H         1 <0>         0.1296
     33 H14        10.1122    5.2058    2.0669 H         1 <0>         0.2224
     34 H15        12.5561    5.5470    1.1713 H         1 <0>         0.2232
     35 H16        10.0442    5.2147   -2.1816 H         1 <0>         0.2592
     36 N4         11.6177    5.4277   -0.7709 N.pl3     1 <0>        -0.4834
     37 H17        12.4241    5.5465   -1.3952 H         1 <0>         0.4822
@<TRIPOS>BOND
     1    1    2 1
     2    1   20 1
     3    1   21 1
     4    1   22 1
     5    2    3 1
     6    3    8 ar
     7    3    4 ar
     8    4    5 ar
     9    4   23 1
    10    5    6 ar
    11    5   24 1
    12    6   11 1
    13    6    7 ar
    14    7    8 ar
    15    7    9 1
    16    8   25 1
    17    9   10 1
    18   10   11 2
    19   10   12 1
    20   12   13 1
    21   12   26 1
    22   13   14 1
    23   13   27 1
    24   13   28 1
    25   14   15 1
    26   14   29 1
    27   14   30 1
    28   15   16 1
    29   15   31 1
    30   15   32 1
    31   16   19 1
    32   16   17 1
    33   17   18 2
    34   17   33 1
    35   18   34 1
    36   18   36 1
    37   19   35 1
    38   19   36 2
    39   36   37 1
@<TRIPOS>MOLECULE
ZINC04679058
   34    35     0     0     0
SMALL
USER_CHARGES
1-(4-chlorophenyl)-3-(3-imidazol-1-ylpropyl)thiourea
@<TRIPOS>ATOM
      1 C1         -2.0942    1.4262    1.1398 C.ar      1 <0>        -0.1082
      2 C2         -3.3328    2.0368    1.1652 C.ar      1 <0>        -0.1076
      3 C3         -3.7567    2.7898    0.0843 C.ar      1 <0>        -0.0261
      4 C4         -2.9390    2.9378   -1.0222 C.ar      1 <0>        -0.1040
      5 C5         -1.6970    2.3344   -1.0502 C.ar      1 <0>        -0.0551
      6 C6         -1.2691    1.5783    0.0331 C.ar      1 <0>         0.1224
      7 N1         -0.0111    0.9658    0.0074 N.pl3     1 <0>        -0.6321
      8 C7          1.0667    1.6575   -0.4127 C.2       1 <0>         0.5538
      9 S1          0.8815    3.2513   -1.0099 S.2       1 <0>        -0.6050
     10 N2          2.2902    1.0946   -0.3627 N.pl3     1 <0>        -0.6789
     11 C8          3.4617    1.8465   -0.8193 C.3       1 <0>         0.1258
     12 C9          4.7157    0.9850   -0.6569 C.3       1 <0>        -0.1513
     13 C10         5.9391    1.7703   -1.1338 C.3       1 <0>         0.1105
     14 N3          7.1398    0.9454   -0.9782 N.pl3     1 <0>        -0.4618
     15 C11         7.9500    0.8900    0.1237 C.2       1 <0>        -0.0574
     16 C12         8.9288    0.0084   -0.1563 C.2       1 <0>        -0.0277
     17 N4          8.7271   -0.4547   -1.3988 N.2       1 <0>        -0.4941
     18 C13         7.6574    0.1022   -1.8973 C.2       1 <0>         0.1819
     19 Cl1        -5.3168    3.5505    0.1168 Cl        1 <0>        -0.0653
     20 H1         -1.7657    0.8350    1.9817 H         1 <0>         0.1332
     21 H2         -3.9727    1.9232    2.0277 H         1 <0>         0.1391
     22 H3         -3.2721    3.5260   -1.8645 H         1 <0>         0.1401
     23 H4         -1.0589    2.4509   -1.9138 H         1 <0>         0.1567
     24 H5          0.0846    0.0423    0.2880 H         1 <0>         0.4086
     25 H6          2.3951    0.1916   -0.0243 H         1 <0>         0.4003
     26 H7          3.3366    2.1117   -1.8691 H         1 <0>         0.0957
     27 H8          3.5650    2.7543   -0.2250 H         1 <0>         0.0950
     28 H9          4.8407    0.7198    0.3929 H         1 <0>         0.0797
     29 H10         4.6123    0.0772   -1.2512 H         1 <0>         0.0805
     30 H11         5.8141    2.0355   -2.1836 H         1 <0>         0.1025
     31 H12         6.0425    2.6781   -0.5395 H         1 <0>         0.1001
     32 H13         7.8266    1.4448    1.0421 H         1 <0>         0.1743
     33 H14         9.7374   -0.2725    0.5023 H         1 <0>         0.1701
     34 H15         7.2526   -0.0814   -2.8816 H         1 <0>         0.2044
@<TRIPOS>BOND
     1    1    6 ar
     2    1    2 ar
     3    1   20 1
     4    2    3 ar
     5    2   21 1
     6    3    4 ar
     7    3   19 1
     8    4    5 ar
     9    4   22 1
    10    5    6 ar
    11    5   23 1
    12    6    7 1
    13    7    8 1
    14    7   24 1
    15    8    9 2
    16    8   10 1
    17   10   11 1
    18   10   25 1
    19   11   12 1
    20   11   26 1
    21   11   27 1
    22   12   13 1
    23   12   28 1
    24   12   29 1
    25   13   14 1
    26   13   30 1
    27   13   31 1
    28   14   18 1
    29   14   15 1
    30   15   16 2
    31   15   32 1
    32   16   17 1
    33   16   33 1
    34   17   18 2
    35   18   34 1
@<TRIPOS>MOLECULE
ZINC06625775
   33    33     0     0     0
SMALL
USER_CHARGES
N-(3-imidazol-1-ylpropyl)-N'-propyl-1-sulfanyl-formamidine
@<TRIPOS>ATOM
      1 C1         -0.2672    0.8578   -8.5173 C.3       1 <0>        -0.1520
      2 C2          0.3310    0.5878   -7.1352 C.3       1 <0>        -0.1383
      3 C3         -0.5120    1.2896   -6.0686 C.3       1 <0>         0.1168
      4 N1          0.0607    1.0310   -4.7453 N.pl3     1 <0>        -0.6667
      5 C4         -0.5503    1.4587   -3.6753 C.cat     1 <0>         0.5827
      6 N2         -0.0763    1.1175   -2.4297 N.pl3     1 <0>        -0.7141
      7 C5         -0.7626    1.5979   -1.2279 C.3       1 <0>         0.1334
      8 C6         -0.0374    1.0789    0.0153 C.3       1 <0>        -0.1486
      9 C7         -0.7542    1.5806    1.2705 C.3       1 <0>         0.1070
     10 N3         -0.0598    1.0837    2.4609 N.pl3     1 <0>        -0.4604
     11 C8         -0.3151   -0.0885    3.1201 C.2       1 <0>        -0.0573
     12 C9          0.5509   -0.1533    4.1494 C.2       1 <0>        -0.0287
     13 N4          1.3079    0.9537    4.1250 N.2       1 <0>        -0.4950
     14 C10         0.9477    1.6993    3.1164 C.2       1 <0>         0.1815
     15 S1         -1.9829    2.4735   -3.8251 S.3       1 <0>        -0.6913
     16 H1          0.3389    0.3532   -9.2841 H         1 <0>         0.0635
     17 H2         -0.2734    1.9410   -8.7089 H         1 <0>         0.0621
     18 H3         -1.2972    0.4733   -8.5525 H         1 <0>         0.0618
     19 H4          0.3372   -0.4954   -6.9436 H         1 <0>         0.0694
     20 H5          1.3610    0.9722   -7.1000 H         1 <0>         0.0698
     21 H6         -0.5181    2.3728   -6.2602 H         1 <0>         0.0918
     22 H7         -1.5421    0.9052   -6.1038 H         1 <0>         0.0933
     23 H8          0.8180    0.4839   -2.3362 H         1 <0>         0.4168
     24 H9         -0.7620    2.6979   -1.2203 H         1 <0>         0.0872
     25 H10        -1.7999    1.2318   -1.2269 H         1 <0>         0.0870
     26 H11        -0.0380   -0.0211    0.0076 H         1 <0>         0.0783
     27 H12         0.9999    1.4450    0.0143 H         1 <0>         0.0789
     28 H13        -0.7537    2.6806    1.2781 H         1 <0>         0.1026
     29 H14        -1.7915    1.2145    1.2715 H         1 <0>         0.1003
     30 H15        -1.0651   -0.8217    2.8626 H         1 <0>         0.1739
     31 H16         0.6201   -0.9537    4.8711 H         1 <0>         0.1697
     32 H17         1.3836    2.6508    2.8496 H         1 <0>         0.2039
     33 H18         1.0061    0.4761   -4.6541 H         1 <0>         0.4207
@<TRIPOS>BOND
     1    1    2 1
     2    1   16 1
     3    1   17 1
     4    1   18 1
     5    2    3 1
     6    2   19 1
     7    2   20 1
     8    3    4 1
     9    3   21 1
    10    3   22 1
    11    4    5 2
    12    4   33 1
    13    5    6 1
    14    5   15 1
    15    6    7 1
    16    6   23 1
    17    7    8 1
    18    7   24 1
    19    7   25 1
    20    8    9 1
    21    8   26 1
    22    8   27 1
    23    9   10 1
    24    9   28 1
    25    9   29 1
    26   10   14 1
    27   10   11 1
    28   11   12 2
    29   11   30 1
    30   12   13 1
    31   12   31 1
    32   13   14 2
    33   14   32 1
@<TRIPOS>MOLECULE
ZINC06625775
   33    33     0     0     0
SMALL
USER_CHARGES

@<TRIPOS>ATOM
      1 C1         -0.0187    1.5258    0.0104 C.3       1 <0>        -0.1497
      2 C2          0.0021   -0.0041    0.0020 C.3       1 <0>        -0.1382
      3 C3          0.7182   -0.4975   -1.2568 C.3       1 <0>         0.1215
      4 N1          0.7381   -1.9623   -1.2648 N.pl3     1 <0>        -0.6848
      5 C4          1.3211   -2.6228   -2.2848 C.2       1 <0>         0.5590
      6 S1          2.0384   -1.7499   -3.5711 S.2       1 <0>        -0.6353
      7 N2          1.3394   -3.9704   -2.2922 N.pl3     1 <0>        -0.6883
      8 C5          1.9731   -4.6883   -3.4010 C.3       1 <0>         0.1283
      9 C6          1.8560   -6.1956   -3.1658 C.3       1 <0>        -0.1508
     10 C7          2.5179   -6.9453   -4.3237 C.3       1 <0>         0.1101
     11 N3          2.4058   -8.3885   -4.0986 N.pl3     1 <0>        -0.4611
     12 C8          3.3002   -9.1777   -3.4272 C.2       1 <0>        -0.0574
     13 C9          2.8109  -10.4321   -3.4553 C.2       1 <0>        -0.0283
     14 N4          1.6494  -10.4094   -4.1256 N.2       1 <0>        -0.4946
     15 C10         1.3978   -9.1878   -4.5095 C.2       1 <0>         0.1817
     16 H1          1.0039    1.9031    0.0027 H         1 <0>         0.0615
     17 H2         -0.5459    1.8868   -0.8726 H         1 <0>         0.0615
     18 H3         -0.5289    1.8773    0.9072 H         1 <0>         0.0626
     19 H4          0.5293   -0.3651    0.8851 H         1 <0>         0.0685
     20 H5         -1.0205   -0.3814    0.0098 H         1 <0>         0.0686
     21 H6          0.1910   -0.1364   -2.1398 H         1 <0>         0.0888
     22 H7          1.7408   -0.1202   -1.2645 H         1 <0>         0.0887
     23 H8          0.3316   -2.4569   -0.5361 H         1 <0>         0.3970
     24 H9          0.9329   -4.4650   -1.5635 H         1 <0>         0.3975
     25 H10         1.4756   -4.4265   -4.3349 H         1 <0>         0.0927
     26 H11         3.0254   -4.4103   -3.4595 H         1 <0>         0.0921
     27 H12         2.3535   -6.4573   -2.2319 H         1 <0>         0.0785
     28 H13         0.8037   -6.4735   -3.1073 H         1 <0>         0.0793
     29 H14         2.0204   -6.6835   -5.2576 H         1 <0>         0.1024
     30 H15         3.5702   -6.6673   -4.3823 H         1 <0>         0.0999
     31 H16         4.2215   -8.8563   -2.9642 H         1 <0>         0.1741
     32 H17         3.2729  -11.3035   -3.0153 H         1 <0>         0.1699
     33 H18         0.5288   -8.8692   -5.0661 H         1 <0>         0.2043
@<TRIPOS>BOND
     1    1    2 1
     2    1   16 1
     3    1   17 1
     4    1   18 1
     5    2    3 1
     6    2   19 1
     7    2   20 1
     8    3    4 1
     9    3   21 1
    10    3   22 1
    11    4    5 1
    12    4   23 1
    13    5    6 2
    14    5    7 1
    15    7    8 1
    16    7   24 1
    17    8    9 1
    18    8   25 1
    19    8   26 1
    20    9   10 1
    21    9   27 1
    22    9   28 1
    23   10   11 1
    24   10   29 1
    25   10   30 1
    26   11   15 1
    27   11   12 1
    28   12   13 2
    29   12   31 1
    30   13   14 1
    31   13   32 1
    32   14   15 2
    33   15   33 1
@<TRIPOS>MOLECULE
ZINC06625775
   34    34     0     0     0
SMALL
USER_CHARGES
3-(3-imidazol-1-ylpropyl)-1-propyl-thiourea
@<TRIPOS>ATOM
      1 C1         -0.0778    1.1203   -8.5486 C.3       1 <0>        -0.1512
      2 C2          0.4632    0.7504   -7.1661 C.3       1 <0>        -0.1378
      3 C3         -0.4306    1.3656   -6.0874 C.3       1 <0>         0.1188
      4 N1          0.0874    1.0114   -4.7636 N.pl3     1 <0>        -0.6787
      5 C4         -0.5435    1.4461   -3.6547 C.2       1 <0>         0.5558
      6 S1         -1.9501    2.4121   -3.7932 S.2       1 <0>        -0.6223
      7 N2         -0.0670    1.1202   -2.4368 N.pl3     1 <0>        -0.6964
      8 C5         -0.7527    1.5927   -1.2315 C.3       1 <0>         0.1296
      9 C6         -0.0127    1.0858    0.0080 C.3       1 <0>        -0.1563
     10 C7         -0.7288    1.5792    1.2668 C.3       1 <0>         0.0971
     11 N3         -0.0203    1.0939    2.4537 N.pl3     1 <0>        -0.4104
     12 C8         -0.2549   -0.0808    3.1160 C.2       1 <0>         0.0237
     13 C9          0.6181   -0.1318    4.1401 C.2       1 <0>         0.0052
     14 C10         0.9824    1.7247    3.1021 C.cat     1 <0>         0.2881
     15 H1         -1.0927    0.7377   -8.6560 H         1 <0>         0.0625
     16 H2         -0.0849    2.2048   -8.6578 H         1 <0>         0.0624
     17 H3          0.5590    0.6820   -9.3171 H         1 <0>         0.0648
     18 H4          1.4781    1.1331   -7.0587 H         1 <0>         0.0689
     19 H5          0.4703   -0.3341   -7.0570 H         1 <0>         0.0690
     20 H6         -1.4456    0.9830   -6.1948 H         1 <0>         0.0913
     21 H7         -0.4377    2.4501   -6.1965 H         1 <0>         0.0913
     22 H8          0.8843    0.4641   -4.6851 H         1 <0>         0.3977
     23 H9          0.7300    0.5728   -2.3584 H         1 <0>         0.3968
     24 H10        -1.7753    1.2154   -1.2238 H         1 <0>         0.0961
     25 H11        -0.7675    2.6825   -1.2255 H         1 <0>         0.0960
     26 H12         0.0021   -0.0041    0.0020 H         1 <0>         0.0878
     27 H13         1.0099    1.4631    0.0003 H         1 <0>         0.0857
     28 H14        -0.7436    2.6691    1.2728 H         1 <0>         0.1291
     29 H15        -1.7514    1.2020    1.2746 H         1 <0>         0.1317
     30 H16        -0.9961   -0.8248    2.8642 H         1 <0>         0.2225
     31 H17         0.7030   -0.9301    4.8625 H         1 <0>         0.2233
     32 H18         1.4032    2.6818    2.8313 H         1 <0>         0.2593
     33 N4          1.3582    0.9855    4.1087 N.pl3     1 <0>        -0.4834
     34 H19         2.1043    1.2222    4.7732 H         1 <0>         0.4822
@<TRIPOS>BOND
     1    1    2 1
     2    1   15 1
     3    1   16 1
     4    1   17 1
     5    2    3 1
     6    2   18 1
     7    2   19 1
     8    3    4 1
     9    3   20 1
    10    3   21 1
    11    4    5 1
    12    4   22 1
    13    5    6 2
    14    5    7 1
    15    7    8 1
    16    7   23 1
    17    8    9 1
    18    8   24 1
    19    8   25 1
    20    9   10 1
    21    9   26 1
    22    9   27 1
    23   10   11 1
    24   10   28 1
    25   10   29 1
    26   11   14 1
    27   11   12 1
    28   12   13 2
    29   12   30 1
    30   13   31 1
    31   13   33 1
    32   14   32 1
    33   14   33 2
    34   33   34 1
@<TRIPOS>MOLECULE
ZINC06625775
   34    34     0     0     0
SMALL
USER_CHARGES
N-(3-imidazol-1-ylpropyl)-N'-propyl-1-sulfanyl-formamidine
@<TRIPOS>ATOM
      1 C1         -0.2672    0.8578   -8.5173 C.3       1 <0>        -0.1536
      2 C2          0.3310    0.5878   -7.1352 C.3       1 <0>        -0.1380
      3 C3         -0.5120    1.2896   -6.0686 C.3       1 <0>         0.1141
      4 N1          0.0607    1.0310   -4.7453 N.pl3     1 <0>        -0.6606
      5 C4         -0.5503    1.4587   -3.6753 C.cat     1 <0>         0.5802
      6 N2         -0.0763    1.1175   -2.4297 N.pl3     1 <0>        -0.7220
      7 C5         -0.7626    1.5979   -1.2279 C.3       1 <0>         0.1344
      8 C6         -0.0374    1.0789    0.0153 C.3       1 <0>        -0.1543
      9 C7         -0.7542    1.5806    1.2705 C.3       1 <0>         0.0940
     10 N3         -0.0598    1.0837    2.4609 N.pl3     1 <0>        -0.4111
     11 C8         -0.3151   -0.0885    3.1201 C.2       1 <0>         0.0205
     12 C9          0.5509   -0.1533    4.1494 C.2       1 <0>        -0.0040
     13 N4          1.3079    0.9537    4.1250 N.pl3     1 <0>        -0.4948
     14 C10         0.9477    1.6993    3.1164 C.cat     1 <0>         0.2954
     15 S1         -1.9829    2.4735   -3.8251 S.3       1 <0>        -0.6793
     16 H1          0.3389    0.3532   -9.2841 H         1 <0>         0.0657
     17 H2         -0.2734    1.9410   -8.7089 H         1 <0>         0.0631
     18 H3         -1.2972    0.4733   -8.5525 H         1 <0>         0.0628
     19 H4          0.3372   -0.4954   -6.9436 H         1 <0>         0.0698
     20 H5          1.3610    0.9722   -7.1000 H         1 <0>         0.0702
     21 H6         -0.5181    2.3728   -6.2602 H         1 <0>         0.0946
     22 H7         -1.5421    0.9052   -6.1038 H         1 <0>         0.0959
     23 H8          0.8180    0.4839   -2.3362 H         1 <0>         0.4156
     24 H9         -0.7620    2.6979   -1.2203 H         1 <0>         0.0906
     25 H10        -1.7999    1.2318   -1.2269 H         1 <0>         0.0911
     26 H11        -0.0380   -0.0211    0.0076 H         1 <0>         0.0873
     27 H12         0.9999    1.4450    0.0143 H         1 <0>         0.0851
     28 H13        -0.7537    2.6806    1.2781 H         1 <0>         0.1293
     29 H14        -1.7915    1.2145    1.2715 H         1 <0>         0.1320
     30 H15        -1.0651   -0.8217    2.8626 H         1 <0>         0.2196
     31 H16         0.6201   -0.9537    4.8711 H         1 <0>         0.2217
     32 H17         1.3836    2.6508    2.8496 H         1 <0>         0.2568
     33 H18         1.0061    0.4761   -4.6541 H         1 <0>         0.4216
     34 H19         2.0847    1.1058    4.8889 H         1 <0>         0.5063
@<TRIPOS>BOND
     1    1    2 1
     2    1   16 1
     3    1   17 1
     4    1   18 1
     5    2    3 1
     6    2   19 1
     7    2   20 1
     8    3    4 1
     9    3   21 1
    10    3   22 1
    11    4    5 2
    12    4   33 1
    13    5    6 1
    14    5   15 1
    15    6    7 1
    16    6   23 1
    17    7    8 1
    18    7   24 1
    19    7   25 1
    20    8    9 1
    21    8   26 1
    22    8   27 1
    23    9   10 1
    24    9   28 1
    25    9   29 1
    26   10   14 1
    27   10   11 1
    28   11   12 2
    29   11   30 1
    30   12   13 1
    31   12   31 1
    32   13   14 2
    33   13   34 1
    34   14   32 1
@<TRIPOS>MOLECULE
ZINC00076799
   28    29     0     0     0
SMALL
USER_CHARGES

@<TRIPOS>ATOM
      1 C1         -0.0161    1.3371    0.0094 C.2       1 <0>         0.0039
      2 C2          1.2587    1.7711   -0.0004 C.2       1 <0>         0.0245
      3 N1          2.0558    0.6583   -0.0140 N.pl3     1 <0>        -0.4088
      4 C3          1.2397   -0.4176   -0.0120 C.cat     1 <0>         0.2930
      5 N2          0.0021   -0.0041    0.0020 N.pl3     1 <0>        -0.4764
      6 C4          3.5206    0.6384   -0.0281 C.3       1 <0>         0.0983
      7 C5          4.0443    0.6237    1.4094 C.3       1 <0>        -0.1598
      8 C6          5.5741    0.6029    1.3947 C.3       1 <0>         0.1120
      9 N3          6.0755    0.5889    2.7711 N.am      1 <0>        -0.5404
     10 C7          6.3448    1.6965    3.4901 C.2       1 <0>         0.5134
     11 O1          6.2225    2.8488    3.1334 O.2       1 <0>        -0.4412
     12 C8          6.8316    1.2019    4.8377 C.3       1 <0>         0.0387
     13 N4          6.7747   -0.2645    4.7096 N.pl3     1 <0>        -0.6542
     14 C9          6.3172   -0.5251    3.4716 C.2       1 <0>         0.5368
     15 S1          6.0758   -2.1055    2.8593 S.2       1 <0>        -0.5440
     16 H1         -0.8984    1.9597    0.0252 H         1 <0>         0.2240
     17 H2          1.5887    2.7994    0.0016 H         1 <0>         0.2228
     18 H3          1.5585   -1.4495   -0.0206 H         1 <0>         0.2619
     19 H4          3.8668   -0.2536   -0.5501 H         1 <0>         0.1314
     20 H5          3.8911    1.5261   -0.5408 H         1 <0>         0.1292
     21 H6          3.6980    1.5158    1.9313 H         1 <0>         0.0849
     22 H7          3.6737   -0.2640    1.9220 H         1 <0>         0.0953
     23 H8          5.9203   -0.2891    0.8727 H         1 <0>         0.1257
     24 H9          5.9446    1.4906    0.8820 H         1 <0>         0.1103
     25 H10         7.8544    1.5315    5.0206 H         1 <0>         0.1472
     26 H11         6.1696    1.5433    5.6335 H         1 <0>         0.1451
     27 H12         7.0170   -0.9153    5.3868 H         1 <0>         0.4605
     28 H13        -0.7811   -0.5763    0.0069 H         1 <0>         0.4660
@<TRIPOS>BOND
     1    1    5 1
     2    1    2 2
     3    1   16 1
     4    2    3 1
     5    2   17 1
     6    3    4 1
     7    3    6 1
     8    4    5 2
     9    4   18 1
    10    5   28 1
    11    6    7 1
    12    6   19 1
    13    6   20 1
    14    7    8 1
    15    7   21 1
    16    7   22 1
    17    8    9 1
    18    8   23 1
    19    8   24 1
    20    9   14 1
    21    9   10 am
    22   10   11 2
    23   10   12 1
    24   12   13 1
    25   12   25 1
    26   12   26 1
    27   13   14 1
    28   13   27 1
    29   14   15 2
@<TRIPOS>MOLECULE
ZINC00076799
   27    28     0     0     0
SMALL
USER_CHARGES

@<TRIPOS>ATOM
      1 C1         -0.0161    1.3371    0.0094 C.2       1 <0>        -0.0283
      2 C2          1.2587    1.7711   -0.0004 C.2       1 <0>        -0.0592
      3 N1          2.0558    0.6583   -0.0140 N.pl3     1 <0>        -0.4604
      4 C3          1.2397   -0.4176   -0.0120 C.2       1 <0>         0.1858
      5 N2          0.0021   -0.0041    0.0020 N.2       1 <0>        -0.4953
      6 C4          3.5206    0.6384   -0.0281 C.3       1 <0>         0.1117
      7 C5          4.0443    0.6237    1.4094 C.3       1 <0>        -0.1522
      8 C6          5.5741    0.6029    1.3947 C.3       1 <0>         0.1112
      9 N3          6.0755    0.5889    2.7711 N.am      1 <0>        -0.5363
     10 C7          6.3448    1.6965    3.4901 C.2       1 <0>         0.5121
     11 O1          6.2225    2.8488    3.1334 O.2       1 <0>        -0.4440
     12 C8          6.8316    1.2019    4.8377 C.3       1 <0>         0.0409
     13 N4          6.7747   -0.2645    4.7096 N.pl3     1 <0>        -0.6605
     14 C9          6.3172   -0.5251    3.4716 C.2       1 <0>         0.5378
     15 S1          6.0758   -2.1055    2.8593 S.2       1 <0>        -0.5426
     16 H1         -0.8984    1.9597    0.0252 H         1 <0>         0.1694
     17 H2          1.5887    2.7994    0.0016 H         1 <0>         0.1731
     18 H3          1.5585   -1.4495   -0.0206 H         1 <0>         0.2056
     19 H4          3.8668   -0.2536   -0.5501 H         1 <0>         0.1039
     20 H5          3.8911    1.5261   -0.5408 H         1 <0>         0.0963
     21 H6          3.6980    1.5158    1.9313 H         1 <0>         0.0750
     22 H7          3.6737   -0.2640    1.9220 H         1 <0>         0.0886
     23 H8          5.9203   -0.2891    0.8727 H         1 <0>         0.1214
     24 H9          5.9446    1.4906    0.8820 H         1 <0>         0.1049
     25 H10         7.8544    1.5315    5.0206 H         1 <0>         0.1425
     26 H11         6.1696    1.5433    5.6335 H         1 <0>         0.1415
     27 H12         7.0170   -0.9153    5.3868 H         1 <0>         0.4573
@<TRIPOS>BOND
     1    1    5 1
     2    1    2 2
     3    1   16 1
     4    2    3 1
     5    2   17 1
     6    3    4 1
     7    3    6 1
     8    4    5 2
     9    4   18 1
    10    6    7 1
    11    6   19 1
    12    6   20 1
    13    7    8 1
    14    7   21 1
    15    7   22 1
    16    8    9 1
    17    8   23 1
    18    8   24 1
    19    9   14 1
    20    9   10 am
    21   10   11 2
    22   10   12 1
    23   12   13 1
    24   12   25 1
    25   12   26 1
    26   13   14 1
    27   13   27 1
    28   14   15 2
@<TRIPOS>MOLECULE
ZINC02493368
   32    33     0     0     0
SMALL
USER_CHARGES
1-[3-(4-methylphenoxy)propyl]imidazole
@<TRIPOS>ATOM
      1 C1          1.2256   -2.1871   -0.0209 C.3       1 <0>        -0.1121
      2 C2          1.2080   -0.6802   -0.0131 C.ar      1 <0>        -0.1226
      3 C3          0.0021   -0.0041    0.0020 C.ar      1 <0>        -0.0804
      4 C4         -0.0167    1.3772    0.0096 C.ar      1 <0>        -0.1468
      5 C5          1.1759    2.0860    0.0020 C.ar      1 <0>         0.1221
      6 C6          2.3846    1.4052   -0.0127 C.ar      1 <0>        -0.2048
      7 C7          2.3980    0.0239   -0.0207 C.ar      1 <0>        -0.0809
      8 O1          1.1601    3.4449    0.0099 O.3       1 <0>        -0.3140
      9 C8          2.4257    4.1084    0.0014 C.3       1 <0>         0.0638
     10 C9          2.2077    5.6228    0.0121 C.3       1 <0>        -0.1365
     11 C10         3.5627    6.3332    0.0030 C.3       1 <0>         0.1097
     12 N1          3.3539    7.7832    0.0133 N.pl3     1 <0>        -0.4609
     13 C11         3.2328    8.5942   -1.0828 C.2       1 <0>        -0.0571
     14 C12         3.0506    9.8467   -0.6225 C.2       1 <0>        -0.0277
     15 N2          3.0695    9.8030    0.7179 N.2       1 <0>        -0.4942
     16 C13         3.2507    8.5702    1.1058 C.2       1 <0>         0.1825
     17 H1          1.2198   -2.5452   -1.0504 H         1 <0>         0.0691
     18 H2          2.1247   -2.5426    0.4824 H         1 <0>         0.0653
     19 H3          0.3449   -2.5634    0.4997 H         1 <0>         0.0663
     20 H4         -0.9261   -0.5563    0.0076 H         1 <0>         0.1303
     21 H5         -0.9589    1.9049    0.0169 H         1 <0>         0.1312
     22 H6          3.3144    1.9547   -0.0186 H         1 <0>         0.1270
     23 H7          3.3387   -0.5065   -0.0325 H         1 <0>         0.1253
     24 H8          2.9947    3.8170    0.8842 H         1 <0>         0.0670
     25 H9          2.9774    3.8272   -0.8956 H         1 <0>         0.0663
     26 H10         1.6386    5.9142   -0.8707 H         1 <0>         0.0836
     27 H11         1.6560    5.9041    0.9092 H         1 <0>         0.0844
     28 H12         4.1317    6.0418    0.8858 H         1 <0>         0.0988
     29 H13         4.1143    6.0520   -0.8940 H         1 <0>         0.0964
     30 H14         3.2732    8.2881   -2.1177 H         1 <0>         0.1743
     31 H15         2.9180   10.7319   -1.2269 H         1 <0>         0.1704
     32 H16         3.3081    8.2349    2.1309 H         1 <0>         0.2045
@<TRIPOS>BOND
     1    1    2 1
     2    1   17 1
     3    1   18 1
     4    1   19 1
     5    2    7 ar
     6    2    3 ar
     7    3    4 ar
     8    3   20 1
     9    4    5 ar
    10    4   21 1
    11    5    6 ar
    12    5    8 1
    13    6    7 ar
    14    6   22 1
    15    7   23 1
    16    8    9 1
    17    9   10 1
    18    9   24 1
    19    9   25 1
    20   10   11 1
    21   10   26 1
    22   10   27 1
    23   11   12 1
    24   11   28 1
    25   11   29 1
    26   12   16 1
    27   12   13 1
    28   13   14 2
    29   13   30 1
    30   14   15 1
    31   14   31 1
    32   15   16 2
    33   16   32 1
@<TRIPOS>MOLECULE
ZINC02493368
   33    34     0     0     0
SMALL
USER_CHARGES
1-[3-(4-methylphenoxy)propyl]imidazole
@<TRIPOS>ATOM
      1 C1          1.2256   -2.1871   -0.0209 C.3       1 <0>        -0.1165
      2 C2          1.2080   -0.6802   -0.0131 C.ar      1 <0>        -0.1128
      3 C3          0.0021   -0.0041    0.0020 C.ar      1 <0>        -0.0793
      4 C4         -0.0167    1.3772    0.0096 C.ar      1 <0>        -0.1423
      5 C5          1.1759    2.0860    0.0020 C.ar      1 <0>         0.1134
      6 C6          2.3846    1.4052   -0.0127 C.ar      1 <0>        -0.2029
      7 C7          2.3980    0.0239   -0.0207 C.ar      1 <0>        -0.0815
      8 O1          1.1601    3.4449    0.0099 O.3       1 <0>        -0.3148
      9 C8          2.4257    4.1084    0.0014 C.3       1 <0>         0.0621
     10 C9          2.2077    5.6228    0.0121 C.3       1 <0>        -0.1419
     11 C10         3.5627    6.3332    0.0030 C.3       1 <0>         0.0964
     12 N1          3.3539    7.7832    0.0133 N.pl3     1 <0>        -0.4101
     13 C11         3.2328    8.5942   -1.0828 C.2       1 <0>         0.0240
     14 C12         3.0506    9.8467   -0.6225 C.2       1 <0>         0.0057
     15 C13         3.2507    8.5702    1.1058 C.cat     1 <0>         0.2891
     16 H1          1.2198   -2.5452   -1.0504 H         1 <0>         0.0724
     17 H2          2.1247   -2.5426    0.4824 H         1 <0>         0.0677
     18 H3          0.3449   -2.5634    0.4997 H         1 <0>         0.0690
     19 H4         -0.9261   -0.5563    0.0076 H         1 <0>         0.1335
     20 H5         -0.9589    1.9049    0.0169 H         1 <0>         0.1319
     21 H6          3.3144    1.9547   -0.0186 H         1 <0>         0.1254
     22 H7          3.3387   -0.5065   -0.0325 H         1 <0>         0.1278
     23 H8          2.9947    3.8170    0.8842 H         1 <0>         0.0708
     24 H9          2.9774    3.8272   -0.8956 H         1 <0>         0.0710
     25 H10         1.6386    5.9142   -0.8707 H         1 <0>         0.0926
     26 H11         1.6560    5.9041    0.9092 H         1 <0>         0.0907
     27 H12         4.1317    6.0418    0.8858 H         1 <0>         0.1256
     28 H13         4.1143    6.0520   -0.8940 H         1 <0>         0.1281
     29 H14         3.2732    8.2881   -2.1177 H         1 <0>         0.2225
     30 H15         2.9180   10.7319   -1.2269 H         1 <0>         0.2237
     31 H16         3.3081    8.2349    2.1309 H         1 <0>         0.2595
     32 N2          3.0696    9.8019    0.7171 N.pl3     1 <0>        -0.4831
     33 H17         2.9590   10.6108    1.3397 H         1 <0>         0.4823
@<TRIPOS>BOND
     1    1    2 1
     2    1   16 1
     3    1   17 1
     4    1   18 1
     5    2    7 ar
     6    2    3 ar
     7    3    4 ar
     8    3   19 1
     9    4    5 ar
    10    4   20 1
    11    5    6 ar
    12    5    8 1
    13    6    7 ar
    14    6   21 1
    15    7   22 1
    16    8    9 1
    17    9   10 1
    18    9   23 1
    19    9   24 1
    20   10   11 1
    21   10   25 1
    22   10   26 1
    23   11   12 1
    24   11   27 1
    25   11   28 1
    26   12   15 1
    27   12   13 1
    28   13   14 2
    29   13   29 1
    30   14   30 1
    31   14   32 1
    32   15   31 1
    33   15   32 2
    34   32   33 1
@<TRIPOS>MOLECULE
ZINC13679604
   39    40     0     0     0
SMALL
USER_CHARGES

@<TRIPOS>ATOM
      1 C1         -0.9846    1.4754   -1.1911 C.3       1 <0>         0.0261
      2 O1         -1.0196    0.0478   -1.2454 O.3       1 <0>        -0.3175
      3 C2          0.1046   -0.5808   -1.6787 C.ar      1 <0>         0.1330
      4 C3          1.2207    0.1619   -2.0387 C.ar      1 <0>        -0.1941
      5 C4          2.3644   -0.4758   -2.4794 C.ar      1 <0>        -0.0720
      6 C5          2.4010   -1.8544   -2.5637 C.ar      1 <0>        -0.1031
      7 C6          1.2872   -2.6027   -2.2048 C.ar      1 <0>         0.1488
      8 C7          0.1394   -1.9640   -1.7560 C.ar      1 <0>        -0.1550
      9 N1          1.3241   -3.9985   -2.2902 N.pl3     1 <0>        -0.6240
     10 C8          1.8326   -4.5933   -3.3875 C.2       1 <0>         0.5532
     11 N2          1.7907   -5.9351   -3.5073 N.pl3     1 <0>        -0.6895
     12 C9          2.3435   -6.5817   -4.7000 C.3       1 <0>         0.1281
     13 C10         2.1699   -8.0974   -4.5852 C.3       1 <0>        -0.1574
     14 C11         2.7472   -8.7727   -5.8308 C.3       1 <0>         0.0971
     15 N3          2.5809  -10.2241   -5.7209 N.pl3     1 <0>        -0.4091
     16 C12         3.4674  -11.1029   -5.1593 C.2       1 <0>         0.0256
     17 C13         2.9222  -12.3295   -5.2684 C.2       1 <0>         0.0047
     18 N4          1.7352  -12.2030   -5.8800 N.pl3     1 <0>        -0.4758
     19 C14         1.5219  -10.9441   -6.1495 C.cat     1 <0>         0.2893
     20 S1          2.5318   -3.6445   -4.6292 S.2       1 <0>        -0.5934
     21 H1         -0.1917    1.7939   -0.5144 H         1 <0>         0.0584
     22 H2         -0.7928    1.8723   -2.1879 H         1 <0>         0.0587
     23 H3         -1.9427    1.8488   -0.8294 H         1 <0>         0.1034
     24 H4          1.1949    1.2397   -1.9745 H         1 <0>         0.1332
     25 H5          3.2314    0.1044   -2.7589 H         1 <0>         0.1342
     26 H6          3.2959   -2.3504   -2.9092 H         1 <0>         0.1485
     27 H7         -0.7264   -2.5437   -1.4718 H         1 <0>         0.1313
     28 H8          0.9836   -4.5382   -1.5597 H         1 <0>         0.4081
     29 H9          1.8183   -6.2218   -5.5847 H         1 <0>         0.0982
     30 H10         3.4036   -6.3427   -4.7845 H         1 <0>         0.0985
     31 H11         2.6950   -8.4573   -3.7004 H         1 <0>         0.0891
     32 H12         1.1097   -8.3363   -4.5007 H         1 <0>         0.0869
     33 H13         2.2220   -8.4128   -6.7156 H         1 <0>         0.1299
     34 H14         3.8073   -8.5338   -5.9153 H         1 <0>         0.1326
     35 H15         4.4209  -10.8595   -4.7144 H         1 <0>         0.2238
     36 H16         3.3634  -13.2530   -4.9239 H         1 <0>         0.2244
     37 H17         0.6449  -10.5445   -6.6369 H         1 <0>         0.2606
     38 H18         1.3945   -6.4727   -2.8037 H         1 <0>         0.3990
     39 H19         1.1293  -12.9319   -6.0862 H         1 <0>         0.4661
@<TRIPOS>BOND
     1    1    2 1
     2    1   21 1
     3    1   22 1
     4    1   23 1
     5    2    3 1
     6    3    8 ar
     7    3    4 ar
     8    4    5 ar
     9    4   24 1
    10    5    6 ar
    11    5   25 1
    12    6    7 ar
    13    6   26 1
    14    7    8 ar
    15    7    9 1
    16    8   27 1
    17    9   10 1
    18    9   28 1
    19   10   11 1
    20   10   20 2
    21   11   12 1
    22   11   38 1
    23   12   13 1
    24   12   29 1
    25   12   30 1
    26   13   14 1
    27   13   31 1
    28   13   32 1
    29   14   15 1
    30   14   33 1
    31   14   34 1
    32   15   19 1
    33   15   16 1
    34   16   17 2
    35   16   35 1
    36   17   18 1
    37   17   36 1
    38   18   19 2
    39   18   39 1
    40   19   37 1
@<TRIPOS>MOLECULE
ZINC13679604
   38    39     0     0     0
SMALL
USER_CHARGES

@<TRIPOS>ATOM
      1 C1         -0.9846    1.4754   -1.1911 C.3       1 <0>         0.0273
      2 O1         -1.0196    0.0478   -1.2454 O.3       1 <0>        -0.3182
      3 C2          0.1046   -0.5808   -1.6787 C.ar      1 <0>         0.1303
      4 C3          1.2207    0.1619   -2.0387 C.ar      1 <0>        -0.1979
      5 C4          2.3644   -0.4758   -2.4794 C.ar      1 <0>        -0.0737
      6 C5          2.4010   -1.8544   -2.5637 C.ar      1 <0>        -0.1025
      7 C6          1.2872   -2.6027   -2.2048 C.ar      1 <0>         0.1570
      8 C7          0.1394   -1.9640   -1.7560 C.ar      1 <0>        -0.1560
      9 N1          1.3241   -3.9985   -2.2902 N.pl3     1 <0>        -0.6309
     10 C8          1.8326   -4.5933   -3.3875 C.2       1 <0>         0.5554
     11 N2          1.7907   -5.9351   -3.5073 N.pl3     1 <0>        -0.6803
     12 C9          2.3435   -6.5817   -4.7000 C.3       1 <0>         0.1265
     13 C10         2.1699   -8.0974   -4.5852 C.3       1 <0>        -0.1515
     14 C11         2.7472   -8.7727   -5.8308 C.3       1 <0>         0.1104
     15 N3          2.5809  -10.2241   -5.7209 N.pl3     1 <0>        -0.4615
     16 C12         3.4676  -11.1030   -5.1597 C.2       1 <0>        -0.0575
     17 C13         2.9223  -12.3295   -5.2687 C.2       1 <0>        -0.0279
     18 N4          1.7351  -12.2030   -5.8798 N.2       1 <0>        -0.4943
     19 C14         1.5217  -10.9440   -6.1491 C.2       1 <0>         0.1819
     20 S1          2.5318   -3.6445   -4.6292 S.2       1 <0>        -0.6050
     21 H1         -0.1917    1.7939   -0.5144 H         1 <0>         0.0569
     22 H2         -0.7928    1.8723   -2.1879 H         1 <0>         0.0575
     23 H3         -1.9427    1.8488   -0.8294 H         1 <0>         0.1012
     24 H4          1.1949    1.2397   -1.9745 H         1 <0>         0.1307
     25 H5          3.2314    0.1044   -2.7589 H         1 <0>         0.1324
     26 H6          3.2959   -2.3504   -2.9092 H         1 <0>         0.1495
     27 H7         -0.7264   -2.5437   -1.4718 H         1 <0>         0.1312
     28 H8          0.9836   -4.5382   -1.5597 H         1 <0>         0.4080
     29 H9          1.8183   -6.2218   -5.5847 H         1 <0>         0.0951
     30 H10         3.4036   -6.3427   -4.7845 H         1 <0>         0.0946
     31 H11         2.6950   -8.4573   -3.7004 H         1 <0>         0.0796
     32 H12         1.1097   -8.3363   -4.5007 H         1 <0>         0.0803
     33 H13         2.2220   -8.4128   -6.7156 H         1 <0>         0.1026
     34 H14         3.8073   -8.5338   -5.9153 H         1 <0>         0.1001
     35 H15         4.4213  -10.8596   -4.7152 H         1 <0>         0.1743
     36 H16         3.3637  -13.2531   -4.9243 H         1 <0>         0.1700
     37 H17         0.6445  -10.5444   -6.6361 H         1 <0>         0.2043
     38 H18         1.3945   -6.4727   -2.8037 H         1 <0>         0.4000
@<TRIPOS>BOND
     1    1    2 1
     2    1   21 1
     3    1   22 1
     4    1   23 1
     5    2    3 1
     6    3    8 ar
     7    3    4 ar
     8    4    5 ar
     9    4   24 1
    10    5    6 ar
    11    5   25 1
    12    6    7 ar
    13    6   26 1
    14    7    8 ar
    15    7    9 1
    16    8   27 1
    17    9   10 1
    18    9   28 1
    19   10   11 1
    20   10   20 2
    21   11   12 1
    22   11   38 1
    23   12   13 1
    24   12   29 1
    25   12   30 1
    26   13   14 1
    27   13   31 1
    28   13   32 1
    29   14   15 1
    30   14   33 1
    31   14   34 1
    32   15   19 1
    33   15   16 1
    34   16   17 2
    35   16   35 1
    36   17   18 1
    37   17   36 1
    38   18   19 2
    39   19   37 1
@<TRIPOS>MOLECULE
ZINC13679631
   32    34     0     0     0
SMALL
USER_CHARGES
6-chloro-N-(3-imidazol-1-ylpropyl)-1,3-benzothiazol-2-amine
@<TRIPOS>ATOM
      1 C1         -0.0167    1.3836    0.0096 C.ar      1 <0>        -0.0871
      2 C2          1.1426    2.1153    0.0025 C.ar      1 <0>        -0.0730
      3 C3          2.4019    1.4738   -0.0129 C.ar      1 <0>         0.1357
      4 C4          2.3830    0.0605   -0.0203 C.ar      1 <0>        -0.1605
      5 C5          1.2185   -0.6648   -0.0131 C.ar      1 <0>        -0.0407
      6 C6          0.0021   -0.0041    0.0020 C.ar      1 <0>        -0.0388
      7 Cl1        -1.4838   -0.9017    0.0108 Cl        1 <0>        -0.0536
      8 S1          4.1136   -0.3414   -0.0399 S.3       1 <0>        -0.0002
      9 C7          4.7339    1.3347   -0.0372 C.2       1 <0>         0.4198
     10 N1          3.6279    2.0429   -0.0222 N.2       1 <0>        -0.5838
     11 N2          6.0425    1.7734   -0.0477 N.pl3     1 <0>        -0.6707
     12 C8          7.1401    0.8033   -0.0640 C.3       1 <0>         0.1231
     13 C9          8.4775    1.5464   -0.0730 C.3       1 <0>        -0.1481
     14 C10         9.6238    0.5333   -0.0901 C.3       1 <0>         0.1098
     15 N3         10.9044    1.2448   -0.0988 N.pl3     1 <0>        -0.4624
     16 C11        11.6061    1.6408   -1.2053 C.2       1 <0>        -0.0573
     17 C12        12.7168    2.2596   -0.7615 C.2       1 <0>        -0.0270
     18 N4         12.6985    2.2337    0.5794 N.2       1 <0>        -0.4936
     19 C13        11.6158    1.6275    0.9834 C.2       1 <0>         0.1825
     20 H1         -0.9660    1.8986    0.0169 H         1 <0>         0.1436
     21 H2          1.0930    3.1942    0.0084 H         1 <0>         0.1413
     22 H3          1.2506   -1.7443   -0.0189 H         1 <0>         0.1418
     23 H4          6.2354    2.7240   -0.0442 H         1 <0>         0.4208
     24 H5          7.0809    0.1726    0.8230 H         1 <0>         0.0796
     25 H6          7.0633    0.1827   -0.9568 H         1 <0>         0.0790
     26 H7          8.5367    2.1771   -0.9601 H         1 <0>         0.0849
     27 H8          8.5543    2.1670    0.8198 H         1 <0>         0.0857
     28 H9          9.5646   -0.0974    0.7969 H         1 <0>         0.1010
     29 H10         9.5470   -0.0873   -0.9829 H         1 <0>         0.0986
     30 H11        11.3223    1.4884   -2.2362 H         1 <0>         0.1746
     31 H12        13.4896    2.6955   -1.3773 H         1 <0>         0.1703
     32 H13        11.3349    1.4600    2.0127 H         1 <0>         0.2046
@<TRIPOS>BOND
     1    1    6 ar
     2    1    2 ar
     3    1   20 1
     4    2    3 ar
     5    2   21 1
     6    3   10 1
     7    3    4 ar
     8    4    5 ar
     9    4    8 1
    10    5    6 ar
    11    5   22 1
    12    6    7 1
    13    8    9 1
    14    9   10 2
    15    9   11 1
    16   11   12 1
    17   11   23 1
    18   12   13 1
    19   12   24 1
    20   12   25 1
    21   13   14 1
    22   13   26 1
    23   13   27 1
    24   14   15 1
    25   14   28 1
    26   14   29 1
    27   15   19 1
    28   15   16 1
    29   16   17 2
    30   16   30 1
    31   17   18 1
    32   17   31 1
    33   18   19 2
    34   19   32 1
@<TRIPOS>MOLECULE
ZINC13679631
   33    35     0     0     0
SMALL
USER_CHARGES
6-chloro-N-(3-imidazol-1-ylpropyl)-1,3-benzothiazol-2-amine
@<TRIPOS>ATOM
      1 C1         -0.0167    1.3836    0.0096 C.ar      1 <0>        -0.0870
      2 C2          1.1426    2.1153    0.0025 C.ar      1 <0>        -0.0668
      3 C3          2.4019    1.4738   -0.0129 C.ar      1 <0>         0.1258
      4 C4          2.3830    0.0605   -0.0203 C.ar      1 <0>        -0.1529
      5 C5          1.2185   -0.6648   -0.0131 C.ar      1 <0>        -0.0444
      6 C6          0.0021   -0.0041    0.0020 C.ar      1 <0>        -0.0310
      7 Cl1        -1.4838   -0.9017    0.0108 Cl        1 <0>        -0.0455
      8 S1          4.1136   -0.3414   -0.0399 S.3       1 <0>         0.0009
      9 C7          4.7339    1.3347   -0.0372 C.2       1 <0>         0.4075
     10 N1          3.6279    2.0429   -0.0222 N.2       1 <0>        -0.5726
     11 N2          6.0425    1.7734   -0.0477 N.pl3     1 <0>        -0.6784
     12 C8          7.1401    0.8033   -0.0640 C.3       1 <0>         0.1255
     13 C9          8.4775    1.5464   -0.0730 C.3       1 <0>        -0.1534
     14 C10         9.6238    0.5333   -0.0901 C.3       1 <0>         0.0967
     15 N3         10.9044    1.2448   -0.0988 N.pl3     1 <0>        -0.4115
     16 C11        11.6061    1.6408   -1.2053 C.2       1 <0>         0.0238
     17 C12        12.7168    2.2596   -0.7615 C.2       1 <0>         0.0063
     18 C13        11.6158    1.6275    0.9834 C.cat     1 <0>         0.2890
     19 H1         -0.9660    1.8986    0.0169 H         1 <0>         0.1469
     20 H2          1.0930    3.1942    0.0084 H         1 <0>         0.1431
     21 H3          1.2506   -1.7443   -0.0189 H         1 <0>         0.1440
     22 H4          6.2354    2.7240   -0.0442 H         1 <0>         0.4196
     23 H5          7.0809    0.1726    0.8230 H         1 <0>         0.0823
     24 H6          7.0633    0.1827   -0.9568 H         1 <0>         0.0824
     25 H7          8.5367    2.1771   -0.9601 H         1 <0>         0.0939
     26 H8          8.5543    2.1670    0.8198 H         1 <0>         0.0919
     27 H9          9.5646   -0.0974    0.7969 H         1 <0>         0.1278
     28 H10         9.5470   -0.0873   -0.9829 H         1 <0>         0.1304
     29 H11        11.3223    1.4884   -2.2362 H         1 <0>         0.2228
     30 H12        13.4896    2.6955   -1.3773 H         1 <0>         0.2236
     31 H13        11.3349    1.4600    2.0127 H         1 <0>         0.2596
     32 N4         12.6976    2.2332    0.5786 N.pl3     1 <0>        -0.4828
     33 H14        13.4213    2.6280    1.1906 H         1 <0>         0.4826
@<TRIPOS>BOND
     1    1    6 ar
     2    1    2 ar
     3    1   19 1
     4    2    3 ar
     5    2   20 1
     6    3   10 1
     7    3    4 ar
     8    4    5 ar
     9    4    8 1
    10    5    6 ar
    11    5   21 1
    12    6    7 1
    13    8    9 1
    14    9   10 2
    15    9   11 1
    16   11   12 1
    17   11   22 1
    18   12   13 1
    19   12   23 1
    20   12   24 1
    21   13   14 1
    22   13   25 1
    23   13   26 1
    24   14   15 1
    25   14   27 1
    26   14   28 1
    27   15   18 1
    28   15   16 1
    29   16   17 2
    30   16   29 1
    31   17   30 1
    32   17   32 1
    33   18   31 1
    34   18   32 2
    35   32   33 1
@<TRIPOS>MOLECULE
ZINC12602060
   32    34     0     0     0
SMALL
USER_CHARGES
N-(3-imidazol-1-ylpropyl)-1,3-benzothiazol-2-amine
@<TRIPOS>ATOM
      1 C1          1.1750    1.7929    0.0005 C.ar      1 <0>        -0.0983
      2 C2         -0.0126    1.0758    0.0080 C.ar      1 <0>        -0.1171
      3 C3         -1.2155    1.7582    0.0173 C.ar      1 <0>        -0.0543
      4 C4         -1.2159    3.1304    0.0310 C.ar      1 <0>        -0.1634
      5 C5         -0.0266    3.8937    0.0238 C.ar      1 <0>         0.1263
      6 C6          1.1840    3.1634    0.0078 C.ar      1 <0>        -0.0855
      7 N1         -0.1915    5.2348    0.0335 N.2       1 <0>        -0.5840
      8 C7         -1.3775    5.7994    0.0487 C.2       1 <0>         0.4160
      9 S1         -2.4721    4.3866    0.0511 S.3       1 <0>        -0.0200
     10 N2         -1.6970    7.1419    0.0604 N.pl3     1 <0>        -0.6738
     11 C8         -3.1008    7.5607    0.0768 C.3       1 <0>         0.1248
     12 C9         -3.1770    9.0887    0.0872 C.3       1 <0>        -0.1479
     13 C10        -4.6431    9.5261    0.1044 C.3       1 <0>         0.1097
     14 N3         -4.7161   10.9892    0.1144 N.pl3     1 <0>        -0.4622
     15 C11        -4.7513   11.7932    1.2217 C.2       1 <0>        -0.0571
     16 C12        -4.8131   13.0635    0.7791 C.2       1 <0>        -0.0273
     17 N4         -4.8250   13.0356   -0.5619 N.2       1 <0>        -0.4939
     18 C13        -4.7671   11.7964   -0.9671 C.2       1 <0>         0.1824
     19 H1          2.1137    1.2590   -0.0118 H         1 <0>         0.1327
     20 H2          0.0021   -0.0041    0.0020 H         1 <0>         0.1371
     21 H3         -2.1487    1.2145    0.0184 H         1 <0>         0.1313
     22 H4          2.1261    3.6913    0.0016 H         1 <0>         0.1305
     23 H5         -0.9921    7.8082    0.0577 H         1 <0>         0.4195
     24 H6         -3.6045    7.1778   -0.8108 H         1 <0>         0.0782
     25 H7         -3.5871    7.1665    0.9691 H         1 <0>         0.0776
     26 H8         -2.6732    9.4716    0.9748 H         1 <0>         0.0845
     27 H9         -2.6907    9.4829   -0.8051 H         1 <0>         0.0852
     28 H10        -5.1468    9.1432   -0.7832 H         1 <0>         0.1009
     29 H11        -5.1294    9.1319    0.9967 H         1 <0>         0.0985
     30 H12        -4.7308   11.4707    2.2522 H         1 <0>         0.1745
     31 H13        -4.8518   13.9493    1.3958 H         1 <0>         0.1703
     32 H14        -4.7605   11.4705   -1.9967 H         1 <0>         0.2045
@<TRIPOS>BOND
     1    1    6 ar
     2    1    2 ar
     3    1   19 1
     4    2    3 ar
     5    2   20 1
     6    3    4 ar
     7    3   21 1
     8    4    9 1
     9    4    5 ar
    10    5    6 ar
    11    5    7 1
    12    6   22 1
    13    7    8 2
    14    8    9 1
    15    8   10 1
    16   10   11 1
    17   10   23 1
    18   11   12 1
    19   11   24 1
    20   11   25 1
    21   12   13 1
    22   12   26 1
    23   12   27 1
    24   13   14 1
    25   13   28 1
    26   13   29 1
    27   14   18 1
    28   14   15 1
    29   15   16 2
    30   15   30 1
    31   16   17 1
    32   16   31 1
    33   17   18 2
    34   18   32 1
@<TRIPOS>MOLECULE
ZINC12602060
   33    35     0     0     0
SMALL
USER_CHARGES
N-(3-imidazol-1-ylpropyl)-1,3-benzothiazol-2-amine
@<TRIPOS>ATOM
      1 C1          1.1750    1.7929    0.0005 C.ar      1 <0>        -0.0976
      2 C2         -0.0126    1.0758    0.0080 C.ar      1 <0>        -0.1074
      3 C3         -1.2155    1.7582    0.0173 C.ar      1 <0>        -0.0572
      4 C4         -1.2159    3.1304    0.0310 C.ar      1 <0>        -0.1563
      5 C5         -0.0266    3.8937    0.0238 C.ar      1 <0>         0.1170
      6 C6          1.1840    3.1634    0.0078 C.ar      1 <0>        -0.0796
      7 N1         -0.1915    5.2348    0.0335 N.2       1 <0>        -0.5726
      8 C7         -1.3775    5.7994    0.0487 C.2       1 <0>         0.4034
      9 S1         -2.4721    4.3866    0.0511 S.3       1 <0>        -0.0186
     10 N2         -1.6970    7.1419    0.0604 N.pl3     1 <0>        -0.6810
     11 C8         -3.1008    7.5607    0.0768 C.3       1 <0>         0.1271
     12 C9         -3.1770    9.0887    0.0872 C.3       1 <0>        -0.1532
     13 C10        -4.6431    9.5261    0.1044 C.3       1 <0>         0.0967
     14 N3         -4.7161   10.9892    0.1144 N.pl3     1 <0>        -0.4113
     15 C11        -4.7513   11.7932    1.2217 C.2       1 <0>         0.0238
     16 C12        -4.8131   13.0635    0.7791 C.2       1 <0>         0.0060
     17 C13        -4.7671   11.7964   -0.9671 C.cat     1 <0>         0.2890
     18 H1          2.1137    1.2590   -0.0118 H         1 <0>         0.1362
     19 H2          0.0021   -0.0041    0.0020 H         1 <0>         0.1406
     20 H3         -2.1487    1.2145    0.0184 H         1 <0>         0.1336
     21 H4          2.1261    3.6913    0.0016 H         1 <0>         0.1324
     22 H5         -0.9921    7.8082    0.0577 H         1 <0>         0.4184
     23 H6         -3.6045    7.1778   -0.8108 H         1 <0>         0.0810
     24 H7         -3.5871    7.1665    0.9691 H         1 <0>         0.0812
     25 H8         -2.6732    9.4716    0.9748 H         1 <0>         0.0935
     26 H9         -2.6907    9.4829   -0.8051 H         1 <0>         0.0914
     27 H10        -5.1468    9.1432   -0.7832 H         1 <0>         0.1277
     28 H11        -5.1294    9.1319    0.9967 H         1 <0>         0.1303
     29 H12        -4.7308   11.4707    2.2522 H         1 <0>         0.2227
     30 H13        -4.8518   13.9493    1.3958 H         1 <0>         0.2236
     31 H14        -4.7605   11.4705   -1.9967 H         1 <0>         0.2595
     32 N4         -4.8249   13.0345   -0.5611 N.pl3     1 <0>        -0.4830
     33 H15        -4.8722   13.8582   -1.1723 H         1 <0>         0.4825
@<TRIPOS>BOND
     1    1    6 ar
     2    1    2 ar
     3    1   18 1
     4    2    3 ar
     5    2   19 1
     6    3    4 ar
     7    3   20 1
     8    4    9 1
     9    4    5 ar
    10    5    6 ar
    11    5    7 1
    12    6   21 1
    13    7    8 2
    14    8    9 1
    15    8   10 1
    16   10   11 1
    17   10   22 1
    18   11   12 1
    19   11   23 1
    20   11   24 1
    21   12   13 1
    22   12   25 1
    23   12   26 1
    24   13   14 1
    25   13   27 1
    26   13   28 1
    27   14   17 1
    28   14   15 1
    29   15   16 2
    30   15   29 1
    31   16   30 1
    32   16   32 1
    33   17   31 1
    34   17   32 2
    35   32   33 1
@<TRIPOS>MOLECULE
ZINC45245356
   46    47     0     0     0
SMALL
USER_CHARGES

@<TRIPOS>ATOM
      1 C1         -0.8059    2.4259   -0.3289 C.3       1 <0>        -0.1031
      2 C2         -0.3046    1.0055   -0.2828 C.2       1 <0>         0.0591
      3 C3         -0.1157    0.1863   -1.3348 C.2       1 <0>        -0.0028
      4 N1          0.3381   -0.9874   -0.8705 N.pl3     1 <0>        -0.4721
      5 C4          0.4376   -0.9266    0.4292 C.cat     1 <0>         0.2882
      6 N2          0.0519    0.3020    0.8360 N.pl3     1 <0>        -0.4091
      7 C5          0.0182    0.7897    2.2170 C.3       1 <0>         0.0957
      8 C6         -1.3870    0.5988    2.7912 C.3       1 <0>        -0.1571
      9 C7         -1.4222    1.1082    4.2335 C.3       1 <0>         0.1288
     10 N3         -2.7677    0.9254    4.7833 N.pl3     1 <0>        -0.6902
     11 C8         -3.0361    1.3050    6.0483 C.2       1 <0>         0.5523
     12 S1         -1.8046    2.0007    7.0128 S.2       1 <0>        -0.5973
     13 N4         -4.2740    1.1368    6.5541 N.pl3     1 <0>        -0.6202
     14 C9         -4.5308    1.4485    7.8955 C.ar      1 <0>         0.1067
     15 C10        -4.0562    2.6364    8.4354 C.ar      1 <0>        -0.0572
     16 C11        -4.3090    2.9456    9.7583 C.ar      1 <0>        -0.1679
     17 C12        -5.0364    2.0707   10.5489 C.ar      1 <0>         0.1177
     18 C13        -5.5134    0.8794   10.0109 C.ar      1 <0>         0.1033
     19 C14        -5.2648    0.5724    8.6833 C.ar      1 <0>        -0.1719
     20 O1         -6.2275    0.0201   10.7861 O.3       1 <0>        -0.3007
     21 C15        -6.6858   -1.1838   10.1676 C.3       1 <0>         0.0259
     22 O2         -5.2838    2.3762   11.8516 O.3       1 <0>        -0.3031
     23 C16        -4.7636    3.6152   12.3375 C.3       1 <0>         0.0235
     24 H1          0.0391    3.1061   -0.4354 H         1 <0>         0.1039
     25 H2         -1.4786    2.5464   -1.1781 H         1 <0>         0.1083
     26 H3         -1.3408    2.6526    0.5933 H         1 <0>         0.0894
     27 H4         -0.2978    0.4314   -2.3708 H         1 <0>         0.2233
     28 H5          0.7762   -1.7252    1.0726 H         1 <0>         0.2609
     29 H6          0.7353    0.2300    2.8176 H         1 <0>         0.1309
     30 H7          0.2773    1.8483    2.2349 H         1 <0>         0.1299
     31 H8         -2.1040    1.1585    2.1906 H         1 <0>         0.0880
     32 H9         -1.6461   -0.4598    2.7733 H         1 <0>         0.0874
     33 H10        -0.7052    0.5485    4.8341 H         1 <0>         0.0980
     34 H11        -1.1631    2.1668    4.2514 H         1 <0>         0.0981
     35 H12        -3.4655    0.5312    4.2368 H         1 <0>         0.3985
     36 H13        -4.9870    0.8000    5.9894 H         1 <0>         0.4063
     37 H14        -3.4884    3.3193    7.8208 H         1 <0>         0.1516
     38 H15        -3.9389    3.8701   10.1764 H         1 <0>         0.1439
     39 H16        -5.6378   -0.3498    8.2628 H         1 <0>         0.1360
     40 H17        -7.3365   -0.9363    9.3288 H         1 <0>         0.0534
     41 H18        -5.8306   -1.7557    9.8076 H         1 <0>         0.0533
     42 H19        -7.2400   -1.7775   10.8945 H         1 <0>         0.1043
     43 H20        -3.6782    3.6180   12.2371 H         1 <0>         0.0586
     44 H21        -5.1841    4.4377   11.7589 H         1 <0>         0.0576
     45 H22        -5.0316    3.7352   13.3872 H         1 <0>         0.1041
     46 H23         0.5574   -1.7597   -1.4150 H         1 <0>         0.4659
@<TRIPOS>BOND
     1    1    2 1
     2    1   24 1
     3    1   25 1
     4    1   26 1
     5    2    6 1
     6    2    3 2
     7    3    4 1
     8    3   27 1
     9    4    5 2
    10    4   46 1
    11    5    6 1
    12    5   28 1
    13    6    7 1
    14    7    8 1
    15    7   29 1
    16    7   30 1
    17    8    9 1
    18    8   31 1
    19    8   32 1
    20    9   10 1
    21    9   33 1
    22    9   34 1
    23   10   11 1
    24   10   35 1
    25   11   12 2
    26   11   13 1
    27   13   14 1
    28   13   36 1
    29   14   19 ar
    30   14   15 ar
    31   15   16 ar
    32   15   37 1
    33   16   17 ar
    34   16   38 1
    35   17   18 ar
    36   17   22 1
    37   18   19 ar
    38   18   20 1
    39   19   39 1
    40   20   21 1
    41   21   40 1
    42   21   41 1
    43   21   42 1
    44   22   23 1
    45   23   43 1
    46   23   44 1
    47   23   45 1
@<TRIPOS>MOLECULE
ZINC45245356
   45    46     0     0     0
SMALL
USER_CHARGES

@<TRIPOS>ATOM
      1 C1         -0.8059    2.4259   -0.3289 C.3       1 <0>        -0.0787
      2 C2         -0.3046    1.0055   -0.2828 C.2       1 <0>        -0.0274
      3 C3         -0.1157    0.1863   -1.3348 C.2       1 <0>        -0.0271
      4 N1          0.3381   -0.9874   -0.8705 N.2       1 <0>        -0.4913
      5 C4          0.4376   -0.9266    0.4292 C.2       1 <0>         0.1808
      6 N2          0.0519    0.3020    0.8360 N.pl3     1 <0>        -0.4584
      7 C5          0.0182    0.7897    2.2170 C.3       1 <0>         0.1098
      8 C6         -1.3870    0.5988    2.7912 C.3       1 <0>        -0.1513
      9 C7         -1.4222    1.1082    4.2335 C.3       1 <0>         0.1270
     10 N3         -2.7677    0.9254    4.7833 N.pl3     1 <0>        -0.6811
     11 C8         -3.0361    1.3050    6.0483 C.2       1 <0>         0.5548
     12 S1         -1.8046    2.0007    7.0128 S.2       1 <0>        -0.6082
     13 N4         -4.2740    1.1368    6.5541 N.pl3     1 <0>        -0.6275
     14 C9         -4.5308    1.4485    7.8955 C.ar      1 <0>         0.1163
     15 C10        -4.0562    2.6364    8.4354 C.ar      1 <0>        -0.0580
     16 C11        -4.3090    2.9456    9.7583 C.ar      1 <0>        -0.1674
     17 C12        -5.0364    2.0707   10.5489 C.ar      1 <0>         0.1121
     18 C13        -5.5134    0.8794   10.0109 C.ar      1 <0>         0.1015
     19 C14        -5.2648    0.5724    8.6833 C.ar      1 <0>        -0.1732
     20 O1         -6.2275    0.0201   10.7861 O.3       1 <0>        -0.3026
     21 C15        -6.6858   -1.1838   10.1676 C.3       1 <0>         0.0259
     22 O2         -5.2838    2.3762   11.8516 O.3       1 <0>        -0.3051
     23 C16        -4.7636    3.6152   12.3375 C.3       1 <0>         0.0244
     24 H1          0.0391    3.1061   -0.4354 H         1 <0>         0.0740
     25 H2         -1.4786    2.5464   -1.1781 H         1 <0>         0.0828
     26 H3         -1.3408    2.6526    0.5933 H         1 <0>         0.0624
     27 H4         -0.2978    0.4314   -2.3708 H         1 <0>         0.1689
     28 H5          0.7762   -1.7252    1.0726 H         1 <0>         0.2047
     29 H6          0.7353    0.2300    2.8176 H         1 <0>         0.1035
     30 H7          0.2773    1.8483    2.2349 H         1 <0>         0.0981
     31 H8         -2.1040    1.1585    2.1906 H         1 <0>         0.0791
     32 H9         -1.6461   -0.4598    2.7733 H         1 <0>         0.0803
     33 H10        -0.7052    0.5485    4.8341 H         1 <0>         0.0948
     34 H11        -1.1631    2.1668    4.2514 H         1 <0>         0.0942
     35 H12        -3.4655    0.5312    4.2368 H         1 <0>         0.3994
     36 H13        -4.9870    0.8000    5.9894 H         1 <0>         0.4062
     37 H14        -3.4884    3.3193    7.8208 H         1 <0>         0.1528
     38 H15        -3.9389    3.8701   10.1764 H         1 <0>         0.1423
     39 H16        -5.6378   -0.3498    8.2628 H         1 <0>         0.1360
     40 H17        -7.2400   -1.7775   10.8945 H         1 <0>         0.1024
     41 H18        -7.3365   -0.9363    9.3288 H         1 <0>         0.0532
     42 H19        -5.8306   -1.7557    9.8076 H         1 <0>         0.0538
     43 H20        -3.6782    3.6180   12.2371 H         1 <0>         0.0579
     44 H21        -5.1841    4.4377   11.7589 H         1 <0>         0.0565
     45 H22        -5.0316    3.7352   13.3872 H         1 <0>         0.1016
@<TRIPOS>BOND
     1    1    2 1
     2    1   24 1
     3    1   25 1
     4    1   26 1
     5    2    6 1
     6    2    3 2
     7    3    4 1
     8    3   27 1
     9    4    5 2
    10    5    6 1
    11    5   28 1
    12    6    7 1
    13    7    8 1
    14    7   29 1
    15    7   30 1
    16    8    9 1
    17    8   31 1
    18    8   32 1
    19    9   10 1
    20    9   33 1
    21    9   34 1
    22   10   11 1
    23   10   35 1
    24   11   12 2
    25   11   13 1
    26   13   14 1
    27   13   36 1
    28   14   19 ar
    29   14   15 ar
    30   15   16 ar
    31   15   37 1
    32   16   17 ar
    33   16   38 1
    34   17   18 ar
    35   17   22 1
    36   18   19 ar
    37   18   20 1
    38   19   39 1
    39   20   21 1
    40   21   40 1
    41   21   41 1
    42   21   42 1
    43   22   23 1
    44   23   43 1
    45   23   44 1
    46   23   45 1
