@<TRIPOS>MOLECULE
ZINC03872327
   63    65     0     0     0
SMALL
USER_CHARGES
N-(3-amino-3-imino-propyl)-4-[[4-[(4-formamido-1-methyl-pyrrole-2-carbonyl)amino]-1-methyl-pyrrole-2-carbonyl]amino]-1-methyl-pyrrole-2-carboxamide
@<TRIPOS>ATOM
      1 C1        -12.8897  -11.2873   -0.5657 C.3       1 <0>         0.0663
      2 N1        -13.2606   -9.8710   -0.6165 N.pl3     1 <0>        -0.4011
      3 C2        -14.5280   -9.3864   -0.6840 C.2       1 <0>        -0.0088
      4 C3        -14.4759   -8.0287   -0.7154 C.2       1 <0>         0.0529
      5 C4        -13.1260   -7.6516   -0.6718 C.2       1 <0>        -0.1340
      6 C5        -12.3829   -8.8112   -0.6045 C.2       1 <0>        -0.0483
      7 C6        -10.9205   -8.8994   -0.5388 C.2       1 <0>         0.5989
      8 O1        -10.3740   -9.9864   -0.5774 O.2       1 <0>        -0.5368
      9 N2        -10.1817   -7.7769   -0.4356 N.am      1 <0>        -0.6348
     10 C7         -8.7780   -7.8519   -0.4847 C.2       1 <0>         0.0660
     11 C8         -8.0173   -9.0201   -0.6369 C.2       1 <0>        -0.1310
     12 C9         -6.6905   -8.6436   -0.6343 C.2       1 <0>        -0.0512
     13 N3         -6.6447   -7.2766   -0.4839 N.pl3     1 <0>        -0.4015
     14 C10        -7.9160   -6.8045   -0.3990 C.2       1 <0>        -0.0035
     15 C11        -5.4268   -6.4641   -0.4296 C.3       1 <0>         0.0683
     16 C12        -5.5367   -9.5387   -0.7678 C.2       1 <0>         0.6031
     17 O2         -4.4133   -9.0763   -0.8453 O.2       1 <0>        -0.5424
     18 N4         -5.7200  -10.8735   -0.8047 N.am      1 <0>        -0.6351
     19 C13        -4.6088  -11.7358   -0.8208 C.2       1 <0>         0.0659
     20 C14        -3.2613  -11.3482   -0.8082 C.2       1 <0>        -0.1292
     21 C15        -2.5069  -12.5024   -0.8289 C.2       1 <0>        -0.0613
     22 N5         -3.3760  -13.5688   -0.8626 N.pl3     1 <0>        -0.3995
     23 C16        -4.6489  -13.0939   -0.8573 C.2       1 <0>         0.0025
     24 C17        -2.9921  -14.9821   -0.8982 C.3       1 <0>         0.0707
     25 C18        -1.0424  -12.5793   -0.8224 C.2       1 <0>         0.6041
     26 O3         -0.4891  -13.6572   -0.9368 O.2       1 <0>        -0.5393
     27 N6         -0.3091  -11.4562   -0.6897 N.am      1 <0>        -0.7237
     28 C19         1.1509  -11.5181   -0.7936 C.3       1 <0>         0.1067
     29 C20         1.7353  -10.1166   -0.6067 C.3       1 <0>        -0.1481
     30 C21         3.2372  -10.1802   -0.7135 C.cat     1 <0>         0.5537
     31 N7          3.9825   -9.0387   -0.5786 N.pl3     1 <0>        -0.7752
     32 N8        -15.5788   -7.1576   -0.7851 N.am      1 <0>        -0.6546
     33 C22       -15.3838   -5.8242   -0.8096 C.2       1 <0>         0.4925
     34 O4        -14.2576   -5.3751   -0.7715 O.2       1 <0>        -0.5409
     35 H1        -12.8352  -11.6853   -1.5790 H         1 <0>         0.0784
     36 H2        -11.9186  -11.3915   -0.0817 H         1 <0>         0.1062
     37 H3        -13.6393  -11.8390    0.0016 H         1 <0>         0.0837
     38 H4        -15.4287   -9.9819   -0.7083 H         1 <0>         0.1741
     39 H5        -12.7410   -6.6426   -0.6855 H         1 <0>         0.1689
     40 H6        -10.6180   -6.9173   -0.3276 H         1 <0>         0.4163
     41 H7         -8.3986  -10.0255   -0.7376 H         1 <0>         0.1695
     42 H8         -8.1955   -5.7680   -0.2808 H         1 <0>         0.1769
     43 H9         -5.2020   -6.0796   -1.4244 H         1 <0>         0.0776
     44 H10        -5.5764   -5.6306    0.2568 H         1 <0>         0.0839
     45 H11        -4.5961   -7.0774   -0.0808 H         1 <0>         0.1041
     46 H12        -6.6182  -11.2394   -0.8201 H         1 <0>         0.4173
     47 H13        -2.8850  -10.3361   -0.7845 H         1 <0>         0.1691
     48 H14        -5.5450  -13.6964   -0.8782 H         1 <0>         0.1785
     49 H15        -2.8013  -15.2809   -1.9289 H         1 <0>         0.0811
     50 H16        -2.0899  -15.1286   -0.3044 H         1 <0>         0.0974
     51 H17        -3.7996  -15.5884   -0.4878 H         1 <0>         0.0894
     52 H18        -0.7482  -10.6070   -0.5253 H         1 <0>         0.4139
     53 H19         1.5423  -12.1809   -0.0218 H         1 <0>         0.0870
     54 H20         1.4294  -11.8999   -1.7758 H         1 <0>         0.0859
     55 H21         1.3439   -9.4538   -1.3784 H         1 <0>         0.1480
     56 H22         1.4568   -9.7348    0.3756 H         1 <0>         0.1476
     57 H23         4.7835  -11.4556   -1.0174 H         1 <0>         0.4432
     58 H24         3.5436   -8.1894   -0.4142 H         1 <0>         0.4479
     59 H25         4.9492   -9.0795   -0.6474 H         1 <0>         0.4311
     60 H26       -16.4793   -7.5167   -0.8155 H         1 <0>         0.4128
     61 H27       -16.2301   -5.1557   -0.8676 H         1 <0>         0.1456
     62 N9          3.7711  -11.3607   -0.9371 N.pl3     1 <0>        -0.7534
     63 H28         3.1690  -12.1871   -1.0309 H         1 <0>         0.4664
@<TRIPOS>BOND
     1    1    2 1
     2    1   35 1
     3    1   36 1
     4    1   37 1
     5    2    6 1
     6    2    3 1
     7    3    4 2
     8    3   38 1
     9    4    5 1
    10    4   32 1
    11    5    6 2
    12    5   39 1
    13    6    7 1
    14    7    8 2
    15    7    9 am
    16    9   10 1
    17    9   40 1
    18   10   14 2
    19   10   11 1
    20   11   12 2
    21   11   41 1
    22   12   13 1
    23   12   16 1
    24   13   14 1
    25   13   15 1
    26   14   42 1
    27   15   43 1
    28   15   44 1
    29   15   45 1
    30   16   17 2
    31   16   18 am
    32   18   19 1
    33   18   46 1
    34   19   23 2
    35   19   20 1
    36   20   21 2
    37   20   47 1
    38   21   22 1
    39   21   25 1
    40   22   23 1
    41   22   24 1
    42   23   48 1
    43   24   49 1
    44   24   50 1
    45   24   51 1
    46   25   26 2
    47   25   27 am
    48   27   28 1
    49   27   52 1
    50   28   29 1
    51   28   53 1
    52   28   54 1
    53   29   30 1
    54   29   55 1
    55   29   56 1
    56   30   31 1
    57   30   62 2
    58   31   58 1
    59   31   59 1
    60   32   33 am
    61   32   60 1
    62   33   34 2
    63   33   61 1
    64   57   62 1
    65   62   63 1
