@<TRIPOS>MOLECULE
ZINC38148052
  110   109     0     0     0
SMALL
USER_CHARGES

@<TRIPOS>ATOM
      1 C1         -0.9213    3.0648    2.9870 C.3       1 <0>        -0.1604
      2 C2         -0.9910    1.5731    2.6541 C.3       1 <0>         0.1257
      3 H1         -1.9713    1.1847    2.9301 H         1 <0>         0.1132
      4 C3         -0.7710    1.3774    1.1762 C.2       1 <0>         0.5133
      5 O1          0.1603    0.7059    0.7854 O.2       1 <0>        -0.5388
      6 N1         -1.6091    1.9485    0.2886 N.am      1 <0>        -0.7109
      7 C4         -1.3337    1.8505   -1.1469 C.3       1 <0>         0.1056
      8 C5         -1.9777    0.5793   -1.7041 C.3       1 <0>        -0.1159
      9 C6         -1.5514    0.3882   -3.1610 C.3       1 <0>        -0.0987
     10 C7         -0.0458    0.1230   -3.2213 C.3       1 <0>        -0.1474
     11 C8         -2.3033   -0.8019   -3.7604 C.3       1 <0>        -0.1421
     12 C9         -1.9143    3.0720   -1.8622 C.3       1 <0>         0.1251
     13 H2         -1.7094    2.9991   -2.9303 H         1 <0>         0.1129
     14 C10        -1.2704    4.3431   -1.3050 C.3       1 <0>        -0.2151
     15 C11        -1.7500    5.5356   -2.0917 C.2       1 <0>         0.4911
     16 O2         -2.5343    5.3830   -3.0127 O.co2     1 <0>        -0.6812
     17 O3         -1.3539    6.6531   -1.8073 O.co2     1 <0>        -0.7091
     18 O4         -3.3267    3.1214   -1.6504 O.3       1 <0>        -0.5322
     19 N2          0.0460    0.8571    3.4012 N.am      1 <0>        -0.7132
     20 C12        -0.1910    0.4541    4.6653 C.2       1 <0>         0.5169
     21 O5         -1.2627    0.6842    5.1843 O.2       1 <0>        -0.5220
     22 C13         0.8757   -0.2825    5.4338 C.3       1 <0>        -0.1798
     23 C14         0.3543   -0.6228    6.8314 C.3       1 <0>         0.1181
     24 H3         -0.5804   -1.1769    6.7456 H         1 <0>         0.1250
     25 C15         1.3881   -1.4776    7.5673 C.3       1 <0>         0.1055
     26 H4          1.5614   -2.3982    7.0100 H         1 <0>         0.1073
     27 C16         0.8668   -1.8178    8.9649 C.3       1 <0>        -0.1186
     28 C17        -0.3515   -2.7356    8.8453 C.3       1 <0>        -0.0963
     29 C18         0.0818   -4.0864    8.2720 C.3       1 <0>        -0.1504
     30 C19        -0.9710   -2.9439   10.2287 C.3       1 <0>        -0.1453
     31 N3          2.6445   -0.7329    7.6827 N.am      1 <0>        -0.7229
     32 C20         3.8161   -1.3950    7.7548 C.2       1 <0>         0.5179
     33 O6          3.8380   -2.6026    7.6445 O.2       1 <0>        -0.5253
     34 C21         5.0991   -0.6349    7.9725 C.3       1 <0>         0.1320
     35 H5          4.9748    0.0564    8.8061 H         1 <0>         0.1140
     36 C22         5.4478    0.1502    6.7065 C.3       1 <0>        -0.1001
     37 C23         4.3171    1.1299    6.3862 C.3       1 <0>        -0.1708
     38 C24         6.7473    0.9265    6.9294 C.3       1 <0>        -0.1362
     39 N4          6.1793   -1.5768    8.2761 N.am      1 <0>        -0.7069
     40 C25         7.2523   -1.1671    8.9813 C.2       1 <0>         0.5219
     41 O7          7.3664    0.0007    9.2881 O.2       1 <0>        -0.5244
     42 C26         8.3102   -2.1600    9.3885 C.3       1 <0>         0.1349
     43 H6          8.4064   -2.9250    8.6180 H         1 <0>         0.1077
     44 C27         7.9114   -2.8163   10.7118 C.3       1 <0>        -0.0981
     45 C28         7.7460   -1.7393   11.7858 C.3       1 <0>        -0.1480
     46 C29         6.5890   -3.5644   10.5318 C.3       1 <0>        -0.1569
     47 N5          9.5914   -1.4687    9.5529 N.am      1 <0>        -0.7163
     48 C30        10.7467   -2.1489    9.4149 C.2       1 <0>         0.5169
     49 O8         10.7258   -3.3332    9.1547 O.2       1 <0>        -0.5328
     50 C31        12.0646   -1.4377    9.5841 C.3       1 <0>        -0.1368
     51 C32        13.2101   -2.4307    9.3773 C.3       1 <0>        -0.0806
     52 C33        14.5456   -1.6858    9.4253 C.3       1 <0>        -0.1492
     53 C34        13.1753   -3.4870   10.4836 C.3       1 <0>        -0.1540
     54 O9          0.1273    0.5842    7.5620 O.3       1 <0>        -0.5315
     55 H7          0.0591    3.4532    2.7110 H         1 <0>         0.0651
     56 H8         -1.6928    3.5976    2.4311 H         1 <0>         0.0750
     57 H9         -1.0804    3.2064    4.0560 H         1 <0>         0.0743
     58 H10        -2.3947    2.4245    0.6004 H         1 <0>         0.3981
     59 H11        -0.2564    1.8128   -1.3084 H         1 <0>         0.0973
     60 H12        -1.6551   -0.2794   -1.1155 H         1 <0>         0.0601
     61 H13        -3.0628    0.6688   -1.6517 H         1 <0>         0.0719
     62 H14        -1.7848    1.2887   -3.7290 H         1 <0>         0.0798
     63 H15         0.2705    0.0592   -4.2625 H         1 <0>         0.0516
     64 H16         0.4865    0.9370   -2.7291 H         1 <0>         0.0566
     65 H17         0.1783   -0.8161   -2.7153 H         1 <0>         0.0512
     66 H18        -3.3759   -0.6130   -3.7174 H         1 <0>         0.0546
     67 H19        -1.9996   -0.9381   -4.7983 H         1 <0>         0.0526
     68 H20        -2.0699   -1.7025   -3.1924 H         1 <0>         0.0490
     69 H21        -1.5489    4.4627   -0.2580 H         1 <0>         0.0579
     70 H22        -0.1861    4.2667   -1.3861 H         1 <0>         0.0629
     71 H23        -3.5829    3.1869   -0.7203 H         1 <0>         0.3502
     72 H24         0.9032    0.6730    2.9861 H         1 <0>         0.4086
     73 H25         1.1329   -1.2021    4.9081 H         1 <0>         0.1058
     74 H26         1.7616    0.3467    5.5198 H         1 <0>         0.0976
     75 H27         1.6487   -2.3239    9.5311 H         1 <0>         0.0665
     76 H28         0.5813   -0.9004    9.4796 H         1 <0>         0.0754
     77 H29        -1.0869   -2.2789    8.1829 H         1 <0>         0.0755
     78 H30        -0.7963   -4.7122    8.1130 H         1 <0>         0.0543
     79 H31         0.5937   -3.9306    7.3223 H         1 <0>         0.0558
     80 H32         0.7568   -4.5785    8.9721 H         1 <0>         0.0547
     81 H33        -1.2797   -1.9816   10.6371 H         1 <0>         0.0556
     82 H34        -1.8389   -3.5977   10.1434 H         1 <0>         0.0551
     83 H35        -0.2357   -3.4006   10.8910 H         1 <0>         0.0521
     84 H36         2.6330    0.2368    7.7072 H         1 <0>         0.3999
     85 H37         5.5760   -0.5414    5.8738 H         1 <0>         0.0789
     86 H38         4.1836    1.8166    7.2221 H         1 <0>         0.0650
     87 H39         4.5690    1.6947    5.4887 H         1 <0>         0.0733
     88 H40         3.3930    0.5763    6.2197 H         1 <0>         0.0626
     89 H41         7.5528    0.2285    7.1576 H         1 <0>         0.0553
     90 H42         6.9957    1.4858    6.0275 H         1 <0>         0.0525
     91 H43         6.6190    1.6181    7.7621 H         1 <0>         0.0673
     92 H44         6.1222   -2.4953    7.9696 H         1 <0>         0.4132
     93 H45         8.6872   -3.5182   11.0176 H         1 <0>         0.0887
     94 H46         6.9702   -1.0373   11.4800 H         1 <0>         0.0583
     95 H47         7.4618   -2.2068   12.7285 H         1 <0>         0.0577
     96 H48         8.6881   -1.2063   11.9140 H         1 <0>         0.0574
     97 H49         6.2675   -3.9700   11.4911 H         1 <0>         0.0639
     98 H50         5.8311   -2.8773   10.1555 H         1 <0>         0.0617
     99 H51         6.7262   -4.3790    9.8206 H         1 <0>         0.0617
    100 H52         9.6081   -0.5214    9.7610 H         1 <0>         0.4103
    101 H53        12.1417   -0.6360    8.8496 H         1 <0>         0.0948
    102 H54        12.1245   -1.0177   10.5881 H         1 <0>         0.0948
    103 H55        13.0995   -2.9162    8.4077 H         1 <0>         0.0779
    104 H56        14.6562   -1.2002   10.3949 H         1 <0>         0.0550
    105 H57        15.3617   -2.3931    9.2780 H         1 <0>         0.0583
    106 H58        14.5704   -0.9332    8.6372 H         1 <0>         0.0549
    107 H59        12.2238   -4.0177   10.4494 H         1 <0>         0.0734
    108 H60        13.9914   -4.1944   10.3364 H         1 <0>         0.0524
    109 H61        13.2858   -3.0014   11.4532 H         1 <0>         0.0473
    110 H62         0.9179    1.1288    7.6773 H         1 <0>         0.3609
@<TRIPOS>BOND
     1    1    2 1
     2    1   55 1
     3    1   56 1
     4    1   57 1
     5    2    3 1
     6    2    4 1
     7    2   19 1
     8    4    5 2
     9    4    6 am
    10    6    7 1
    11    6   58 1
    12    7    8 1
    13    7   12 1
    14    7   59 1
    15    8    9 1
    16    8   60 1
    17    8   61 1
    18    9   10 1
    19    9   11 1
    20    9   62 1
    21   10   63 1
    22   10   64 1
    23   10   65 1
    24   11   66 1
    25   11   67 1
    26   11   68 1
    27   12   13 1
    28   12   14 1
    29   12   18 1
    30   14   15 1
    31   14   69 1
    32   14   70 1
    33   15   16 2
    34   15   17 1
    35   18   71 1
    36   19   20 am
    37   19   72 1
    38   20   21 2
    39   20   22 1
    40   22   23 1
    41   22   73 1
    42   22   74 1
    43   23   24 1
    44   23   25 1
    45   23   54 1
    46   25   26 1
    47   25   27 1
    48   25   31 1
    49   27   28 1
    50   27   75 1
    51   27   76 1
    52   28   29 1
    53   28   30 1
    54   28   77 1
    55   29   78 1
    56   29   79 1
    57   29   80 1
    58   30   81 1
    59   30   82 1
    60   30   83 1
    61   31   32 am
    62   31   84 1
    63   32   33 2
    64   32   34 1
    65   34   35 1
    66   34   36 1
    67   34   39 1
    68   36   37 1
    69   36   38 1
    70   36   85 1
    71   37   86 1
    72   37   87 1
    73   37   88 1
    74   38   89 1
    75   38   90 1
    76   38   91 1
    77   39   40 am
    78   39   92 1
    79   40   41 2
    80   40   42 1
    81   42   43 1
    82   42   44 1
    83   42   47 1
    84   44   45 1
    85   44   46 1
    86   44   93 1
    87   45   94 1
    88   45   95 1
    89   45   96 1
    90   46   97 1
    91   46   98 1
    92   46   99 1
    93   47   48 am
    94   47  100 1
    95   48   49 2
    96   48   50 1
    97   50   51 1
    98   50  101 1
    99   50  102 1
   100   51   52 1
   101   51   53 1
   102   51  103 1
   103   52  104 1
   104   52  105 1
   105   52  106 1
   106   53  107 1
   107   53  108 1
   108   53  109 1
   109   54  110 1
@<TRIPOS>MOLECULE
ZINC35328520
   78    80     0     0     0
SMALL
USER_CHARGES

@<TRIPOS>ATOM
      1 C1          0.6906   -0.5504   -0.8413 C.3       1 <0>        -0.0619
      2 N1         -0.1176    0.1276    0.1810 N.4       1 <0>        -0.5084
      3 C2         -1.5236   -0.2738    0.0392 C.3       1 <0>         0.0120
      4 H1         -2.1306    0.2659    0.7660 H         1 <0>         0.1497
      5 C3         -2.0079    0.0551   -1.3744 C.3       1 <0>        -0.1400
      6 C4         -1.9473    1.5679   -1.5951 C.3       1 <0>        -0.1350
      7 H2         -0.9408    1.9273   -1.3809 H         1 <0>         0.0741
      8 C5         -2.3064    1.8878   -3.0494 C.3       1 <0>        -0.1183
      9 C6         -2.3184    3.4079   -3.2383 C.3       1 <0>        -0.1593
     10 C7         -3.3045    4.0298   -2.2460 C.3       1 <0>         0.0546
     11 O1         -2.9309    3.6680   -0.9150 O.3       1 <0>        -0.3757
     12 C8         -2.9466    2.2610   -0.6652 C.3       1 <0>         0.0555
     13 C9         -1.6516   -1.7785    0.2849 C.3       1 <0>         0.1159
     14 N2         -1.0783   -2.1105    1.5915 N.am      1 <0>        -0.7688
     15 C10        -1.0796   -3.3872    2.0233 C.2       1 <0>         0.7103
     16 O2         -1.4790   -4.2750    1.2948 O.2       1 <0>        -0.5662
     17 N3         -0.6382   -3.6799    3.2627 N.am      1 <0>        -0.6201
     18 C11        -0.2510   -2.6095    4.1916 C.3       1 <0>         0.1104
     19 C12         1.1673   -2.8869    4.6998 C.3       1 <0>        -0.1353
     20 C13         1.2232   -4.2927    5.3023 C.3       1 <0>        -0.1176
     21 C14         0.8858   -5.3253    4.2243 C.3       1 <0>        -0.0898
     22 H3          1.5921   -5.2338    3.3991 H         1 <0>         0.0871
     23 C15        -0.5410   -5.0752    3.7126 C.3       1 <0>         0.1306
     24 C16         0.9747   -6.7321    4.8190 C.3       1 <0>         0.1411
     25 H4          1.9585   -6.8762    5.2658 H         1 <0>         0.0810
     26 C17         0.7633   -7.7522    3.7300 C.ar      1 <0>        -0.1098
     27 C18        -0.5167   -8.0472    3.2984 C.ar      1 <0>        -0.0922
     28 C19        -0.7114   -8.9826    2.2996 C.ar      1 <0>        -0.1036
     29 C20         0.3736   -9.6241    1.7320 C.ar      1 <0>        -0.1036
     30 C21         1.6544   -9.3294    2.1635 C.ar      1 <0>        -0.0344
     31 C22         1.8491   -8.3884    3.1592 C.ar      1 <0>        -0.1023
     32 Cl1         3.0175  -10.1346    1.4512 Cl        1 <0>        -0.0639
     33 O3         -0.0314   -6.8900    5.8214 O.3       1 <0>        -0.3692
     34 C23         0.3273   -7.7949    6.8675 C.3       1 <0>         0.0472
     35 C24        -0.8177   -7.8856    7.8783 C.3       1 <0>         0.1414
     36 N4         -1.9909   -8.4823    7.2351 N.am      1 <0>        -0.7050
     37 C25        -3.1265   -8.6621    7.9383 C.2       1 <0>         0.6444
     38 O4         -3.1773   -8.3293    9.1058 O.2       1 <0>        -0.5691
     39 O5         -4.2047   -9.2105    7.3471 O.3       1 <0>        -0.3673
     40 C26        -5.3743   -9.3714    8.1521 C.3       1 <0>         0.0535
     41 H5          1.7247   -0.2134   -0.7694 H         1 <0>         0.1310
     42 H6          0.6478   -1.6279   -0.6827 H         1 <0>         0.1281
     43 H7          0.2991   -0.3129   -1.8305 H         1 <0>         0.1313
     44 H8          0.2149   -0.1301    1.0981 H         1 <0>         0.4236
     45 H9         -1.3689   -0.4442   -2.1027 H         1 <0>         0.1024
     46 H10        -3.0350   -0.2889   -1.4958 H         1 <0>         0.1213
     47 H11        -1.5655    1.4436   -3.7141 H         1 <0>         0.0753
     48 H12        -3.2925    1.4841   -3.2788 H         1 <0>         0.0760
     49 H13        -1.3198    3.8054   -3.0570 H         1 <0>         0.0738
     50 H14        -2.6270    3.6460   -4.2562 H         1 <0>         0.0849
     51 H15        -3.2857    5.1150   -2.3467 H         1 <0>         0.1031
     52 H16        -4.3096    3.6626   -2.4539 H         1 <0>         0.0578
     53 H17        -3.9473    1.8709   -0.8513 H         1 <0>         0.0642
     54 H18        -2.6697    2.0718    0.3719 H         1 <0>         0.0870
     55 H19        -2.7042   -2.0612    0.2676 H         1 <0>         0.1139
     56 H20        -1.1169   -2.3208   -0.4949 H         1 <0>         0.0979
     57 H21        -0.6976   -1.4114    2.1459 H         1 <0>         0.3875
     58 H22        -0.2725   -1.6507    3.6737 H         1 <0>         0.0649
     59 H23        -0.9431   -2.5881    5.0334 H         1 <0>         0.0806
     60 H24         1.8710   -2.8184    3.8702 H         1 <0>         0.0656
     61 H25         1.4305   -2.1537    5.4622 H         1 <0>         0.0828
     62 H26         2.2251   -4.4834    5.6869 H         1 <0>         0.0715
     63 H27         0.5017   -4.3681    6.1158 H         1 <0>         0.0799
     64 H28        -1.2563   -5.2508    4.5161 H         1 <0>         0.0841
     65 H29        -0.7540   -5.7438    2.8784 H         1 <0>         0.1019
     66 H30        -1.3647   -7.5467    3.7420 H         1 <0>         0.1330
     67 H31        -1.7114   -9.2126    1.9628 H         1 <0>         0.1349
     68 H32         0.2213  -10.3556    0.9522 H         1 <0>         0.1351
     69 H33         2.8492   -8.1546    3.4934 H         1 <0>         0.1320
     70 H34         0.5180   -8.7815    6.4451 H         1 <0>         0.0639
     71 H35         1.2259   -7.4341    7.3679 H         1 <0>         0.0770
     72 H36        -0.5105   -8.5056    8.7206 H         1 <0>         0.0895
     73 H37        -1.0677   -6.8864    8.2348 H         1 <0>         0.0815
     74 H38        -1.9503   -8.7480    6.3030 H         1 <0>         0.4094
     75 H39        -5.1456  -10.0165    9.0004 H         1 <0>         0.0626
     76 H40        -5.7028   -8.3973    8.5146 H         1 <0>         0.0614
     77 H41        -6.1668   -9.8231    7.5553 H         1 <0>         0.1051
     78 H42        -0.0396    1.1267    0.0634 H         1 <0>         0.4325
@<TRIPOS>BOND
     1    1    2 1
     2    1   41 1
     3    1   42 1
     4    1   43 1
     5    2    3 1
     6    2   44 1
     7    2   78 1
     8    3    4 1
     9    3    5 1
    10    3   13 1
    11    5    6 1
    12    5   45 1
    13    5   46 1
    14    6    7 1
    15    6   12 1
    16    6    8 1
    17    8    9 1
    18    8   47 1
    19    8   48 1
    20    9   10 1
    21    9   49 1
    22    9   50 1
    23   10   11 1
    24   10   51 1
    25   10   52 1
    26   11   12 1
    27   12   53 1
    28   12   54 1
    29   13   14 1
    30   13   55 1
    31   13   56 1
    32   14   15 am
    33   14   57 1
    34   15   16 2
    35   15   17 am
    36   17   23 1
    37   17   18 1
    38   18   19 1
    39   18   58 1
    40   18   59 1
    41   19   20 1
    42   19   60 1
    43   19   61 1
    44   20   21 1
    45   20   62 1
    46   20   63 1
    47   21   22 1
    48   21   23 1
    49   21   24 1
    50   23   64 1
    51   23   65 1
    52   24   25 1
    53   24   26 1
    54   24   33 1
    55   26   31 ar
    56   26   27 ar
    57   27   28 ar
    58   27   66 1
    59   28   29 ar
    60   28   67 1
    61   29   30 ar
    62   29   68 1
    63   30   31 ar
    64   30   32 1
    65   31   69 1
    66   33   34 1
    67   34   35 1
    68   34   70 1
    69   34   71 1
    70   35   36 1
    71   35   72 1
    72   35   73 1
    73   36   37 am
    74   36   74 1
    75   37   38 2
    76   37   39 1
    77   39   40 1
    78   40   75 1
    79   40   76 1
    80   40   77 1
@<TRIPOS>MOLECULE
ZINC00057001
   28    28     0     0     0
SMALL
USER_CHARGES

@<TRIPOS>ATOM
      1 C1         -0.0187    1.5258    0.0104 C.3       1 <0>        -0.1499
      2 C2          0.0021   -0.0041    0.0020 C.3       1 <0>        -0.0861
      3 H1         -1.0205   -0.3814    0.0098 H         1 <0>         0.0991
      4 C3          0.7421   -0.5109    1.2415 C.3       1 <0>        -0.0413
      5 S1         -0.1871   -0.0517    2.7303 S.3       1 <0>        -0.2560
      6 C4          0.7074   -0.4901   -1.2379 C.2       1 <0>         0.5406
      7 O1          1.7039   -1.1744   -1.1398 O.2       1 <0>        -0.5341
      8 N1          0.2309   -0.1642   -2.4557 N.am      1 <0>        -0.5870
      9 C5         -0.9612    0.6622   -2.7190 C.3       1 <0>         0.1001
     10 C6         -1.4323    0.2395   -4.1329 C.3       1 <0>        -0.1344
     11 C7         -0.0792    0.0101   -4.8565 C.3       1 <0>        -0.1069
     12 C8          0.8176   -0.5687   -3.7417 C.3       1 <0>         0.0652
     13 H2          0.8397   -1.6561   -3.8134 H         1 <0>         0.0661
     14 C9          2.2140   -0.0156   -3.8646 C.2       1 <0>         0.4962
     15 O2          2.9386   -0.3858   -4.7726 O.co2     1 <0>        -0.7023
     16 O3          2.6192    0.8020   -3.0561 O.co2     1 <0>        -0.6788
     17 H3          1.0039    1.9031    0.0027 H         1 <0>         0.0664
     18 H4         -0.5459    1.8868   -0.8726 H         1 <0>         0.0680
     19 H5         -0.5289    1.8773    0.9072 H         1 <0>         0.0715
     20 H6          0.8346   -1.5958    1.1912 H         1 <0>         0.0908
     21 H7          1.7350   -0.0630    1.2804 H         1 <0>         0.0927
     22 H8          0.5521   -0.5447    3.7401 H         1 <0>         0.0864
     23 H9         -1.7373    0.4540   -1.9825 H         1 <0>         0.0699
     24 H10        -0.6995    1.7202   -2.7069 H         1 <0>         0.0682
     25 H11        -2.0144   -0.6812   -4.0917 H         1 <0>         0.0709
     26 H12        -2.0003    1.0379   -4.6104 H         1 <0>         0.0779
     27 H13        -0.1941   -0.7041   -5.6719 H         1 <0>         0.0749
     28 H14         0.3271    0.9530   -5.2227 H         1 <0>         0.0719
@<TRIPOS>BOND
     1    1    2 1
     2    1   17 1
     3    1   18 1
     4    1   19 1
     5    2    3 1
     6    2    4 1
     7    2    6 1
     8    4    5 1
     9    4   20 1
    10    4   21 1
    11    5   22 1
    12    6    7 2
    13    6    8 am
    14    8   12 1
    15    8    9 1
    16    9   10 1
    17    9   23 1
    18    9   24 1
    19   10   11 1
    20   10   25 1
    21   10   26 1
    22   11   12 1
    23   11   27 1
    24   11   28 1
    25   12   13 1
    26   12   14 1
    27   14   15 2
    28   14   16 1
@<TRIPOS>MOLECULE
ZINC04393164
   93    93     0     0     0
SMALL
USER_CHARGES
5-amino-N-(2-carbamoyl-2-methyl-propyl)-4-hydroxy-2-isopropyl-7-[[4-methoxy-3-(3-methoxypropoxy)phenyl]methyl]-8-methyl-nonanamide
@<TRIPOS>ATOM
      1 C1          2.7303    2.3271   -1.6084 C.3       1 <0>        -0.1554
      2 C2          1.8970    3.5781   -1.3229 C.3       1 <0>        -0.0942
      3 C3          2.1730    4.0604    0.1026 C.3       1 <0>        -0.1587
      4 C4          2.2738    4.6794   -2.3159 C.3       1 <0>        -0.0886
      5 H1          2.1745    4.3009   -3.3332 H         1 <0>         0.0650
      6 C5          1.3430    5.8786   -2.1249 C.3       1 <0>        -0.0808
      7 C6         -0.0627    5.4887   -2.5030 C.ar      1 <0>        -0.0922
      8 C7         -0.9040    4.9364   -1.5550 C.ar      1 <0>        -0.1065
      9 C8         -2.1945    4.5775   -1.8968 C.ar      1 <0>        -0.1680
     10 C9         -2.6456    4.7657   -3.1934 C.ar      1 <0>         0.1077
     11 C10        -1.8003    5.3256   -4.1465 C.ar      1 <0>         0.1073
     12 C11        -0.5080    5.6836   -3.7971 C.ar      1 <0>        -0.1772
     13 O1         -2.2399    5.5167   -5.4191 O.3       1 <0>        -0.2975
     14 C12        -1.3159    6.0915   -6.3453 C.3       1 <0>         0.0681
     15 C13        -1.9847    6.2285   -7.7145 C.3       1 <0>        -0.1252
     16 C14        -0.9954    6.8440   -8.7061 C.3       1 <0>         0.0683
     17 O2         -1.6201    6.9719   -9.9849 O.3       1 <0>        -0.3871
     18 C15        -0.7770    7.5396  -10.9895 C.3       1 <0>         0.0307
     19 O3         -3.9132    4.4084   -3.5325 O.3       1 <0>        -0.3037
     20 C16        -4.7261    3.8444   -2.5014 C.3       1 <0>         0.0240
     21 C17         3.7207    5.1129   -2.0719 C.3       1 <0>        -0.1393
     22 C18         4.1448    6.1068   -3.1550 C.3       1 <0>        -0.0060
     23 H2          3.4570    6.9524   -3.1617 H         1 <0>         0.1532
     24 C19         5.5620    6.6046   -2.8636 C.3       1 <0>         0.0902
     25 H3          5.5815    7.0966   -1.8912 H         1 <0>         0.1472
     26 C20         5.9861    7.5985   -3.9467 C.3       1 <0>        -0.1578
     27 C21         7.3396    8.2087   -3.5771 C.3       1 <0>        -0.0962
     28 H4          7.2933    8.6090   -2.5643 H         1 <0>         0.1028
     29 C22         8.4224    7.1302   -3.6502 C.3       1 <0>        -0.1014
     30 C23         8.4491    6.5290   -5.0569 C.3       1 <0>        -0.1511
     31 C24         9.7842    7.7525   -3.3356 C.3       1 <0>        -0.1755
     32 C25         7.6703    9.3187   -4.5413 C.2       1 <0>         0.5185
     33 O4          7.0087    9.4655   -5.5470 O.2       1 <0>        -0.5394
     34 N1          8.7014   10.1482   -4.2859 N.am      1 <0>        -0.7238
     35 C26         9.0556   11.1944   -5.2483 C.3       1 <0>         0.1402
     36 C27        10.2518   11.9891   -4.7206 C.3       1 <0>        -0.0969
     37 C28         9.8865   12.6312   -3.3807 C.3       1 <0>        -0.1449
     38 C29        11.4434   11.0491   -4.5276 C.3       1 <0>        -0.1468
     39 C30        10.6161   13.0653   -5.7106 C.2       1 <0>         0.5302
     40 O5          9.9815   13.1849   -6.7372 O.2       1 <0>        -0.5350
     41 N2         11.6472   13.8948   -5.4552 N.am      1 <0>        -0.8493
     42 O6          6.4638    5.4961   -2.8549 O.3       1 <0>        -0.5299
     43 H5          2.5176    1.5690   -0.8546 H         1 <0>         0.0638
     44 H6          2.4772    1.9393   -2.5952 H         1 <0>         0.0535
     45 H7          3.7897    2.5817   -1.5788 H         1 <0>         0.0557
     46 H8          0.8382    3.3411   -1.4277 H         1 <0>         0.0878
     47 H9          1.6498    5.0008    0.2757 H         1 <0>         0.0606
     48 H10         1.8214    3.3128    0.8136 H         1 <0>         0.0620
     49 H11         3.2445    4.2112    0.2340 H         1 <0>         0.0584
     50 H12         1.6750    6.7008   -2.7588 H         1 <0>         0.0666
     51 H13         1.3647    6.1928   -1.0814 H         1 <0>         0.0897
     52 H14        -0.5522    4.7854   -0.5451 H         1 <0>         0.1288
     53 H15        -2.8496    4.1462   -1.1544 H         1 <0>         0.1390
     54 H16         0.1514    6.1146   -4.5360 H         1 <0>         0.1263
     55 H17        -1.0103    7.0757   -5.9901 H         1 <0>         0.0624
     56 H18        -0.4401    5.4483   -6.4314 H         1 <0>         0.0572
     57 H19        -2.2903    5.2443   -8.0697 H         1 <0>         0.0863
     58 H20        -2.8604    6.8717   -7.6284 H         1 <0>         0.0877
     59 H21        -0.6898    7.8281   -8.3510 H         1 <0>         0.0510
     60 H22        -0.1196    6.2007   -8.7922 H         1 <0>         0.0478
     61 H23        -1.3244    7.6029  -11.9299 H         1 <0>         0.0924
     62 H24        -0.4669    8.5382  -10.6817 H         1 <0>         0.0438
     63 H25         0.1032    6.9108  -11.1230 H         1 <0>         0.0422
     64 H26        -4.2565    2.9357   -2.1248 H         1 <0>         0.0571
     65 H27        -4.8318    4.5626   -1.6884 H         1 <0>         0.0579
     66 H28        -5.7099    3.6046   -2.9047 H         1 <0>         0.1060
     67 H29         3.7978    5.5869   -1.0934 H         1 <0>         0.1195
     68 H30         4.3721    4.2396   -2.1050 H         1 <0>         0.1036
     69 H31         6.0698    7.0809   -4.9023 H         1 <0>         0.0785
     70 H32         5.2405    8.3896   -4.0261 H         1 <0>         0.0985
     71 H33         8.2044    6.3468   -2.9244 H         1 <0>         0.1162
     72 H34         8.5771    7.3254   -5.7900 H         1 <0>         0.0599
     73 H35         9.2783    5.8259   -5.1358 H         1 <0>         0.0662
     74 H36         7.5111    6.0074   -5.2470 H         1 <0>         0.0407
     75 H37         9.7577    8.2018   -2.3428 H         1 <0>         0.0602
     76 H38        10.5522    6.9795   -3.3642 H         1 <0>         0.0676
     77 H39        10.0129    8.5195   -4.0755 H         1 <0>         0.0679
     78 H40         9.2090   10.0526   -3.4648 H         1 <0>         0.4029
     79 H41         9.3158   10.7370   -6.2028 H         1 <0>         0.0798
     80 H42         8.2066   11.8641   -5.3858 H         1 <0>         0.0803
     81 H43         9.6230   11.8528   -2.6647 H         1 <0>         0.0670
     82 H44        10.7387   13.1973   -3.0048 H         1 <0>         0.0699
     83 H45         9.0376   13.3009   -3.5182 H         1 <0>         0.0679
     84 H46        11.7037   10.5916   -5.4822 H         1 <0>         0.0678
     85 H47        12.2957   11.6152   -4.1517 H         1 <0>         0.0700
     86 H48        11.1799   10.2707   -3.8116 H         1 <0>         0.0686
     87 H49        12.1548   13.7991   -4.6342 H         1 <0>         0.4024
     88 H50        11.8817   14.5875   -6.0925 H         1 <0>         0.4074
     89 H51         6.5506    5.0529   -3.7099 H         1 <0>         0.3695
     90 H52         4.6766    4.6032   -4.4568 H         1 <0>         0.4329
     91 H53         3.1713    5.2460   -4.7517 H         1 <0>         0.4398
     92 N3          4.1290    5.4619   -4.4797 N.4       1 <0>        -0.6524
     93 H54         4.5376    6.1014   -5.1713 H         1 <0>         0.4383
@<TRIPOS>BOND
     1    1    2 1
     2    1   43 1
     3    1   44 1
     4    1   45 1
     5    2    3 1
     6    2    4 1
     7    2   46 1
     8    3   47 1
     9    3   48 1
    10    3   49 1
    11    4    5 1
    12    4    6 1
    13    4   21 1
    14    6    7 1
    15    6   50 1
    16    6   51 1
    17    7   12 ar
    18    7    8 ar
    19    8    9 ar
    20    8   52 1
    21    9   10 ar
    22    9   53 1
    23   10   11 ar
    24   10   19 1
    25   11   12 ar
    26   11   13 1
    27   12   54 1
    28   13   14 1
    29   14   15 1
    30   14   55 1
    31   14   56 1
    32   15   16 1
    33   15   57 1
    34   15   58 1
    35   16   17 1
    36   16   59 1
    37   16   60 1
    38   17   18 1
    39   18   61 1
    40   18   62 1
    41   18   63 1
    42   19   20 1
    43   20   64 1
    44   20   65 1
    45   20   66 1
    46   21   22 1
    47   21   67 1
    48   21   68 1
    49   22   23 1
    50   22   24 1
    51   22   92 1
    52   24   25 1
    53   24   26 1
    54   24   42 1
    55   26   27 1
    56   26   69 1
    57   26   70 1
    58   27   28 1
    59   27   29 1
    60   27   32 1
    61   29   30 1
    62   29   31 1
    63   29   71 1
    64   30   72 1
    65   30   73 1
    66   30   74 1
    67   31   75 1
    68   31   76 1
    69   31   77 1
    70   32   33 2
    71   32   34 am
    72   34   35 1
    73   34   78 1
    74   35   36 1
    75   35   79 1
    76   35   80 1
    77   36   37 1
    78   36   38 1
    79   36   39 1
    80   37   81 1
    81   37   82 1
    82   37   83 1
    83   38   84 1
    84   38   85 1
    85   38   86 1
    86   39   40 2
    87   39   41 am
    88   41   87 1
    89   41   88 1
    90   42   89 1
    91   90   92 1
    92   91   92 1
    93   92   93 1
@<TRIPOS>MOLECULE
ZINC26576268
   95    97     0     0     0
SMALL
USER_CHARGES
methyl (2R)-3-[[(1S,2R,3S)-1-(cyclohexylmethyl)-2,3-dihydroxy-5-methyl-hexyl]amino]-2-[[(2S)-2-(morpholinosulfonylamino)-3-phenyl-propanoyl]amino]-3-oxo-propanoate
@<TRIPOS>ATOM
      1 C1          4.0286    2.6174    4.1799 C.3       1 <0>        -0.1499
      2 C2          2.8607    1.7420    3.7211 C.3       1 <0>        -0.0946
      3 C3          2.3366    2.2537    2.3779 C.3       1 <0>        -0.1546
      4 C4          3.3373    0.2965    3.5654 C.3       1 <0>        -0.1024
      5 C5          2.1444   -0.6003    3.2281 C.3       1 <0>         0.1255
      6 H1          1.5743   -0.2019    2.3759 H         1 <0>         0.0660
      7 C6          2.6375   -2.0217    2.9499 C.3       1 <0>         0.0815
      8 H2          3.2076   -2.4200    3.8021 H         1 <0>         0.0723
      9 C7          1.4447   -2.9185    2.6127 C.3       1 <0>         0.1147
     10 H3          0.7136   -2.9160    3.4346 H         1 <0>         0.1001
     11 C8          1.9378   -4.3399    2.3345 C.3       1 <0>        -0.1298
     12 C9          0.7370   -5.2635    2.1199 C.3       1 <0>        -0.0793
     13 C10        -0.0693   -5.3612    3.4165 C.3       1 <0>        -0.1055
     14 C11        -1.2701   -6.2848    3.2020 C.3       1 <0>        -0.1109
     15 C12        -0.7777   -7.6769    2.8014 C.3       1 <0>        -0.1220
     16 C13         0.0286   -7.5791    1.5048 C.3       1 <0>        -0.1172
     17 C14         1.2294   -6.6556    1.7194 C.3       1 <0>        -0.1161
     18 N1          0.7621   -2.3974    1.4257 N.am      1 <0>        -0.7165
     19 C15        -0.5418   -2.6716    1.2234 C.2       1 <0>         0.5206
     20 O1         -1.1502   -3.3498    2.0240 O.2       1 <0>        -0.5081
     21 C16        -1.2439   -2.1355    0.0025 C.3       1 <0>         0.1388
     22 H4         -0.7735   -2.5297   -0.9104 H         1 <0>         0.1508
     23 C17        -1.1855   -0.6297    0.0100 C.2       1 <0>         0.4533
     24 O2         -2.2076    0.0145    0.0232 O.2       1 <0>        -0.4778
     25 O3          0.0021   -0.0041    0.0020 O.3       1 <0>        -0.3582
     26 C18        -0.0176    1.4478    0.0100 C.3       1 <0>         0.0325
     27 N2         -2.6430   -2.5700    0.0135 N.am      1 <0>        -0.7055
     28 C19        -3.3278   -2.6664   -1.1433 C.2       1 <0>         0.5272
     29 O4         -2.7858   -2.3935   -2.1934 O.2       1 <0>        -0.5256
     30 C20        -4.7670   -3.1133   -1.1320 C.3       1 <0>         0.1577
     31 H5         -5.3754   -2.3964   -0.5611 H         1 <0>         0.1024
     32 C21        -4.8606   -4.5164   -0.5289 C.3       1 <0>        -0.0865
     33 C22        -6.3088   -4.9140   -0.4043 C.ar      1 <0>        -0.0836
     34 C23        -7.0072   -4.6268    0.7537 C.ar      1 <0>        -0.1096
     35 C24        -8.3370   -4.9872    0.8661 C.ar      1 <0>        -0.1179
     36 C25        -8.9655   -5.6441   -0.1752 C.ar      1 <0>        -0.1071
     37 C26        -8.2657   -5.9359   -1.3310 C.ar      1 <0>        -0.0990
     38 C27        -6.9374   -5.5708   -1.4456 C.ar      1 <0>        -0.0660
     39 N3         -5.2821   -3.1358   -2.5032 N.pl3     1 <0>        -1.1171
     40 S1         -6.8595   -2.7295   -2.8019 S.o2      1 <0>         2.7624
     41 O5         -7.0432   -2.8209   -4.2080 O.2       1 <0>        -0.9750
     42 O6         -7.6505   -3.4677   -1.8807 O.2       1 <0>        -0.9330
     43 N4         -7.0372   -1.1318   -2.4042 N.pl3     1 <0>        -1.0128
     44 C28        -7.4321   -0.7288   -1.0452 C.3       1 <0>         0.0841
     45 C29        -6.4414    0.3395   -0.5553 C.3       1 <0>         0.0473
     46 O7         -6.3592    1.3840   -1.5280 O.3       1 <0>        -0.3725
     47 C30        -5.8557    0.9628   -2.7980 C.3       1 <0>         0.0480
     48 C31        -6.8109   -0.0733   -3.4012 C.3       1 <0>         0.0860
     49 O8          3.5464   -2.0034    1.8474 O.3       1 <0>        -0.5877
     50 O9          1.2355   -0.6187    4.3306 O.3       1 <0>        -0.5850
     51 H6          4.4053    2.2494    5.1456 H         1 <0>         0.0538
     52 H7          3.6859    3.6567    4.2919 H         1 <0>         0.0543
     53 H8          4.8341    2.5755    3.4320 H         1 <0>         0.0540
     54 H9          2.0551    1.7840    4.4689 H         1 <0>         0.0757
     55 H10         1.4969    1.6243    2.0481 H         1 <0>         0.0556
     56 H11         3.1421    2.2118    1.6300 H         1 <0>         0.0554
     57 H12         1.9939    3.2929    2.4899 H         1 <0>         0.0533
     58 H13         4.0790    0.2403    2.7550 H         1 <0>         0.0862
     59 H14         3.7959   -0.0418    4.5063 H         1 <0>         0.0660
     60 H15         2.5663   -4.3398    1.4317 H         1 <0>         0.0684
     61 H16         2.5272   -4.6979    3.1915 H         1 <0>         0.0735
     62 H17         0.0993   -4.8564    1.3213 H         1 <0>         0.0759
     63 H18         0.5684   -5.7683    4.2150 H         1 <0>         0.0463
     64 H19        -0.4234   -4.3603    3.7044 H         1 <0>         0.0775
     65 H20        -1.8497   -6.3551    4.1343 H         1 <0>         0.0545
     66 H21        -1.9079   -5.8776    2.4036 H         1 <0>         0.0647
     67 H22        -0.1400   -8.0841    3.5999 H         1 <0>         0.0574
     68 H23        -1.6410   -8.3409    2.6471 H         1 <0>         0.0575
     69 H24         0.3826   -8.5800    1.2168 H         1 <0>         0.0575
     70 H25        -0.6090   -7.1719    0.7063 H         1 <0>         0.0584
     71 H26         1.8091   -6.5853    0.7872 H         1 <0>         0.0557
     72 H27         1.8670   -7.0628    2.5179 H         1 <0>         0.0585
     73 H28         1.3139   -1.7823    0.6996 H         1 <0>         0.4369
     74 H29         1.0144    1.8285    0.0022 H         1 <0>         0.1099
     75 H30        -0.5325    1.8025    0.9150 H         1 <0>         0.0676
     76 H31        -0.5496    1.8122   -0.8812 H         1 <0>         0.0676
     77 H32        -3.1346   -2.8176    0.9659 H         1 <0>         0.4442
     78 H33        -4.3388   -5.2316   -1.1817 H         1 <0>         0.0878
     79 H34        -4.3925   -4.5196    0.4665 H         1 <0>         0.0892
     80 H35        -6.5149   -4.1176    1.5690 H         1 <0>         0.1120
     81 H36        -8.8836   -4.7596    1.7693 H         1 <0>         0.1124
     82 H37       -10.0032   -5.9296   -0.0856 H         1 <0>         0.1111
     83 H38        -8.7567   -6.4494   -2.1445 H         1 <0>         0.1104
     84 H39        -6.3905   -5.7991   -2.3485 H         1 <0>         0.1054
     85 H40        -4.5897   -3.2602   -3.3489 H         1 <0>         0.4476
     86 H41        -8.4521   -0.3176   -1.0666 H         1 <0>         0.0825
     87 H42        -7.4037   -1.6046   -0.3802 H         1 <0>         0.0994
     88 H43        -6.7916    0.7527    0.4021 H         1 <0>         0.1064
     89 H44        -5.4497   -0.1159   -0.4173 H         1 <0>         0.0545
     90 H45        -5.7815    1.8311   -3.4693 H         1 <0>         0.1064
     91 H46        -4.8598    0.5143   -2.6672 H         1 <0>         0.0563
     92 H47        -6.3672   -0.5118   -4.3072 H         1 <0>         0.0961
     93 H48        -7.7698    0.4019   -3.6556 H         1 <0>         0.0818
     94 H49         4.0076   -2.9394    1.4992 H         1 <0>         0.4096
     95 H50         0.3121   -1.2137    4.2723 H         1 <0>         0.3997
@<TRIPOS>BOND
     1    1    2 1
     2    1   51 1
     3    1   52 1
     4    1   53 1
     5    2    3 1
     6    2    4 1
     7    2   54 1
     8    3   55 1
     9    3   56 1
    10    3   57 1
    11    4    5 1
    12    4   58 1
    13    4   59 1
    14    5    6 1
    15    5    7 1
    16    5   50 1
    17    7    8 1
    18    7    9 1
    19    7   49 1
    20    9   10 1
    21    9   11 1
    22    9   18 1
    23   11   12 1
    24   11   60 1
    25   11   61 1
    26   12   17 1
    27   12   13 1
    28   12   62 1
    29   13   14 1
    30   13   63 1
    31   13   64 1
    32   14   15 1
    33   14   65 1
    34   14   66 1
    35   15   16 1
    36   15   67 1
    37   15   68 1
    38   16   17 1
    39   16   69 1
    40   16   70 1
    41   17   71 1
    42   17   72 1
    43   18   19 am
    44   18   73 1
    45   19   20 2
    46   19   21 1
    47   21   22 1
    48   21   23 1
    49   21   27 1
    50   23   24 2
    51   23   25 1
    52   25   26 1
    53   26   74 1
    54   26   75 1
    55   26   76 1
    56   27   28 am
    57   27   77 1
    58   28   29 2
    59   28   30 1
    60   30   31 1
    61   30   32 1
    62   30   39 1
    63   32   33 1
    64   32   78 1
    65   32   79 1
    66   33   38 ar
    67   33   34 ar
    68   34   35 ar
    69   34   80 1
    70   35   36 ar
    71   35   81 1
    72   36   37 ar
    73   36   82 1
    74   37   38 ar
    75   37   83 1
    76   38   84 1
    77   39   40 1
    78   39   85 1
    79   40   41 2
    80   40   42 2
    81   40   43 1
    82   43   48 1
    83   43   44 1
    84   44   45 1
    85   44   86 1
    86   44   87 1
    87   45   46 1
    88   45   88 1
    89   45   89 1
    90   46   47 1
    91   47   48 1
    92   47   90 1
    93   47   91 1
    94   48   92 1
    95   48   93 1
    96   49   94 1
    97   50   95 1
@<TRIPOS>MOLECULE
ZINC26576268
   96    98     0     0     0
SMALL
USER_CHARGES
methyl (2R)-3-[[(1S,2R,3S)-1-(cyclohexylmethyl)-2,3-dihydroxy-5-methyl-hexyl]amino]-2-[[(2S)-2-(morpholinosulfonylamino)-3-phenyl-propanoyl]amino]-3-oxo-propanoate
@<TRIPOS>ATOM
      1 C1          4.0286    2.6174    4.1799 C.3       1 <0>        -0.1516
      2 C2          2.8607    1.7420    3.7211 C.3       1 <0>        -0.0942
      3 C3          2.3366    2.2537    2.3779 C.3       1 <0>        -0.1538
      4 C4          3.3373    0.2965    3.5654 C.3       1 <0>        -0.1043
      5 C5          2.1444   -0.6003    3.2281 C.3       1 <0>         0.1268
      6 H1          1.5743   -0.2019    2.3759 H         1 <0>         0.0632
      7 C6          2.6375   -2.0217    2.9499 C.3       1 <0>         0.0795
      8 H2          3.2076   -2.4200    3.8021 H         1 <0>         0.0764
      9 C7          1.4447   -2.9185    2.6127 C.3       1 <0>         0.1147
     10 H3          0.7136   -2.9160    3.4346 H         1 <0>         0.1023
     11 C8          1.9378   -4.3399    2.3345 C.3       1 <0>        -0.1324
     12 C9          0.7370   -5.2635    2.1199 C.3       1 <0>        -0.0760
     13 C10        -0.0693   -5.3612    3.4165 C.3       1 <0>        -0.1085
     14 C11        -1.2701   -6.2848    3.2020 C.3       1 <0>        -0.1077
     15 C12        -0.7777   -7.6769    2.8014 C.3       1 <0>        -0.1247
     16 C13         0.0286   -7.5791    1.5048 C.3       1 <0>        -0.1150
     17 C14         1.2294   -6.6556    1.7194 C.3       1 <0>        -0.1191
     18 N1          0.7621   -2.3974    1.4257 N.am      1 <0>        -0.7094
     19 C15        -0.5418   -2.6716    1.2234 C.2       1 <0>         0.5181
     20 O1         -1.1502   -3.3498    2.0240 O.2       1 <0>        -0.5087
     21 C16        -1.2439   -2.1355    0.0025 C.3       1 <0>         0.1338
     22 H4         -0.7735   -2.5297   -0.9104 H         1 <0>         0.1594
     23 C17        -1.1855   -0.6297    0.0100 C.2       1 <0>         0.4571
     24 O2         -2.2076    0.0145    0.0232 O.2       1 <0>        -0.4839
     25 O3          0.0021   -0.0041    0.0020 O.3       1 <0>        -0.3512
     26 C18        -0.0176    1.4478    0.0100 C.3       1 <0>         0.0318
     27 N2         -2.6430   -2.5700    0.0135 N.am      1 <0>        -0.6792
     28 C19        -3.3278   -2.6664   -1.1433 C.2       1 <0>         0.5233
     29 O4         -2.7858   -2.3935   -2.1934 O.2       1 <0>        -0.5189
     30 C20        -4.7670   -3.1133   -1.1320 C.3       1 <0>         0.0488
     31 H5         -5.3754   -2.3964   -0.5611 H         1 <0>         0.1639
     32 C21        -4.8606   -4.5164   -0.5289 C.3       1 <0>        -0.0966
     33 C22        -6.3088   -4.9140   -0.4043 C.ar      1 <0>        -0.1302
     34 C23        -7.0072   -4.6268    0.7537 C.ar      1 <0>        -0.0938
     35 C24        -8.3370   -4.9872    0.8661 C.ar      1 <0>        -0.1034
     36 C25        -8.9655   -5.6441   -0.1752 C.ar      1 <0>        -0.0885
     37 C26        -8.2657   -5.9359   -1.3310 C.ar      1 <0>        -0.0867
     38 C27        -6.9374   -5.5708   -1.4456 C.ar      1 <0>        -0.1039
     39 N3         -5.2821   -3.1358   -2.5032 N.4       1 <0>        -0.9225
     40 S1         -6.8595   -2.7295   -2.8019 S.o2      1 <0>         2.6233
     41 O5         -7.0432   -2.8209   -4.2080 O.2       1 <0>        -0.8804
     42 O6         -7.6505   -3.4677   -1.8807 O.2       1 <0>        -0.8483
     43 N4         -7.0372   -1.1318   -2.4042 N.pl3     1 <0>        -0.9725
     44 C28        -7.4321   -0.7288   -1.0452 C.3       1 <0>         0.0686
     45 C29        -6.4414    0.3395   -0.5553 C.3       1 <0>         0.0430
     46 O7         -6.3592    1.3840   -1.5280 O.3       1 <0>        -0.3580
     47 C30        -5.8557    0.9628   -2.7980 C.3       1 <0>         0.0429
     48 C31        -6.8109   -0.0733   -3.4012 C.3       1 <0>         0.0655
     49 O8          3.5464   -2.0034    1.8474 O.3       1 <0>        -0.5875
     50 O9          1.2355   -0.6187    4.3306 O.3       1 <0>        -0.5820
     51 H6          4.4053    2.2494    5.1456 H         1 <0>         0.0554
     52 H7          3.6859    3.6567    4.2919 H         1 <0>         0.0556
     53 H8          4.8341    2.5755    3.4320 H         1 <0>         0.0549
     54 H9          2.0551    1.7840    4.4689 H         1 <0>         0.0757
     55 H10         1.4969    1.6243    2.0481 H         1 <0>         0.0519
     56 H11         3.1421    2.2118    1.6300 H         1 <0>         0.0562
     57 H12         1.9939    3.2929    2.4899 H         1 <0>         0.0544
     58 H13         4.0790    0.2403    2.7550 H         1 <0>         0.0875
     59 H14         3.7959   -0.0418    4.5063 H         1 <0>         0.0683
     60 H15         2.5663   -4.3398    1.4317 H         1 <0>         0.0703
     61 H16         2.5272   -4.6979    3.1915 H         1 <0>         0.0780
     62 H17         0.0993   -4.8564    1.3213 H         1 <0>         0.0711
     63 H18         0.5684   -5.7683    4.2150 H         1 <0>         0.0504
     64 H19        -0.4234   -4.3603    3.7044 H         1 <0>         0.0771
     65 H20        -1.8497   -6.3551    4.1343 H         1 <0>         0.0558
     66 H21        -1.9079   -5.8776    2.4036 H         1 <0>         0.0585
     67 H22        -0.1400   -8.0841    3.5999 H         1 <0>         0.0611
     68 H23        -1.6410   -8.3409    2.6471 H         1 <0>         0.0576
     69 H24         0.3826   -8.5800    1.2168 H         1 <0>         0.0598
     70 H25        -0.6090   -7.1719    0.7063 H         1 <0>         0.0537
     71 H26         1.8091   -6.5853    0.7872 H         1 <0>         0.0569
     72 H27         1.8670   -7.0628    2.5179 H         1 <0>         0.0620
     73 H28         1.3139   -1.7823    0.6996 H         1 <0>         0.4394
     74 H29         1.0144    1.8285    0.0022 H         1 <0>         0.1161
     75 H30        -0.5325    1.8025    0.9150 H         1 <0>         0.0719
     76 H31        -0.5496    1.8122   -0.8812 H         1 <0>         0.0704
     77 H32        -3.1346   -2.8176    0.9659 H         1 <0>         0.4559
     78 H33        -4.3388   -5.2316   -1.1817 H         1 <0>         0.1140
     79 H34        -4.3925   -4.5196    0.4665 H         1 <0>         0.1363
     80 H35        -6.5149   -4.1176    1.5690 H         1 <0>         0.1248
     81 H36        -8.8836   -4.7596    1.7693 H         1 <0>         0.1270
     82 H37       -10.0032   -5.9296   -0.0856 H         1 <0>         0.1258
     83 H38        -8.7567   -6.4494   -2.1445 H         1 <0>         0.1245
     84 H39        -6.3905   -5.7991   -2.3485 H         1 <0>         0.1049
     85 H40        -4.7049   -2.4341   -3.1232 H         1 <0>         0.4777
     86 H41        -8.4521   -0.3176   -1.0666 H         1 <0>         0.1120
     87 H42        -7.4037   -1.6046   -0.3802 H         1 <0>         0.1093
     88 H43        -6.7916    0.7527    0.4021 H         1 <0>         0.1234
     89 H44        -5.4497   -0.1159   -0.4173 H         1 <0>         0.0556
     90 H45        -5.7815    1.8311   -3.4693 H         1 <0>         0.1244
     91 H46        -4.8598    0.5143   -2.6672 H         1 <0>         0.0575
     92 H47        -6.3672   -0.5118   -4.3072 H         1 <0>         0.1070
     93 H48        -7.7698    0.4019   -3.6556 H         1 <0>         0.1124
     94 H49         4.0076   -2.9394    1.4992 H         1 <0>         0.4115
     95 H50         0.3121   -1.2137    4.2723 H         1 <0>         0.3964
     96 H51        -5.1870   -4.1518   -2.9140 H         1 <0>         0.4801
@<TRIPOS>BOND
     1    1    2 1
     2    1   51 1
     3    1   52 1
     4    1   53 1
     5    2    3 1
     6    2    4 1
     7    2   54 1
     8    3   55 1
     9    3   56 1
    10    3   57 1
    11    4    5 1
    12    4   58 1
    13    4   59 1
    14    5    6 1
    15    5    7 1
    16    5   50 1
    17    7    8 1
    18    7    9 1
    19    7   49 1
    20    9   10 1
    21    9   11 1
    22    9   18 1
    23   11   12 1
    24   11   60 1
    25   11   61 1
    26   12   17 1
    27   12   13 1
    28   12   62 1
    29   13   14 1
    30   13   63 1
    31   13   64 1
    32   14   15 1
    33   14   65 1
    34   14   66 1
    35   15   16 1
    36   15   67 1
    37   15   68 1
    38   16   17 1
    39   16   69 1
    40   16   70 1
    41   17   71 1
    42   17   72 1
    43   18   19 am
    44   18   73 1
    45   19   20 2
    46   19   21 1
    47   21   22 1
    48   21   23 1
    49   21   27 1
    50   23   24 2
    51   23   25 1
    52   25   26 1
    53   26   74 1
    54   26   75 1
    55   26   76 1
    56   27   28 am
    57   27   77 1
    58   28   29 2
    59   28   30 1
    60   30   31 1
    61   30   32 1
    62   30   39 1
    63   32   33 1
    64   32   78 1
    65   32   79 1
    66   33   38 ar
    67   33   34 ar
    68   34   35 ar
    69   34   80 1
    70   35   36 ar
    71   35   81 1
    72   36   37 ar
    73   36   82 1
    74   37   38 ar
    75   37   83 1
    76   38   84 1
    77   39   40 1
    78   39   85 1
    79   39   96 1
    80   40   41 2
    81   40   42 2
    82   40   43 1
    83   43   48 1
    84   43   44 1
    85   44   45 1
    86   44   86 1
    87   44   87 1
    88   45   46 1
    89   45   88 1
    90   45   89 1
    91   46   47 1
    92   47   48 1
    93   47   90 1
    94   47   91 1
    95   48   92 1
    96   48   93 1
    97   49   94 1
    98   50   95 1
@<TRIPOS>MOLECULE
ZINC26576268
   94    96     0     0     0
SMALL
USER_CHARGES
methyl (2R)-3-[[(1S,2R,3S)-1-(cyclohexylmethyl)-2,3-dihydroxy-5-methyl-hexyl]amino]-2-[[(2S)-2-(morpholinosulfonylamino)-3-phenyl-propanoyl]amino]-3-oxo-propanoate
@<TRIPOS>ATOM
      1 C1          4.0286    2.6174    4.1799 C.3       1 <0>        -0.1483
      2 C2          2.8607    1.7420    3.7211 C.3       1 <0>        -0.0949
      3 C3          2.3366    2.2537    2.3779 C.3       1 <0>        -0.1554
      4 C4          3.3373    0.2965    3.5654 C.3       1 <0>        -0.1006
      5 C5          2.1444   -0.6003    3.2281 C.3       1 <0>         0.1242
      6 H1          1.5743   -0.2019    2.3759 H         1 <0>         0.0691
      7 C6          2.6375   -2.0217    2.9499 C.3       1 <0>         0.0835
      8 H2          3.2076   -2.4200    3.8021 H         1 <0>         0.0681
      9 C7          1.4447   -2.9185    2.6127 C.3       1 <0>         0.1146
     10 H3          0.7136   -2.9160    3.4346 H         1 <0>         0.0979
     11 C8          1.9378   -4.3399    2.3345 C.3       1 <0>        -0.1271
     12 C9          0.7370   -5.2635    2.1199 C.3       1 <0>        -0.0826
     13 C10        -0.0693   -5.3612    3.4165 C.3       1 <0>        -0.1026
     14 C11        -1.2701   -6.2848    3.2020 C.3       1 <0>        -0.1139
     15 C12        -0.7777   -7.6769    2.8014 C.3       1 <0>        -0.1193
     16 C13         0.0286   -7.5791    1.5048 C.3       1 <0>        -0.1193
     17 C14         1.2294   -6.6556    1.7194 C.3       1 <0>        -0.1132
     18 N1          0.7621   -2.3974    1.4257 N.am      1 <0>        -0.7231
     19 C15        -0.5418   -2.6716    1.2234 C.2       1 <0>         0.5229
     20 O1         -1.1502   -3.3498    2.0240 O.2       1 <0>        -0.5086
     21 C16        -1.2439   -2.1355    0.0025 C.3       1 <0>         0.1411
     22 H4         -0.7735   -2.5297   -0.9104 H         1 <0>         0.1434
     23 C17        -1.1855   -0.6297    0.0100 C.2       1 <0>         0.4491
     24 O2         -2.2076    0.0145    0.0232 O.2       1 <0>        -0.4720
     25 O3          0.0021   -0.0041    0.0020 O.3       1 <0>        -0.3648
     26 C18        -0.0176    1.4478    0.0100 C.3       1 <0>         0.0329
     27 N2         -2.6430   -2.5700    0.0135 N.am      1 <0>        -0.7244
     28 C19        -3.3278   -2.6664   -1.1433 C.2       1 <0>         0.5324
     29 O4         -2.7858   -2.3935   -2.1934 O.2       1 <0>        -0.5141
     30 C20        -4.7670   -3.1133   -1.1320 C.3       1 <0>         0.1727
     31 H5         -5.3754   -2.3964   -0.5611 H         1 <0>         0.0348
     32 C21        -4.8606   -4.5164   -0.5289 C.3       1 <0>        -0.0809
     33 C22        -6.3088   -4.9140   -0.4043 C.ar      1 <0>        -0.0486
     34 C23        -7.0072   -4.6268    0.7537 C.ar      1 <0>        -0.1177
     35 C24        -8.3370   -4.9872    0.8661 C.ar      1 <0>        -0.1293
     36 C25        -8.9655   -5.6441   -0.1752 C.ar      1 <0>        -0.1216
     37 C26        -8.2657   -5.9359   -1.3310 C.ar      1 <0>        -0.1036
     38 C27        -6.9374   -5.5708   -1.4456 C.ar      1 <0>        -0.0390
     39 N3         -5.2821   -3.1358   -2.5032 N.2       1 <0>        -1.0999
     40 S1         -6.8595   -2.7295   -2.8019 S.o2      1 <0>         2.6454
     41 O5         -7.0432   -2.8209   -4.2080 O.2       1 <0>        -1.0343
     42 O6         -7.6505   -3.4677   -1.8807 O.2       1 <0>        -1.0362
     43 N4         -7.0372   -1.1318   -2.4042 N.pl3     1 <0>        -1.0211
     44 C28        -7.4321   -0.7288   -1.0452 C.3       1 <0>         0.0985
     45 C29        -6.4414    0.3395   -0.5553 C.3       1 <0>         0.0511
     46 O7         -6.3592    1.3840   -1.5280 O.3       1 <0>        -0.3868
     47 C30        -5.8557    0.9628   -2.7980 C.3       1 <0>         0.0522
     48 C31        -6.8109   -0.0733   -3.4012 C.3       1 <0>         0.0997
     49 O8          3.5464   -2.0034    1.8474 O.3       1 <0>        -0.5878
     50 O9          1.2355   -0.6187    4.3306 O.3       1 <0>        -0.5880
     51 H6          4.4053    2.2494    5.1456 H         1 <0>         0.0521
     52 H7          3.6859    3.6567    4.2919 H         1 <0>         0.0531
     53 H8          4.8341    2.5755    3.4320 H         1 <0>         0.0531
     54 H9          2.0551    1.7840    4.4689 H         1 <0>         0.0757
     55 H10         1.4969    1.6243    2.0481 H         1 <0>         0.0595
     56 H11         3.1421    2.2118    1.6300 H         1 <0>         0.0548
     57 H12         1.9939    3.2929    2.4899 H         1 <0>         0.0521
     58 H13         4.0790    0.2403    2.7550 H         1 <0>         0.0850
     59 H14         3.7959   -0.0418    4.5063 H         1 <0>         0.0636
     60 H15         2.5663   -4.3398    1.4317 H         1 <0>         0.0667
     61 H16         2.5272   -4.6979    3.1915 H         1 <0>         0.0688
     62 H17         0.0993   -4.8564    1.3213 H         1 <0>         0.0811
     63 H18         0.5684   -5.7683    4.2150 H         1 <0>         0.0421
     64 H19        -0.4234   -4.3603    3.7044 H         1 <0>         0.0780
     65 H20        -1.8497   -6.3551    4.1343 H         1 <0>         0.0530
     66 H21        -1.9079   -5.8776    2.4036 H         1 <0>         0.0707
     67 H22        -0.1400   -8.0841    3.5999 H         1 <0>         0.0535
     68 H23        -1.6410   -8.3409    2.6471 H         1 <0>         0.0572
     69 H24         0.3826   -8.5800    1.2168 H         1 <0>         0.0552
     70 H25        -0.6090   -7.1719    0.7063 H         1 <0>         0.0633
     71 H26         1.8091   -6.5853    0.7872 H         1 <0>         0.0548
     72 H27         1.8670   -7.0628    2.5179 H         1 <0>         0.0548
     73 H28         1.3139   -1.7823    0.6996 H         1 <0>         0.4348
     74 H29         1.0144    1.8285    0.0022 H         1 <0>         0.1034
     75 H30        -0.5325    1.8025    0.9150 H         1 <0>         0.0631
     76 H31        -0.5496    1.8122   -0.8812 H         1 <0>         0.0654
     77 H32        -3.1346   -2.8176    0.9659 H         1 <0>         0.4306
     78 H33        -4.3388   -5.2316   -1.1817 H         1 <0>         0.0696
     79 H34        -4.3925   -4.5196    0.4665 H         1 <0>         0.0528
     80 H35        -6.5149   -4.1176    1.5690 H         1 <0>         0.1013
     81 H36        -8.8836   -4.7596    1.7693 H         1 <0>         0.0991
     82 H37       -10.0032   -5.9296   -0.0856 H         1 <0>         0.0976
     83 H38        -8.7567   -6.4494   -2.1445 H         1 <0>         0.0982
     84 H39        -6.3905   -5.7991   -2.3485 H         1 <0>         0.1036
     85 H40        -8.4521   -0.3176   -1.0666 H         1 <0>         0.0497
     86 H41        -7.4037   -1.6046   -0.3802 H         1 <0>         0.0900
     87 H42        -6.7916    0.7527    0.4021 H         1 <0>         0.0887
     88 H43        -5.4497   -0.1159   -0.4173 H         1 <0>         0.0549
     89 H44        -5.7815    1.8311   -3.4693 H         1 <0>         0.0895
     90 H45        -4.8598    0.5143   -2.6672 H         1 <0>         0.0568
     91 H46        -6.3672   -0.5118   -4.3072 H         1 <0>         0.0885
     92 H47        -7.7698    0.4019   -3.6556 H         1 <0>         0.0492
     93 H48         4.0076   -2.9394    1.4992 H         1 <0>         0.4078
     94 H49         0.3121   -1.2137    4.2723 H         1 <0>         0.4030
@<TRIPOS>BOND
     1    1    2 1
     2    1   51 1
     3    1   52 1
     4    1   53 1
     5    2    3 1
     6    2    4 1
     7    2   54 1
     8    3   55 1
     9    3   56 1
    10    3   57 1
    11    4    5 1
    12    4   58 1
    13    4   59 1
    14    5    6 1
    15    5    7 1
    16    5   50 1
    17    7    8 1
    18    7    9 1
    19    7   49 1
    20    9   10 1
    21    9   11 1
    22    9   18 1
    23   11   12 1
    24   11   60 1
    25   11   61 1
    26   12   17 1
    27   12   13 1
    28   12   62 1
    29   13   14 1
    30   13   63 1
    31   13   64 1
    32   14   15 1
    33   14   65 1
    34   14   66 1
    35   15   16 1
    36   15   67 1
    37   15   68 1
    38   16   17 1
    39   16   69 1
    40   16   70 1
    41   17   71 1
    42   17   72 1
    43   18   19 am
    44   18   73 1
    45   19   20 2
    46   19   21 1
    47   21   22 1
    48   21   23 1
    49   21   27 1
    50   23   24 2
    51   23   25 1
    52   25   26 1
    53   26   74 1
    54   26   75 1
    55   26   76 1
    56   27   28 am
    57   27   77 1
    58   28   29 2
    59   28   30 1
    60   30   31 1
    61   30   32 1
    62   30   39 1
    63   32   33 1
    64   32   78 1
    65   32   79 1
    66   33   38 ar
    67   33   34 ar
    68   34   35 ar
    69   34   80 1
    70   35   36 ar
    71   35   81 1
    72   36   37 ar
    73   36   82 1
    74   37   38 ar
    75   37   83 1
    76   38   84 1
    77   39   40 1
    78   40   41 2
    79   40   42 2
    80   40   43 1
    81   43   48 1
    82   43   44 1
    83   44   45 1
    84   44   85 1
    85   44   86 1
    86   45   46 1
    87   45   87 1
    88   45   88 1
    89   46   47 1
    90   47   48 1
    91   47   89 1
    92   47   90 1
    93   48   91 1
    94   48   92 1
    95   49   93 1
    96   50   94 1
@<TRIPOS>MOLECULE
ZINC03812851
   48    49     0     0     0
SMALL
USER_CHARGES

@<TRIPOS>ATOM
      1 C1         -1.4456   -0.3077    0.0442 C.3       1 <0>        -0.1742
      2 C2          0.0722   -0.1534    0.1596 C.3       1 <0>         0.0100
      3 H1          0.3177    0.8911    0.3515 H         1 <0>         0.1708
      4 C3          0.5789   -1.0052    1.2949 C.2       1 <0>         0.5276
      5 O1          1.3873   -1.8834    1.0802 O.2       1 <0>        -0.5254
      6 N1          0.1335   -0.7910    2.5488 N.am      1 <0>        -0.5683
      7 C4         -0.8487    0.2330    2.9486 C.3       1 <0>         0.0882
      8 C5         -0.5618    0.4936    4.4484 C.3       1 <0>        -0.1335
      9 C6         -0.2014   -0.9302    4.9486 C.3       1 <0>        -0.1074
     10 C7          0.5421   -1.5442    3.7435 C.3       1 <0>         0.0637
     11 H2          1.6185   -1.4533    3.8889 H         1 <0>         0.0738
     12 C8          0.1636   -2.9947    3.5892 C.2       1 <0>         0.4996
     13 O2          0.5749   -3.8203    4.3866 O.co2     1 <0>        -0.6928
     14 O3         -0.5540   -3.3427    2.6670 O.co2     1 <0>        -0.6829
     15 N2          0.7048   -0.5827   -1.0948 N.4       1 <0>        -0.4643
     16 C9          2.1416   -0.2803   -1.0471 C.3       1 <0>        -0.0600
     17 H3          2.5739   -0.7118   -0.1443 H         1 <0>         0.1486
     18 C10         2.8293   -0.8764   -2.2771 C.3       1 <0>        -0.1097
     19 C11         2.7349   -2.4025   -2.2247 C.3       1 <0>        -0.0932
     20 C12         3.4122   -2.9896   -3.4361 C.ar      1 <0>        -0.0771
     21 C13         2.6890   -3.2102   -4.5934 C.ar      1 <0>        -0.1190
     22 C14         3.3103   -3.7487   -5.7046 C.ar      1 <0>        -0.1195
     23 C15         4.6549   -4.0662   -5.6587 C.ar      1 <0>        -0.1259
     24 C16         5.3783   -3.8448   -4.5018 C.ar      1 <0>        -0.1170
     25 C17         4.7580   -3.3023   -3.3919 C.ar      1 <0>        -0.1119
     26 C18         2.3404    1.2135   -1.0350 C.2       1 <0>         0.4980
     27 O4          1.3875    1.9566   -1.1964 O.co2     1 <0>        -0.6788
     28 O5          3.4543    1.6788   -0.8637 O.co2     1 <0>        -0.6404
     29 H4         -1.8224    0.3699   -0.7219 H         1 <0>         0.0871
     30 H5         -1.6867   -1.3350   -0.2289 H         1 <0>         0.0811
     31 H6         -1.9090   -0.0678    1.0012 H         1 <0>         0.1053
     32 H7         -0.7023    1.1453    2.3703 H         1 <0>         0.0765
     33 H8         -1.8634   -0.1424    2.8161 H         1 <0>         0.0757
     34 H9          0.2792    1.1758    4.5725 H         1 <0>         0.0762
     35 H10        -1.4488    0.8730    4.9557 H         1 <0>         0.0832
     36 H11         0.4498   -0.8791    5.8212 H         1 <0>         0.0800
     37 H12        -1.1032   -1.5003    5.1719 H         1 <0>         0.0746
     38 H13         0.5740   -1.5759   -1.2147 H         1 <0>         0.4113
     39 H14         2.3383   -0.5127   -3.1797 H         1 <0>         0.0758
     40 H15         3.8774   -0.5773   -2.2879 H         1 <0>         0.1081
     41 H16         3.2258   -2.7662   -1.3220 H         1 <0>         0.0921
     42 H17         1.6868   -2.7016   -2.2138 H         1 <0>         0.0645
     43 H18         1.6385   -2.9621   -4.6292 H         1 <0>         0.1194
     44 H19         2.7452   -3.9217   -6.6085 H         1 <0>         0.1204
     45 H20         5.1402   -4.4876   -6.5267 H         1 <0>         0.1196
     46 H21         6.4288   -4.0932   -4.4658 H         1 <0>         0.1219
     47 H22         5.3240   -3.1259   -2.4892 H         1 <0>         0.1250
     48 H23         0.2834   -0.0920   -1.8691 H         1 <0>         0.4233
@<TRIPOS>BOND
     1    1    2 1
     2    1   29 1
     3    1   30 1
     4    1   31 1
     5    2    3 1
     6    2    4 1
     7    2   15 1
     8    4    5 2
     9    4    6 am
    10    6   10 1
    11    6    7 1
    12    7    8 1
    13    7   32 1
    14    7   33 1
    15    8    9 1
    16    8   34 1
    17    8   35 1
    18    9   10 1
    19    9   36 1
    20    9   37 1
    21   10   11 1
    22   10   12 1
    23   12   13 2
    24   12   14 1
    25   15   16 1
    26   15   38 1
    27   15   48 1
    28   16   17 1
    29   16   18 1
    30   16   26 1
    31   18   19 1
    32   18   39 1
    33   18   40 1
    34   19   20 1
    35   19   41 1
    36   19   42 1
    37   20   25 ar
    38   20   21 ar
    39   21   22 ar
    40   21   43 1
    41   22   23 ar
    42   22   44 1
    43   23   24 ar
    44   23   45 1
    45   24   25 ar
    46   24   46 1
    47   25   47 1
    48   26   27 2
    49   26   28 1
@<TRIPOS>MOLECULE
ZINC03927469
   91    93     0     0     0
SMALL
USER_CHARGES
isopropyl 4-cyclohexyl-2-hydroxy-3-[3-methylsulfanyl-2-(2-morpholinocarbonylamino-3-phenyl-propanoyl)amino-propanoyl]amino-butanoate
@<TRIPOS>ATOM
      1 C1          2.7817    0.9379   -1.4537 C.3       1 <0>        -0.1684
      2 C2          2.3595    1.2061   -0.0078 C.3       1 <0>         0.0814
      3 C3          3.4550    2.0023    0.7040 C.3       1 <0>        -0.1518
      4 O1          1.1234    1.9678    0.0022 O.3       1 <0>        -0.3459
      5 C4         -0.0228    1.2693    0.0120 C.2       1 <0>         0.4330
      6 O2          0.0059    0.0614    0.0123 O.2       1 <0>        -0.4966
      7 C5         -1.3453    1.9917    0.0164 C.3       1 <0>         0.1111
      8 H1         -1.3787    2.6834    0.8581 H         1 <0>         0.1539
      9 C6         -1.5053    2.7707   -1.2907 C.3       1 <0>         0.1197
     10 H2         -0.6960    3.4950   -1.3833 H         1 <0>         0.1191
     11 C7         -2.8481    3.5041   -1.2862 C.3       1 <0>        -0.1222
     12 C8         -2.9543    4.3812   -2.5353 C.3       1 <0>        -0.0812
     13 C9         -1.8922    5.4810   -2.4782 C.3       1 <0>        -0.1072
     14 C10        -1.9985    6.3580   -3.7273 C.3       1 <0>        -0.1105
     15 C11        -3.3887    6.9942   -3.7871 C.3       1 <0>        -0.1212
     16 C12        -4.4508    5.8943   -3.8443 C.3       1 <0>        -0.1166
     17 C13        -4.3445    5.0173   -2.5951 C.3       1 <0>        -0.1149
     18 N1         -1.4604    1.8410   -2.4219 N.am      1 <0>        -0.7253
     19 C14        -1.0792    2.2779   -3.6386 C.2       1 <0>         0.5220
     20 O3         -0.7732    3.4408   -3.7968 O.2       1 <0>        -0.4989
     21 C15        -1.0330    1.3215   -4.8023 C.3       1 <0>         0.1499
     22 H3         -2.0267    0.9064   -4.9710 H         1 <0>         0.1251
     23 C16        -0.0528    0.1884   -4.4926 C.3       1 <0>        -0.1158
     24 S1          0.0028   -0.9629   -5.8934 S.3       1 <0>        -0.1784
     25 C17         1.1933   -2.2291   -5.3738 C.3       1 <0>        -0.1539
     26 N2         -0.5913    2.0347   -6.0033 N.am      1 <0>        -0.7075
     27 C18        -0.9355    1.5773   -7.2235 C.2       1 <0>         0.5201
     28 O4         -1.6108    0.5753   -7.3272 O.2       1 <0>        -0.5027
     29 C19        -0.4811    2.3110   -8.4589 C.3       1 <0>         0.1620
     30 H4          0.6082    2.3380   -8.4855 H         1 <0>         0.1162
     31 C20        -1.0263    3.7403   -8.4327 C.3       1 <0>        -0.0895
     32 C21        -0.4726    4.5107   -9.6037 C.ar      1 <0>        -0.0606
     33 C22         0.7112    5.2122   -9.4720 C.ar      1 <0>        -0.1043
     34 C23         1.2215    5.9148  -10.5475 C.ar      1 <0>        -0.1132
     35 C24         0.5426    5.9246  -11.7516 C.ar      1 <0>        -0.1180
     36 C25        -0.6439    5.2274  -11.8817 C.ar      1 <0>        -0.1117
     37 C26        -1.1515    4.5205  -10.8078 C.ar      1 <0>        -0.0978
     38 N3         -0.9816    1.6192   -9.6494 N.am      1 <0>        -0.7289
     39 C27        -0.3362    1.7492  -10.8255 C.2       1 <0>         0.7132
     40 O5          0.6144    2.5017  -10.9174 O.2       1 <0>        -0.5629
     41 N4         -0.7445    1.0450  -11.8996 N.am      1 <0>        -0.6314
     42 C28         0.0048    1.0912  -13.1653 C.3       1 <0>         0.0997
     43 C29         0.2616   -0.3535  -13.6231 C.3       1 <0>         0.0463
     44 O6         -0.9778   -1.0656  -13.6454 O.3       1 <0>        -0.3782
     45 C30        -1.6069   -1.1857  -12.3672 C.3       1 <0>         0.0484
     46 C31        -1.9562    0.2119  -11.8433 C.3       1 <0>         0.0763
     47 O7         -2.4063    1.0421    0.1379 O.3       1 <0>        -0.5179
     48 H5          2.0012    0.3706   -1.9608 H         1 <0>         0.0562
     49 H6          2.9350    1.8859   -1.9693 H         1 <0>         0.0682
     50 H7          3.7096    0.3660   -1.4612 H         1 <0>         0.0772
     51 H8          2.2062    0.2580    0.5078 H         1 <0>         0.0856
     52 H9          3.1543    2.1934    1.7341 H         1 <0>         0.0664
     53 H10         4.3830    1.4305    0.6966 H         1 <0>         0.0807
     54 H11         3.6083    2.9504    0.1885 H         1 <0>         0.0701
     55 H12        -3.6595    2.7764   -1.2831 H         1 <0>         0.0757
     56 H13        -2.9175    4.1295   -0.3962 H         1 <0>         0.0791
     57 H14        -2.7963    3.7693   -3.4234 H         1 <0>         0.0747
     58 H15        -2.0503    6.0929   -1.5901 H         1 <0>         0.0488
     59 H16        -0.9018    5.0278   -2.4356 H         1 <0>         0.0773
     60 H17        -1.8404    5.7461   -4.6154 H         1 <0>         0.0635
     61 H18        -1.2418    7.1416   -3.6866 H         1 <0>         0.0544
     62 H19        -3.4644    7.6190   -4.6770 H         1 <0>         0.0568
     63 H20        -3.5467    7.6061   -2.8990 H         1 <0>         0.0579
     64 H21        -4.2927    5.2824   -4.7324 H         1 <0>         0.0577
     65 H22        -5.4412    6.3475   -3.8869 H         1 <0>         0.0576
     66 H23        -5.1012    4.2338   -2.6359 H         1 <0>         0.0566
     67 H24        -4.5026    5.6292   -1.7070 H         1 <0>         0.0600
     68 H25        -1.7051    0.9109   -2.2953 H         1 <0>         0.3982
     69 H26         0.9409    0.6035   -4.3238 H         1 <0>         0.0873
     70 H27        -0.3814   -0.3423   -3.5990 H         1 <0>         0.0908
     71 H28         1.2960   -2.9760   -6.1610 H         1 <0>         0.1009
     72 H29         2.1607   -1.7632   -5.1866 H         1 <0>         0.0714
     73 H30         0.8385   -2.7089   -4.4617 H         1 <0>         0.0736
     74 H31        -0.0512    2.8362   -5.9204 H         1 <0>         0.4133
     75 H32        -2.1142    3.7155   -8.4958 H         1 <0>         0.0788
     76 H33        -0.7272    4.2263   -7.5040 H         1 <0>         0.0866
     77 H34         1.2393    5.2082   -8.5299 H         1 <0>         0.1137
     78 H35         2.1484    6.4598  -10.4457 H         1 <0>         0.1151
     79 H36         0.9391    6.4772  -12.5906 H         1 <0>         0.1139
     80 H37        -1.1745    5.2353  -12.8224 H         1 <0>         0.1114
     81 H38        -2.0787    3.9760  -10.9094 H         1 <0>         0.1052
     82 H39        -1.7774    1.0677   -9.5913 H         1 <0>         0.4028
     83 H40        -0.5794    1.6197  -13.9186 H         1 <0>         0.0729
     84 H41         0.9547    1.6030  -13.0110 H         1 <0>         0.1028
     85 H42         0.9490   -0.8406  -12.9315 H         1 <0>         0.0559
     86 H43         0.6949   -0.3455  -14.6232 H         1 <0>         0.1068
     87 H44        -0.9263   -1.6758  -11.6711 H         1 <0>         0.0568
     88 H45        -2.5177   -1.7768  -12.4629 H         1 <0>         0.1066
     89 H46        -2.3055    0.1412  -10.8132 H         1 <0>         0.0876
     90 H47        -2.7345    0.6534  -12.4658 H         1 <0>         0.0780
     91 H48        -2.4377    0.3937   -0.5788 H         1 <0>         0.3807
@<TRIPOS>BOND
     1    1    2 1
     2    1   48 1
     3    1   49 1
     4    1   50 1
     5    2    3 1
     6    2    4 1
     7    2   51 1
     8    3   52 1
     9    3   53 1
    10    3   54 1
    11    4    5 1
    12    5    6 2
    13    5    7 1
    14    7    8 1
    15    7    9 1
    16    7   47 1
    17    9   10 1
    18    9   11 1
    19    9   18 1
    20   11   12 1
    21   11   55 1
    22   11   56 1
    23   12   17 1
    24   12   13 1
    25   12   57 1
    26   13   14 1
    27   13   58 1
    28   13   59 1
    29   14   15 1
    30   14   60 1
    31   14   61 1
    32   15   16 1
    33   15   62 1
    34   15   63 1
    35   16   17 1
    36   16   64 1
    37   16   65 1
    38   17   66 1
    39   17   67 1
    40   18   19 am
    41   18   68 1
    42   19   20 2
    43   19   21 1
    44   21   22 1
    45   21   23 1
    46   21   26 1
    47   23   24 1
    48   23   69 1
    49   23   70 1
    50   24   25 1
    51   25   71 1
    52   25   72 1
    53   25   73 1
    54   26   27 am
    55   26   74 1
    56   27   28 2
    57   27   29 1
    58   29   30 1
    59   29   31 1
    60   29   38 1
    61   31   32 1
    62   31   75 1
    63   31   76 1
    64   32   37 ar
    65   32   33 ar
    66   33   34 ar
    67   33   77 1
    68   34   35 ar
    69   34   78 1
    70   35   36 ar
    71   35   79 1
    72   36   37 ar
    73   36   80 1
    74   37   81 1
    75   38   39 am
    76   38   82 1
    77   39   40 2
    78   39   41 am
    79   41   46 1
    80   41   42 1
    81   42   43 1
    82   42   83 1
    83   42   84 1
    84   43   44 1
    85   43   85 1
    86   43   86 1
    87   44   45 1
    88   45   46 1
    89   45   87 1
    90   45   88 1
    91   46   89 1
    92   46   90 1
    93   47   91 1
