@<TRIPOS>MOLECULE
ZINC03953867
   61    64     0     0     0
SMALL
USER_CHARGES

@<TRIPOS>ATOM
      1 C1          0.2245    0.9687   -0.1466 C.3       1 <0>        -0.1391
      2 C2          0.0480   -0.5492   -0.0703 C.3       1 <0>        -0.0440
      3 C3          0.7629   -1.0839    1.1722 C.3       1 <0>        -0.1350
      4 C4         -1.4245   -0.8817    0.0133 C.2       1 <0>        -0.1441
      5 C5         -2.0501   -1.5926   -0.9289 C.2       1 <0>        -0.1715
      6 C6         -3.5423   -1.8197   -0.5661 C.3       1 <0>         0.0284
      7 C7         -4.1702   -2.6839   -1.6299 C.3       1 <0>        -0.0831
      8 C8         -5.4397   -3.4106   -1.2061 C.3       1 <0>        -0.0762
      9 C9         -5.7329   -3.3412    0.2810 C.3       1 <0>        -0.1003
     10 H1         -6.0998   -2.3152    0.5175 H         1 <0>         0.1677
     11 C10        -4.4897   -3.5310    1.1247 C.3       1 <0>        -0.0135
     12 C11        -3.4090   -2.5386    0.7572 C.3       1 <0>        -0.0256
     13 H2         -2.4917   -3.1991    0.6124 H         1 <0>         0.0087
     14 C12        -2.9631   -1.5798    1.8503 C.3       1 <0>        -0.1176
     15 C13        -2.3000   -0.3762    1.1575 C.3       1 <0>        -0.0149
     16 H3         -1.7225    0.2110    1.8621 H         1 <0>         0.0463
     17 C14        -3.4010    0.4635    0.4962 C.3       1 <0>        -0.1242
     18 H4         -2.9340    1.3208   -0.0098 H         1 <0>         0.0206
     19 C15        -4.0898   -0.4022   -0.5593 C.3       1 <0>        -0.1051
     20 H5         -3.7817    0.0347   -1.5471 H         1 <0>         0.0076
     21 C16        -5.5724   -0.2559   -0.4951 C.2       1 <0>         0.5129
     22 O1         -6.1557   -0.4179    0.5632 O.co2     1 <0>        -0.6141
     23 O2         -6.2014    0.0258   -1.5009 O.co2     1 <0>        -0.7335
     24 C17        -4.3880    0.9748    1.5023 C.2       1 <0>         0.5384
     25 O3         -4.9184    2.0604    1.3388 O.co2     1 <0>        -0.7289
     26 O4         -4.6602    0.3051    2.4841 O.co2     1 <0>        -0.6767
     27 C18        -4.8359   -3.4019    2.6126 C.3       1 <0>        -0.1057
     28 C19        -5.9112   -4.4230    2.9836 C.3       1 <0>        -0.1037
     29 C20        -7.1760   -4.1532    2.1803 C.3       1 <0>        -0.0873
     30 C21        -6.9174   -4.2125    0.6741 C.3       1 <0>        -0.1107
     31 C22        -6.7983   -5.6631    0.2199 C.3       1 <0>        -0.1090
     32 C23        -8.1605   -3.6367    0.0016 C.2       1 <0>         0.4839
     33 O5         -9.0805   -4.3729   -0.3116 O.co2     1 <0>        -0.7457
     34 O6         -8.2336   -2.4405   -0.2224 O.co2     1 <0>        -0.6322
     35 C24        -3.8782   -4.9294    0.9006 C.3       1 <0>        -0.1414
     36 H6          1.2861    1.2084   -0.2069 H         1 <0>         0.0386
     37 H7         -0.2848    1.3497   -1.0318 H         1 <0>         0.0528
     38 H8         -0.2020    1.4293    0.7445 H         1 <0>         0.0594
     39 H9          0.4745   -1.0098   -0.9614 H         1 <0>         0.0561
     40 H10         0.6371   -2.1653    1.2266 H         1 <0>         0.0498
     41 H11         1.8245   -0.8442    1.1119 H         1 <0>         0.0386
     42 H12         0.3364   -0.6233    2.0633 H         1 <0>         0.0580
     43 H13        -1.6129   -1.9765   -1.8253 H         1 <0>         0.1005
     44 H14        -4.4049   -2.0585   -2.5059 H         1 <0>         0.0439
     45 H15        -3.4349   -3.4261   -1.9748 H         1 <0>         0.0238
     46 H16        -6.2813   -2.9734   -1.7653 H         1 <0>         0.0582
     47 H17        -5.3593   -4.4539   -1.5310 H         1 <0>         0.0172
     48 H18        -3.7833   -1.2763    2.4848 H         1 <0>         0.1479
     49 H19        -2.2050   -2.0765    2.4740 H         1 <0>         0.0075
     50 H20        -3.9409   -3.5807    3.2093 H         1 <0>         0.0357
     51 H21        -5.2174   -2.4000    2.8112 H         1 <0>         0.0920
     52 H22        -5.5604   -5.4384    2.8332 H         1 <0>         0.0433
     53 H23        -6.1441   -4.3001    4.0527 H         1 <0>         0.0305
     54 H24        -7.9393   -4.8910    2.4436 H         1 <0>         0.0338
     55 H25        -7.5527   -3.1564    2.4349 H         1 <0>         0.0601
     56 H26        -5.8820   -6.0956    0.6218 H         1 <0>         0.0309
     57 H27        -7.6566   -6.2289    0.5824 H         1 <0>         0.0350
     58 H28        -6.7713   -5.7019   -0.8691 H         1 <0>         0.0335
     59 H29        -3.7750   -5.1136   -0.1688 H         1 <0>         0.0413
     60 H30        -2.8975   -4.9772    1.3738 H         1 <0>         0.0275
     61 H31        -4.5301   -5.6854    1.3383 H         1 <0>         0.0528
@<TRIPOS>BOND
     1    1    2 1
     2    1   36 1
     3    1   37 1
     4    1   38 1
     5    2    3 1
     6    2    4 1
     7    2   39 1
     8    3   40 1
     9    3   41 1
    10    3   42 1
    11    4   15 1
    12    4    5 2
    13    5    6 1
    14    5   43 1
    15    6   12 1
    16    6   19 1
    17    6    7 1
    18    7    8 1
    19    7   44 1
    20    7   45 1
    21    8    9 1
    22    8   46 1
    23    8   47 1
    24    9   10 1
    25    9   30 1
    26    9   11 1
    27   11   12 1
    28   11   27 1
    29   11   35 1
    30   12   13 1
    31   12   14 1
    32   14   15 1
    33   14   48 1
    34   14   49 1
    35   15   16 1
    36   15   17 1
    37   17   18 1
    38   17   19 1
    39   17   24 1
    40   19   20 1
    41   19   21 1
    42   21   22 2
    43   21   23 1
    44   24   25 2
    45   24   26 1
    46   27   28 1
    47   27   50 1
    48   27   51 1
    49   28   29 1
    50   28   52 1
    51   28   53 1
    52   29   30 1
    53   29   54 1
    54   29   55 1
    55   30   31 1
    56   30   32 1
    57   31   56 1
    58   31   57 1
    59   31   58 1
    60   32   33 2
    61   32   34 1
    62   35   59 1
    63   35   60 1
    64   35   61 1
@<TRIPOS>MOLECULE
ZINC03953867
   62    65     0     0     0
SMALL
USER_CHARGES

@<TRIPOS>ATOM
      1 C1         -0.7693    1.6420   -0.7193 C.3       1 <0>        -0.1426
      2 C2         -0.5044    0.2357   -0.1781 C.3       1 <0>        -0.0444
      3 C3          0.4094    0.3239    1.0458 C.3       1 <0>        -0.1395
      4 C4         -1.8146   -0.4075    0.2165 C.2       1 <0>        -0.1478
      5 C5         -2.2719   -1.5153   -0.3735 C.2       1 <0>        -0.1498
      6 C6         -3.6131   -1.9773    0.2571 C.3       1 <0>         0.0238
      7 C7         -4.0370   -3.2649   -0.4027 C.3       1 <0>        -0.0879
      8 C8         -5.0199   -4.1084    0.3982 C.3       1 <0>        -0.0846
      9 C9         -5.2264   -3.6402    1.8267 C.3       1 <0>        -0.0894
     10 H1         -5.8526   -2.7179    1.8052 H         1 <0>         0.1534
     11 C10        -3.9296   -3.2334    2.4947 C.3       1 <0>        -0.0191
     12 C11        -3.1988   -2.1760    1.6974 C.3       1 <0>        -0.0449
     13 H2         -2.1433   -2.5980    1.6171 H         1 <0>         0.0319
     14 C12        -2.9741   -0.8378    2.3843 C.3       1 <0>        -0.1091
     15 C13        -2.7233    0.2043    1.2801 C.3       1 <0>        -0.0200
     16 H3         -2.2920    1.1108    1.6888 H         1 <0>         0.0697
     17 C14        -4.0561    0.4854    0.5737 C.3       1 <0>        -0.0610
     18 H4         -3.8834    1.2224   -0.2238 H         1 <0>         0.0747
     19 C15        -4.5373   -0.8160   -0.0688 C.3       1 <0>        -0.1282
     20 H5         -4.4283   -0.6575   -1.1754 H         1 <0>         0.0467
     21 C16        -5.9937   -1.0303    0.1693 C.2       1 <0>         0.5168
     22 O1         -6.4433   -0.9603    1.3005 O.co2     1 <0>        -0.6449
     23 O2         -6.7349   -1.2755   -0.7672 O.co2     1 <0>        -0.6866
     24 C17        -5.0818    1.0305    1.5217 C.2       1 <0>         0.5189
     25 O3         -4.8710    1.0197    2.7114 O.2       1 <0>        -0.5383
     26 O4         -6.2343    1.5304    1.0488 O.3       1 <0>        -0.4956
     27 C18        -4.2035   -2.7236    3.9144 C.3       1 <0>        -0.1015
     28 C19        -4.9207   -3.8049    4.7225 C.3       1 <0>        -0.1078
     29 C20        -6.2582   -4.1308    4.0724 C.3       1 <0>        -0.0879
     30 C21        -6.0890   -4.6046    2.6281 C.3       1 <0>        -0.1137
     31 C22        -5.5937   -6.0464    2.6046 C.3       1 <0>        -0.1129
     32 C23        -7.4840   -4.6035    2.0093 C.2       1 <0>         0.4864
     33 O5         -8.1763   -5.6056    2.0647 O.co2     1 <0>        -0.7329
     34 O6         -7.9063   -3.6006    1.4595 O.co2     1 <0>        -0.6436
     35 C24        -2.9632   -4.4312    2.6002 C.3       1 <0>        -0.1449
     36 H6          0.1753    2.1057   -1.0038 H         1 <0>         0.0472
     37 H7         -1.4203    1.5792   -1.5913 H         1 <0>         0.0545
     38 H8         -1.2514    2.2431    0.0516 H         1 <0>         0.0555
     39 H9         -0.0223   -0.3655   -0.9490 H         1 <0>         0.0663
     40 H10        -0.0728    0.9250    1.8167 H         1 <0>         0.0562
     41 H11         0.5981   -0.6780    1.4313 H         1 <0>         0.0532
     42 H12         1.3540    0.7875    0.7613 H         1 <0>         0.0461
     43 H13        -1.8015   -2.0454   -1.1734 H         1 <0>         0.1156
     44 H14        -4.4936   -3.0331   -1.3781 H         1 <0>         0.0511
     45 H15        -3.1452   -3.8710   -0.6212 H         1 <0>         0.0359
     46 H16        -5.9844   -4.0977   -0.1328 H         1 <0>         0.0632
     47 H17        -4.6686   -5.1461    0.3837 H         1 <0>         0.0272
     48 H18        -3.8048   -0.5606    3.0171 H         1 <0>         0.1115
     49 H19        -2.0687   -0.9029    3.0061 H         1 <0>         0.0387
     50 H20        -3.2587   -2.4728    4.3974 H         1 <0>         0.0413
     51 H21        -4.8393   -1.8392    3.8663 H         1 <0>         0.0730
     52 H22        -4.3075   -4.6937    4.8246 H         1 <0>         0.0509
     53 H23        -5.1109   -3.4070    5.7314 H         1 <0>         0.0349
     54 H24        -6.7637   -4.9102    4.6499 H         1 <0>         0.0406
     55 H25        -6.8844   -3.2319    4.0782 H         1 <0>         0.0557
     56 H26        -4.5755   -6.0871    2.9913 H         1 <0>         0.0324
     57 H27        -6.2431   -6.6638    3.2253 H         1 <0>         0.0405
     58 H28        -5.6086   -6.4190    1.5804 H         1 <0>         0.0366
     59 H29        -2.8711   -4.9107    1.6256 H         1 <0>         0.0464
     60 H30        -1.9841   -4.0805    2.9265 H         1 <0>         0.0319
     61 H31        -3.3515   -5.1489    3.3229 H         1 <0>         0.0587
     62 H32        -6.8319    1.8578    1.7350 H         1 <0>         0.3911
@<TRIPOS>BOND
     1    1    2 1
     2    1   36 1
     3    1   37 1
     4    1   38 1
     5    2    3 1
     6    2    4 1
     7    2   39 1
     8    3   40 1
     9    3   41 1
    10    3   42 1
    11    4   15 1
    12    4    5 2
    13    5    6 1
    14    5   43 1
    15    6   12 1
    16    6   19 1
    17    6    7 1
    18    7    8 1
    19    7   44 1
    20    7   45 1
    21    8    9 1
    22    8   46 1
    23    8   47 1
    24    9   10 1
    25    9   30 1
    26    9   11 1
    27   11   12 1
    28   11   27 1
    29   11   35 1
    30   12   13 1
    31   12   14 1
    32   14   15 1
    33   14   48 1
    34   14   49 1
    35   15   16 1
    36   15   17 1
    37   17   18 1
    38   17   19 1
    39   17   24 1
    40   19   20 1
    41   19   21 1
    42   21   22 2
    43   21   23 1
    44   24   25 2
    45   24   26 1
    46   26   62 1
    47   27   28 1
    48   27   50 1
    49   27   51 1
    50   28   29 1
    51   28   52 1
    52   28   53 1
    53   29   30 1
    54   29   54 1
    55   29   55 1
    56   30   31 1
    57   30   32 1
    58   31   56 1
    59   31   57 1
    60   31   58 1
    61   32   33 2
    62   32   34 1
    63   35   59 1
    64   35   60 1
    65   35   61 1
@<TRIPOS>MOLECULE
ZINC03953867
   62    65     0     0     0
SMALL
USER_CHARGES

@<TRIPOS>ATOM
      1 C1         -0.2268    1.9300   -1.5716 C.3       1 <0>        -0.1425
      2 C2         -0.2888    0.4082   -1.4263 C.3       1 <0>        -0.0477
      3 C3          0.5643   -0.0254   -0.2325 C.3       1 <0>        -0.1396
      4 C4         -1.7219   -0.0187   -1.2031 C.2       1 <0>        -0.1225
      5 C5         -2.3731   -0.8085   -2.0614 C.2       1 <0>        -0.1764
      6 C6         -3.8096   -1.1201   -1.5623 C.3       1 <0>         0.0180
      7 C7         -4.4626   -2.0679   -2.5361 C.3       1 <0>        -0.0988
      8 C8         -5.6374   -2.8600   -1.9778 C.3       1 <0>        -0.0964
      9 C9         -5.8083   -2.7489   -0.4743 C.3       1 <0>        -0.0763
     10 H1         -6.2253   -1.7409   -0.2434 H         1 <0>         0.1205
     11 C10        -4.4881   -2.8196    0.2643 C.3       1 <0>        -0.0217
     12 C11        -3.5148   -1.7729   -0.2310 C.3       1 <0>        -0.0483
     13 H2         -2.5688   -2.3758   -0.4315 H         1 <0>         0.0354
     14 C12        -3.0470   -0.7419    0.7844 C.3       1 <0>        -0.1195
     15 C13        -2.5312    0.4738   -0.0058 C.3       1 <0>        -0.0169
     16 H3         -1.9392    1.1272    0.6246 H         1 <0>         0.0671
     17 C14        -3.7405    1.2095   -0.5982 C.3       1 <0>        -0.1374
     18 H4         -3.3794    2.0745   -1.1730 H         1 <0>         0.0538
     19 C15        -4.4532    0.2565   -1.5583 C.3       1 <0>        -0.0371
     20 H5         -4.2611    0.6718   -2.5841 H         1 <0>         0.0599
     21 C16        -5.9317    0.3054   -1.3705 C.2       1 <0>         0.4756
     22 O1         -6.4057    0.1633   -0.2682 O.2       1 <0>        -0.4351
     23 O2         -6.7360    0.5074   -2.4260 O.3       1 <0>        -0.5283
     24 C17        -4.6726    1.6946    0.4713 C.2       1 <0>         0.5165
     25 O3         -5.4400    2.6135    0.2403 O.co2     1 <0>        -0.7081
     26 O4         -4.6633    1.1703    1.5719 O.co2     1 <0>        -0.6700
     27 C18        -4.7157   -2.6525    1.7711 C.3       1 <0>        -0.1059
     28 C19        -5.6812   -3.7273    2.2703 C.3       1 <0>        -0.1094
     29 C20        -7.0251   -3.5765    1.5710 C.3       1 <0>        -0.0901
     30 C21        -6.8910   -3.6807    0.0511 C.3       1 <0>        -0.1143
     31 C22        -6.7087   -5.1376   -0.3599 C.3       1 <0>        -0.1164
     32 C23        -8.2239   -3.2181   -0.5307 C.2       1 <0>         0.4974
     33 O5         -9.1128   -4.0268   -0.7363 O.co2     1 <0>        -0.7174
     34 O6         -8.3998   -2.0398   -0.7898 O.co2     1 <0>        -0.6775
     35 C24        -3.8006   -4.1819    0.0376 C.3       1 <0>        -0.1433
     36 H6          0.8064    2.2378   -1.7325 H         1 <0>         0.0468
     37 H7         -0.8345    2.2389   -2.4220 H         1 <0>         0.0535
     38 H8         -0.6079    2.3975   -0.6637 H         1 <0>         0.0597
     39 H9          0.0924   -0.0593   -2.3342 H         1 <0>         0.0641
     40 H10         0.5201   -1.1096   -0.1291 H         1 <0>         0.0524
     41 H11         1.5975    0.2824   -0.3934 H         1 <0>         0.0462
     42 H12         0.1831    0.4421    0.6753 H         1 <0>         0.0591
     43 H13        -1.9871   -1.1990   -2.9783 H         1 <0>         0.1169
     44 H14        -4.8138   -1.4965   -3.4100 H         1 <0>         0.0513
     45 H15        -3.7085   -2.7727   -2.9170 H         1 <0>         0.0499
     46 H16        -6.5519   -2.5038   -2.4769 H         1 <0>         0.0584
     47 H17        -5.5113   -3.9081   -2.2713 H         1 <0>         0.0420
     48 H18        -3.8301   -0.4681    1.4768 H         1 <0>         0.1411
     49 H19        -2.2059   -1.1603    1.3571 H         1 <0>         0.0287
     50 H20        -3.7632   -2.7459    2.2936 H         1 <0>         0.0466
     51 H21        -5.1487   -1.6711    1.9664 H         1 <0>         0.0825
     52 H22        -5.2737   -4.7221    2.1261 H         1 <0>         0.0514
     53 H23        -5.8312   -3.5761    3.3506 H         1 <0>         0.0393
     54 H24        -7.7096   -4.3524    1.9259 H         1 <0>         0.0435
     55 H25        -7.4483   -2.5976    1.8219 H         1 <0>         0.0571
     56 H26        -5.8422   -5.5543    0.1535 H         1 <0>         0.0338
     57 H27        -7.5990   -5.7055   -0.0895 H         1 <0>         0.0500
     58 H28        -6.5547   -5.1947   -1.4374 H         1 <0>         0.0371
     59 H29        -3.7615   -4.3958   -1.0305 H         1 <0>         0.0452
     60 H30        -2.7877   -4.1490    0.4389 H         1 <0>         0.0363
     61 H31        -4.3669   -4.9634    0.5441 H         1 <0>         0.0580
     62 H32        -7.6774    0.5233   -2.2058 H         1 <0>         0.4019
@<TRIPOS>BOND
     1    1    2 1
     2    1   36 1
     3    1   37 1
     4    1   38 1
     5    2    3 1
     6    2    4 1
     7    2   39 1
     8    3   40 1
     9    3   41 1
    10    3   42 1
    11    4   15 1
    12    4    5 2
    13    5    6 1
    14    5   43 1
    15    6   12 1
    16    6   19 1
    17    6    7 1
    18    7    8 1
    19    7   44 1
    20    7   45 1
    21    8    9 1
    22    8   46 1
    23    8   47 1
    24    9   10 1
    25    9   30 1
    26    9   11 1
    27   11   12 1
    28   11   27 1
    29   11   35 1
    30   12   13 1
    31   12   14 1
    32   14   15 1
    33   14   48 1
    34   14   49 1
    35   15   16 1
    36   15   17 1
    37   17   18 1
    38   17   19 1
    39   17   24 1
    40   19   20 1
    41   19   21 1
    42   21   22 2
    43   21   23 1
    44   23   62 1
    45   24   25 2
    46   24   26 1
    47   27   28 1
    48   27   50 1
    49   27   51 1
    50   28   29 1
    51   28   52 1
    52   28   53 1
    53   29   30 1
    54   29   54 1
    55   29   55 1
    56   30   31 1
    57   30   32 1
    58   31   56 1
    59   31   57 1
    60   31   58 1
    61   32   33 2
    62   32   34 1
    63   35   59 1
    64   35   60 1
    65   35   61 1
@<TRIPOS>MOLECULE
ZINC04682967
   61    64     0     0     0
SMALL
USER_CHARGES

@<TRIPOS>ATOM
      1 C1          0.3678    0.8062   -1.3686 C.3       1 <0>        -0.1386
      2 C2          0.5435   -0.6726   -1.0175 C.3       1 <0>        -0.0429
      3 C3          1.5123   -0.8057    0.1592 C.3       1 <0>        -0.1355
      4 C4         -0.7937   -1.2619   -0.6376 C.2       1 <0>        -0.1460
      5 C5         -1.3644   -2.2528   -1.3267 C.2       1 <0>        -0.1689
      6 C6         -2.7033   -2.7014   -0.6939 C.3       1 <0>         0.0208
      7 C7         -3.2202   -3.8758   -1.4971 C.3       1 <0>        -0.0842
      8 C8         -4.2991   -4.6483   -0.7476 C.3       1 <0>        -0.1092
      9 C9         -3.8047   -5.1609    0.6003 C.3       1 <0>        -0.0114
     10 H1         -2.9867   -5.8895    0.3628 H         1 <0>         0.0248
     11 C10        -3.1734   -4.0897    1.4670 C.3       1 <0>        -0.0116
     12 C11        -2.2971   -3.1204    0.6978 C.3       1 <0>        -0.0279
     13 H2         -1.3259   -3.6887    0.5577 H         1 <0>         0.0116
     14 C12        -1.8792   -1.8936    1.5107 C.3       1 <0>        -0.1144
     15 C13        -1.6200   -0.7383    0.5339 C.3       1 <0>        -0.0091
     16 H3         -1.1115    0.0800    1.0299 H         1 <0>         0.0469
     17 C14        -2.9599   -0.2843   -0.0607 C.3       1 <0>        -0.1301
     18 H4         -2.7713    0.5215   -0.7811 H         1 <0>         0.0202
     19 C15        -3.5829   -1.4695   -0.8072 C.3       1 <0>        -0.1039
     20 H5         -3.5856   -1.1743   -1.8849 H         1 <0>         0.0165
     21 C16        -5.0099   -1.6465   -0.4112 C.2       1 <0>         0.5125
     22 O1         -5.3573   -1.4178    0.7349 O.co2     1 <0>        -0.6173
     23 O2         -5.8290   -2.0199   -1.2335 O.co2     1 <0>        -0.7241
     24 C17        -3.8842    0.2238    1.0053 C.2       1 <0>         0.5519
     25 O3         -3.6999   -0.0856    2.1701 O.co2     1 <0>        -0.7052
     26 O4         -4.8200    0.9462    0.7071 O.co2     1 <0>        -0.7226
     27 C18        -4.1430   -3.3405    2.3700 C.3       1 <0>        -0.1446
     28 C19        -5.0887   -4.2887    3.1056 C.3       1 <0>        -0.1079
     29 C20        -5.8611   -5.1114    2.0783 C.3       1 <0>        -0.0782
     30 C21        -4.8938   -5.9820    1.2805 C.3       1 <0>        -0.1158
     31 C22        -4.2907   -7.0578    2.1960 C.3       1 <0>        -0.1150
     32 C23        -5.7177   -6.7337    0.2492 C.2       1 <0>         0.5104
     33 O5         -5.2042   -7.6187   -0.4138 O.co2     1 <0>        -0.7219
     34 O6         -6.8924   -6.4521    0.0844 O.co2     1 <0>        -0.6970
     35 C24        -2.1701   -4.8060    2.4267 C.3       1 <0>        -0.1507
     36 H6          1.3332    1.2316   -1.6429 H         1 <0>         0.0390
     37 H7         -0.3224    0.9010   -2.2069 H         1 <0>         0.0522
     38 H8         -0.0324    1.3393   -0.5063 H         1 <0>         0.0591
     39 H9          0.9438   -1.2058   -1.8798 H         1 <0>         0.0572
     40 H10         1.6375   -1.8592    0.4094 H         1 <0>         0.0503
     41 H11         2.4777   -0.3803   -0.1150 H         1 <0>         0.0391
     42 H12         1.1121   -0.2726    1.0215 H         1 <0>         0.0581
     43 H13        -0.9682   -2.7012   -2.2137 H         1 <0>         0.1007
     44 H14        -3.6251   -3.5209   -2.4486 H         1 <0>         0.0462
     45 H15        -2.3857   -4.5492   -1.7297 H         1 <0>         0.0293
     46 H16        -5.2157   -4.0923   -0.6428 H         1 <0>         0.0961
     47 H17        -4.5180   -5.5135   -1.4081 H         1 <0>         0.0409
     48 H18        -2.6270   -1.6302    2.2411 H         1 <0>         0.1417
     49 H19        -0.9460   -2.1228    2.0388 H         1 <0>         0.0093
     50 H20        -3.5560   -2.8082    3.1385 H         1 <0>         0.0344
     51 H21        -4.7235   -2.6108    1.8261 H         1 <0>         0.1599
     52 H22        -4.5425   -4.9260    3.7898 H         1 <0>         0.0297
     53 H23        -5.8026   -3.6928    3.6859 H         1 <0>         0.0351
     54 H24        -6.5899   -5.7461    2.5856 H         1 <0>         0.0307
     55 H25        -6.3871   -4.4396    1.3981 H         1 <0>         0.0724
     56 H26        -3.8165   -6.5808    3.0537 H         1 <0>         0.0425
     57 H27        -5.0804   -7.7249    2.5419 H         1 <0>         0.0294
     58 H28        -3.5474   -7.6312    1.6421 H         1 <0>         0.0418
     59 H29        -1.4905   -5.4277    1.8438 H         1 <0>         0.0310
     60 H30        -1.5977   -4.0594    2.9772 H         1 <0>         0.0395
     61 H31        -2.7221   -5.4309    3.1289 H         1 <0>         0.0526
@<TRIPOS>BOND
     1    1    2 1
     2    1   36 1
     3    1   37 1
     4    1   38 1
     5    2    3 1
     6    2    4 1
     7    2   39 1
     8    3   40 1
     9    3   41 1
    10    3   42 1
    11    4   15 1
    12    4    5 2
    13    5    6 1
    14    5   43 1
    15    6   12 1
    16    6   19 1
    17    6    7 1
    18    7    8 1
    19    7   44 1
    20    7   45 1
    21    8    9 1
    22    8   46 1
    23    8   47 1
    24    9   10 1
    25    9   30 1
    26    9   11 1
    27   11   12 1
    28   11   27 1
    29   11   35 1
    30   12   13 1
    31   12   14 1
    32   14   15 1
    33   14   48 1
    34   14   49 1
    35   15   16 1
    36   15   17 1
    37   17   18 1
    38   17   19 1
    39   17   24 1
    40   19   20 1
    41   19   21 1
    42   21   22 2
    43   21   23 1
    44   24   25 2
    45   24   26 1
    46   27   28 1
    47   27   50 1
    48   27   51 1
    49   28   29 1
    50   28   52 1
    51   28   53 1
    52   29   30 1
    53   29   54 1
    54   29   55 1
    55   30   31 1
    56   30   32 1
    57   31   56 1
    58   31   57 1
    59   31   58 1
    60   32   33 2
    61   32   34 1
    62   35   59 1
    63   35   60 1
    64   35   61 1
@<TRIPOS>MOLECULE
ZINC04682967
   62    65     0     0     0
SMALL
USER_CHARGES

@<TRIPOS>ATOM
      1 C1         -0.0674    2.4051   -0.9915 C.3       1 <0>        -0.1420
      2 C2          0.0133    0.9733   -1.5247 C.3       1 <0>        -0.0468
      3 C3          1.0308    0.1796   -0.7028 C.3       1 <0>        -0.1397
      4 C4         -1.3427    0.3183   -1.4153 C.2       1 <0>        -0.1239
      5 C5         -2.0237   -0.1071   -2.4820 C.2       1 <0>        -0.1736
      6 C6         -3.3570   -0.7844   -2.0849 C.3       1 <0>         0.0110
      7 C7         -4.0045   -1.3016   -3.3517 C.3       1 <0>        -0.0998
      8 C8         -5.0976   -2.3220   -3.0576 C.3       1 <0>        -0.1124
      9 C9         -4.5722   -3.5102   -2.2599 C.3       1 <0>        -0.0227
     10 H1         -3.8262   -4.0140   -2.9278 H         1 <0>         0.0424
     11 C10        -3.8153   -3.1179   -1.0068 C.3       1 <0>        -0.0218
     12 C11        -2.9099   -1.9157   -1.1919 C.3       1 <0>        -0.0480
     13 H2         -1.9939   -2.3450   -1.7041 H         1 <0>         0.0379
     14 C12        -2.3565   -1.3568    0.1204 C.3       1 <0>        -0.1237
     15 C13        -2.0625    0.1360   -0.0819 C.3       1 <0>        -0.0140
     16 H3         -1.4671    0.5264    0.7348 H         1 <0>         0.0660
     17 C14        -3.3938    0.8883   -0.2115 C.3       1 <0>        -0.1416
     18 H4         -3.1831    1.9509   -0.3858 H         1 <0>         0.0540
     19 C15        -4.1448    0.3345   -1.4278 C.3       1 <0>        -0.0374
     20 H5         -4.1827    1.1755   -2.1626 H         1 <0>         0.0690
     21 C16        -5.5578    0.0172   -1.0713 C.2       1 <0>         0.4687
     22 O1         -5.8274   -0.3731    0.0399 O.2       1 <0>        -0.4361
     23 O2         -6.5299    0.1652   -1.9849 O.3       1 <0>        -0.5185
     24 C17        -4.2180    0.7546    1.0341 C.2       1 <0>         0.5265
     25 O3         -5.0890    1.5718    1.2794 O.co2     1 <0>        -0.7146
     26 O4         -4.0172   -0.1712    1.8015 O.co2     1 <0>        -0.6751
     27 C18        -4.6749   -2.9592    0.2393 C.3       1 <0>        -0.1225
     28 C19        -5.6495   -4.1230    0.4140 C.3       1 <0>        -0.1172
     29 C20        -6.5366   -4.2147   -0.8244 C.3       1 <0>        -0.0771
     30 C21        -5.6828   -4.5325   -2.0492 C.3       1 <0>        -0.1196
     31 C22        -5.1155   -5.9549   -1.9293 C.3       1 <0>        -0.1190
     32 C23        -6.6159   -4.5612   -3.2476 C.2       1 <0>         0.5080
     33 O5         -6.2066   -4.9455   -4.3298 O.co2     1 <0>        -0.7089
     34 O6         -7.7741   -4.1998   -3.1272 O.co2     1 <0>        -0.7008
     35 C24        -2.8196   -4.2789   -0.6879 C.3       1 <0>        -0.1512
     36 H6          0.9115    2.8779   -1.0704 H         1 <0>         0.0471
     37 H7         -0.7924    2.9706   -1.5770 H         1 <0>         0.0532
     38 H8         -0.3789    2.3868    0.0529 H         1 <0>         0.0592
     39 H9          0.3248    0.9916   -2.5691 H         1 <0>         0.0652
     40 H10         1.0883   -0.8405   -1.0827 H         1 <0>         0.0529
     41 H11         2.0097    0.6524   -0.7818 H         1 <0>         0.0466
     42 H12         0.7193    0.1613    0.3416 H         1 <0>         0.0586
     43 H13        -1.7111   -0.0045   -3.5001 H         1 <0>         0.1167
     44 H14        -4.4316   -0.4668   -3.9138 H         1 <0>         0.0558
     45 H15        -3.2376   -1.7627   -3.9867 H         1 <0>         0.0556
     46 H16        -5.9621   -1.8854   -2.5861 H         1 <0>         0.0683
     47 H17        -5.4171   -2.6707   -4.0622 H         1 <0>         0.0613
     48 H18        -3.0417   -1.5151    0.9373 H         1 <0>         0.1404
     49 H19        -1.4166   -1.8713    0.3530 H         1 <0>         0.0291
     50 H20        -4.0086   -2.9602    1.1194 H         1 <0>         0.0505
     51 H21        -5.2263   -2.0312    0.2369 H         1 <0>         0.1111
     52 H22        -5.1177   -5.0503    0.5866 H         1 <0>         0.0458
     53 H23        -6.2836   -3.9225    1.2853 H         1 <0>         0.0415
     54 H24        -7.2835   -4.9986   -0.6867 H         1 <0>         0.0420
     55 H25        -7.0453   -3.2615   -0.9766 H         1 <0>         0.0579
     56 H26        -4.5514   -6.0439   -1.0009 H         1 <0>         0.0440
     57 H27        -5.9347   -6.6738   -1.9271 H         1 <0>         0.0353
     58 H28        -4.4577   -6.1561   -2.7748 H         1 <0>         0.0471
     59 H29        -2.2703   -4.5449   -1.5910 H         1 <0>         0.0404
     60 H30        -2.1188   -3.9554    0.0817 H         1 <0>         0.0454
     61 H31        -3.3752   -5.1465   -0.3318 H         1 <0>         0.0573
     62 H32        -7.4118   -0.0647   -1.6616 H         1 <0>         0.3962
@<TRIPOS>BOND
     1    1    2 1
     2    1   36 1
     3    1   37 1
     4    1   38 1
     5    2    3 1
     6    2    4 1
     7    2   39 1
     8    3   40 1
     9    3   41 1
    10    3   42 1
    11    4   15 1
    12    4    5 2
    13    5    6 1
    14    5   43 1
    15    6   12 1
    16    6   19 1
    17    6    7 1
    18    7    8 1
    19    7   44 1
    20    7   45 1
    21    8    9 1
    22    8   46 1
    23    8   47 1
    24    9   10 1
    25    9   30 1
    26    9   11 1
    27   11   12 1
    28   11   27 1
    29   11   35 1
    30   12   13 1
    31   12   14 1
    32   14   15 1
    33   14   48 1
    34   14   49 1
    35   15   16 1
    36   15   17 1
    37   17   18 1
    38   17   19 1
    39   17   24 1
    40   19   20 1
    41   19   21 1
    42   21   22 2
    43   21   23 1
    44   23   62 1
    45   24   25 2
    46   24   26 1
    47   27   28 1
    48   27   50 1
    49   27   51 1
    50   28   29 1
    51   28   52 1
    52   28   53 1
    53   29   30 1
    54   29   54 1
    55   29   55 1
    56   30   31 1
    57   30   32 1
    58   31   56 1
    59   31   57 1
    60   31   58 1
    61   32   33 2
    62   32   34 1
    63   35   59 1
    64   35   60 1
    65   35   61 1
@<TRIPOS>MOLECULE
ZINC04682967
   62    65     0     0     0
SMALL
USER_CHARGES

@<TRIPOS>ATOM
      1 C1          0.3166    0.9359   -1.4346 C.3       1 <0>        -0.1419
      2 C2          0.5065   -0.5472   -1.1102 C.3       1 <0>        -0.0437
      3 C3          1.4866   -0.6928    0.0556 C.3       1 <0>        -0.1397
      4 C4         -0.8228   -1.1532   -0.7290 C.2       1 <0>        -0.1471
      5 C5         -1.3920   -2.1365   -1.4300 C.2       1 <0>        -0.1479
      6 C6         -2.7219   -2.6061   -0.7934 C.3       1 <0>         0.0162
      7 C7         -3.2369   -3.7707   -1.6120 C.3       1 <0>        -0.0893
      8 C8         -4.3033   -4.5641   -0.8666 C.3       1 <0>        -0.1133
      9 C9         -3.7934   -5.0957    0.4681 C.3       1 <0>        -0.0158
     10 H1         -2.9719   -5.8138    0.2112 H         1 <0>         0.0328
     11 C10        -3.1626   -4.0345    1.3475 C.3       1 <0>        -0.0135
     12 C11        -2.3004   -3.0456    0.5874 C.3       1 <0>        -0.0412
     13 H2         -1.3261   -3.6039    0.4293 H         1 <0>         0.0325
     14 C12        -1.8847   -1.8295    1.4175 C.3       1 <0>        -0.1207
     15 C13        -1.6428   -0.6559    0.4584 C.3       1 <0>        -0.0185
     16 H3         -1.1362    0.1577    0.9638 H         1 <0>         0.0675
     17 C14        -2.9912   -0.2022   -0.1169 C.3       1 <0>        -0.0630
     18 H4         -2.8150    0.6172   -0.8250 H         1 <0>         0.0719
     19 C15        -3.6118   -1.3793   -0.8781 C.3       1 <0>        -0.1208
     20 H5         -3.6261   -1.0659   -1.9506 H         1 <0>         0.0549
     21 C16        -5.0339   -1.5740   -0.4729 C.2       1 <0>         0.5132
     22 O1         -5.3737   -1.3641    0.6791 O.co2     1 <0>        -0.6483
     23 O2         -5.8565   -1.9430   -1.2935 O.co2     1 <0>        -0.6706
     24 C17        -3.9100    0.2805    0.9655 C.2       1 <0>         0.5218
     25 O3         -3.7069   -0.0328    2.1147 O.2       1 <0>        -0.5365
     26 O4         -4.9580    1.0607    0.6578 O.3       1 <0>        -0.5133
     27 C18        -4.1299   -3.3083    2.2714 C.3       1 <0>        -0.1403
     28 C19        -5.0619   -4.2762    2.9989 C.3       1 <0>        -0.1100
     29 C20        -5.8371   -5.0872    1.9644 C.3       1 <0>        -0.0786
     30 C21        -4.8702   -5.9366    1.1435 C.3       1 <0>        -0.1175
     31 C22        -4.2510   -7.0232    2.0354 C.3       1 <0>        -0.1177
     32 C23        -5.6974   -6.6770    0.1067 C.2       1 <0>         0.5083
     33 O5         -5.1829   -7.5464   -0.5760 O.co2     1 <0>        -0.7150
     34 O6         -6.8757   -6.4020   -0.0428 O.co2     1 <0>        -0.6958
     35 C24        -2.1456   -4.7593    2.2862 C.3       1 <0>        -0.1542
     36 H6          1.2763    1.3734   -1.7098 H         1 <0>         0.0476
     37 H7         -0.3816    1.0397   -2.2652 H         1 <0>         0.0543
     38 H8         -0.0801    1.4513   -0.5599 H         1 <0>         0.0552
     39 H9          0.9032   -1.0625   -1.9849 H         1 <0>         0.0675
     40 H10         1.0898   -0.1775    0.9303 H         1 <0>         0.0557
     41 H11         1.6219   -1.7494    0.2867 H         1 <0>         0.0539
     42 H12         2.4462   -0.2553   -0.2196 H         1 <0>         0.0466
     43 H13        -1.0002   -2.5668   -2.3278 H         1 <0>         0.1159
     44 H14        -3.6528   -3.4028   -2.5537 H         1 <0>         0.0534
     45 H15        -2.3994   -4.4336   -1.8632 H         1 <0>         0.0420
     46 H16        -5.2232   -4.0170   -0.7444 H         1 <0>         0.0925
     47 H17        -4.5215   -5.4196   -1.5397 H         1 <0>         0.0509
     48 H18        -2.6280   -1.5844    2.1587 H         1 <0>         0.1224
     49 H19        -0.9452   -2.0605    1.9335 H         1 <0>         0.0368
     50 H20        -3.5403   -2.7846    3.0439 H         1 <0>         0.0309
     51 H21        -4.7206   -2.5740    1.7451 H         1 <0>         0.1450
     52 H22        -4.5049   -4.9207    3.6674 H         1 <0>         0.0372
     53 H23        -5.7752   -3.6956    3.5954 H         1 <0>         0.0360
     54 H24        -6.5566   -5.7360    2.4671 H         1 <0>         0.0367
     55 H25        -6.3740   -4.4080    1.3003 H         1 <0>         0.0699
     56 H26        -3.7723   -6.5571    2.8966 H         1 <0>         0.0415
     57 H27        -5.0326   -7.7016    2.3772 H         1 <0>         0.0337
     58 H28        -3.5088   -7.5818    1.4652 H         1 <0>         0.0451
     59 H29        -1.4707   -5.3711    1.6875 H         1 <0>         0.0380
     60 H30        -1.5694   -4.0176    2.8393 H         1 <0>         0.0397
     61 H31        -2.6871   -5.3950    2.9868 H         1 <0>         0.0580
     62 H32        -5.4918    1.3213    1.4208 H         1 <0>         0.3891
@<TRIPOS>BOND
     1    1    2 1
     2    1   36 1
     3    1   37 1
     4    1   38 1
     5    2    3 1
     6    2    4 1
     7    2   39 1
     8    3   40 1
     9    3   41 1
    10    3   42 1
    11    4   15 1
    12    4    5 2
    13    5    6 1
    14    5   43 1
    15    6   12 1
    16    6   19 1
    17    6    7 1
    18    7    8 1
    19    7   44 1
    20    7   45 1
    21    8    9 1
    22    8   46 1
    23    8   47 1
    24    9   10 1
    25    9   30 1
    26    9   11 1
    27   11   12 1
    28   11   27 1
    29   11   35 1
    30   12   13 1
    31   12   14 1
    32   14   15 1
    33   14   48 1
    34   14   49 1
    35   15   16 1
    36   15   17 1
    37   17   18 1
    38   17   19 1
    39   17   24 1
    40   19   20 1
    41   19   21 1
    42   21   22 2
    43   21   23 1
    44   24   25 2
    45   24   26 1
    46   26   62 1
    47   27   28 1
    48   27   50 1
    49   27   51 1
    50   28   29 1
    51   28   52 1
    52   28   53 1
    53   29   30 1
    54   29   54 1
    55   29   55 1
    56   30   31 1
    57   30   32 1
    58   31   56 1
    59   31   57 1
    60   31   58 1
    61   32   33 2
    62   32   34 1
    63   35   59 1
    64   35   60 1
    65   35   61 1
