@<TRIPOS>MOLECULE
ZINC04095997
   32    33     0     0     0
SMALL
USER_CHARGES
[2-(2,4-dioxopyrimidin-1-yl)-4-hydroxy-5-(hydroxymethyl)tetrahydrofuran-3-yl]oxyphosphonic acid
@<TRIPOS>ATOM
      1 C1         -0.0162    1.3460    0.0094 C.2       1 <0>        -0.3094
      2 C2          0.0021   -0.0041    0.0020 C.2       1 <0>         0.2091
      3 N1          1.1999   -0.6655   -0.0130 N.am      1 <0>        -0.5104
      4 C3          2.3594    0.0169   -0.0204 C.2       1 <0>         0.7104
      5 O1          3.4124   -0.5909   -0.0337 O.2       1 <0>        -0.5322
      6 N2          2.3702    1.3628   -0.0128 N.am      1 <0>        -0.6582
      7 H1          3.2413    1.8539   -0.0178 H         1 <0>         0.4292
      8 C4          1.2111    2.0516    0.0015 C.2       1 <0>         0.5654
      9 O2          1.2200    3.2694    0.0084 O.2       1 <0>        -0.5457
     10 C5          1.2199   -2.1303   -0.0205 C.3       1 <0>         0.2831
     11 H2          0.2156   -2.5275    0.1272 H         1 <0>         0.1234
     12 C6          1.8275   -2.6610   -1.3440 C.3       1 <0>         0.1404
     13 H3          2.6493   -2.0268   -1.6766 H         1 <0>         0.0887
     14 C7          2.3424   -4.0600   -0.9263 C.3       1 <0>         0.0656
     15 H4          3.3107   -4.2624   -1.3841 H         1 <0>         0.0793
     16 C8          2.4783   -3.9705    0.6060 C.3       1 <0>         0.0591
     17 H5          1.8041   -4.6836    1.0802 H         1 <0>         0.0851
     18 O3          2.1219   -2.6317    0.9892 O.3       1 <0>        -0.3528
     19 C9          3.9217   -4.2662    1.0185 C.3       1 <0>         0.0777
     20 O4          4.0132   -4.2957    2.4442 O.3       1 <0>        -0.5664
     21 O5          1.3968   -5.0690   -1.2865 O.3       1 <0>        -0.5168
     22 O6          0.8264   -2.7679   -2.3580 O.3       1 <0>        -0.7199
     23 P1          0.9003   -1.9646   -3.7513 P.3       1 <0>         2.1178
     24 O7          1.0446   -0.5170   -3.4792 O.2       1 <0>        -1.1528
     25 H6         -0.9547    1.8805    0.0168 H         1 <0>         0.1679
     26 H7         -0.9243   -0.5593    0.0075 H         1 <0>         0.1749
     27 H8          4.2242   -5.2324    0.6149 H         1 <0>         0.0589
     28 H9          4.5777   -3.4880    0.6283 H         1 <0>         0.0649
     29 H10         4.9023   -4.4784    2.7776 H         1 <0>         0.3730
     30 H11         1.6686   -5.9659   -1.0481 H         1 <0>         0.3593
     31 O8          2.1669   -2.4797   -4.6013 O.3       1 <0>        -1.1955
     32 O9         -0.4494   -2.2209   -4.5908 O.3       1 <0>        -1.1730
@<TRIPOS>BOND
     1    1    8 1
     2    1    2 2
     3    1   25 1
     4    2    3 1
     5    2   26 1
     6    3    4 am
     7    3   10 1
     8    4    5 2
     9    4    6 am
    10    6    7 1
    11    6    8 am
    12    8    9 2
    13   10   11 1
    14   10   18 1
    15   10   12 1
    16   12   13 1
    17   12   14 1
    18   12   22 1
    19   14   15 1
    20   14   16 1
    21   14   21 1
    22   16   17 1
    23   16   18 1
    24   16   19 1
    25   19   20 1
    26   19   27 1
    27   19   28 1
    28   20   29 1
    29   21   30 1
    30   22   23 1
    31   23   24 2
    32   23   31 1
    33   23   32 1
@<TRIPOS>MOLECULE
ZINC04096023
   33    34     0     0     0
SMALL
USER_CHARGES
[(2R,3R,4R,5R)-2-(4-amino-2-oxo-pyrimidin-1-yl)-4-hydroxy-5-(hydroxymethyl)tetrahydrofuran-3-yl] dihydrogen phosphate
@<TRIPOS>ATOM
      1 C1         -1.2354    3.0472    0.0304 C.2       1 <0>        -0.3260
      2 C2         -2.4309    3.6830    0.0341 C.2       1 <0>         0.2298
      3 N1         -3.5774    2.9465    0.0360 N.am      1 <0>        -0.5016
      4 C3         -3.5217    1.6021    0.0279 C.2       1 <0>         0.6645
      5 O1         -4.5581    0.9587    0.0297 O.2       1 <0>        -0.5301
      6 N2         -2.3536    0.9623    0.0184 N.2       1 <0>        -0.5719
      7 C4         -1.2116    1.6374    0.0167 C.2       1 <0>         0.4632
      8 N3         -0.0111    0.9658    0.0074 N.pl3     1 <0>        -0.7548
      9 C5         -4.8773    3.6220    0.0463 C.3       1 <0>         0.2697
     10 H1         -4.7481    4.6990    0.1533 H         1 <0>         0.1141
     11 C6         -5.6735    3.2931   -1.2422 C.3       1 <0>         0.1424
     12 H2         -5.5141    2.2581   -1.5445 H         1 <0>         0.0935
     13 C7         -7.1359    3.5163   -0.7857 C.3       1 <0>         0.0656
     14 H3         -7.7864    2.7455   -1.1989 H         1 <0>         0.0789
     15 C8         -7.0730    3.4066    0.7502 C.3       1 <0>         0.0594
     16 H4         -7.3677    4.3538    1.2018 H         1 <0>         0.0835
     17 O2         -5.7118    3.1025    1.1038 O.3       1 <0>        -0.3512
     18 C9         -7.9994    2.2876    1.2302 C.3       1 <0>         0.0775
     19 O3         -8.0240    2.2695    2.6589 O.3       1 <0>        -0.5666
     20 O4         -7.5893    4.8139   -1.1763 O.3       1 <0>        -0.5180
     21 O5         -5.3261    4.1899   -2.2992 O.3       1 <0>        -0.7221
     22 P1         -4.6974    3.6963   -3.6968 P.3       1 <0>         2.1160
     23 O6         -5.5853    2.6809   -4.3059 O.2       1 <0>        -1.1607
     24 H5         -0.3143    3.6111    0.0332 H         1 <0>         0.1494
     25 H6         -2.4752    4.7621    0.0402 H         1 <0>         0.1692
     26 H7          0.0554    0.3907    0.8228 H         1 <0>         0.3595
     27 H8          0.8223    1.4622    0.0021 H         1 <0>         0.3711
     28 H9         -9.0066    2.4623    0.8517 H         1 <0>         0.0581
     29 H10        -7.6336    1.3295    0.8609 H         1 <0>         0.0663
     30 H11        -8.5928    1.5832    3.0338 H         1 <0>         0.3725
     31 H12        -8.5002    5.0073   -0.9154 H         1 <0>         0.3582
     32 O7         -4.5546    4.9520   -4.6942 O.3       1 <0>        -1.1748
     33 O8         -3.2457    3.0516   -3.4343 O.3       1 <0>        -1.1845
@<TRIPOS>BOND
     1    1    7 1
     2    1    2 2
     3    1   24 1
     4    2    3 1
     5    2   25 1
     6    3    4 am
     7    3    9 1
     8    4    5 2
     9    4    6 1
    10    6    7 2
    11    7    8 1
    12    8   26 1
    13    8   27 1
    14    9   10 1
    15    9   17 1
    16    9   11 1
    17   11   12 1
    18   11   13 1
    19   11   21 1
    20   13   14 1
    21   13   15 1
    22   13   20 1
    23   15   16 1
    24   15   17 1
    25   15   18 1
    26   18   19 1
    27   18   28 1
    28   18   29 1
    29   19   30 1
    30   20   31 1
    31   21   22 1
    32   22   23 2
    33   22   32 1
    34   22   33 1
