@<TRIPOS>MOLECULE
ZINC13998530
   48    51     0     0     0
SMALL
USER_CHARGES
N-[[2-(4-amino-1,2,5-oxadiazol-3-yl)-1-ethyl-imidazo[5,4-d]pyridin-7-yl]methyl]piperidin-4-amine
@<TRIPOS>ATOM
      1 C1          1.5587    0.3111   -0.1080 C.3       1 <0>        -0.1729
      2 C2          0.2652    1.0542   -0.4478 C.3       1 <0>         0.0990
      3 N1         -0.4854    1.3157    0.7828 N.pl3     1 <0>        -0.4686
      4 C3         -0.4224    2.4543    1.5497 C.ar      1 <0>         0.0959
      5 C4          0.2805    3.6520    1.4788 C.ar      1 <0>        -0.1364
      6 C5          0.0830    4.5977    2.4615 C.ar      1 <0>         0.1287
      7 N2         -0.7570    4.3848    3.4610 N.ar      1 <0>        -0.4799
      8 C6         -1.4527    3.2734    3.5731 C.ar      1 <0>         0.1941
      9 C7         -1.3129    2.2569    2.6252 C.ar      1 <0>         0.0004
     10 N3         -1.8585    1.0289    2.4690 N.2       1 <0>        -0.4499
     11 C8         -1.3766    0.4683    1.3870 C.2       1 <0>         0.3728
     12 C9         -1.7401   -0.8779    0.8921 C.2       1 <0>         0.0023
     13 C10        -2.6825   -1.8587    1.4795 C.2       1 <0>         0.3357
     14 N4         -2.6148   -2.8606    0.6343 N.2       1 <0>        -0.4153
     15 O1         -1.8331   -2.5921   -0.2473 O.3       1 <0>         0.3396
     16 N5         -1.3034   -1.5081   -0.1774 N.2       1 <0>        -0.3271
     17 N6         -3.4473   -1.7455    2.6331 N.pl3     1 <0>        -0.8250
     18 C11         1.2410    3.9115    0.3469 C.3       1 <0>         0.0915
     19 N7          0.4927    4.3449   -0.8406 N.3       1 <0>        -0.6619
     20 C12         1.3822    4.4840   -2.0015 C.3       1 <0>         0.0601
     21 C13         2.0249    5.8738   -1.9900 C.3       1 <0>        -0.1386
     22 C14         2.9024    6.0349   -3.2334 C.3       1 <0>        -0.0005
     23 N8          2.0812    5.8656   -4.4389 N.4       1 <0>        -0.5357
     24 C15         1.4918    4.5218   -4.4955 C.3       1 <0>         0.0005
     25 C16         0.5721    4.3156   -3.2899 C.3       1 <0>        -0.1532
     26 H1          2.1223    0.1147   -1.0320 H         1 <0>         0.0835
     27 H2          1.3154   -0.6428    0.3829 H         1 <0>         0.0718
     28 H3          2.1683    0.9271    0.5695 H         1 <0>         0.0631
     29 H4          0.5085    2.0081   -0.9386 H         1 <0>         0.0828
     30 H5         -0.3444    0.4382   -1.1253 H         1 <0>         0.1085
     31 H6          0.6248    5.5308    2.4149 H         1 <0>         0.1643
     32 H7         -2.1261    3.1422    4.4072 H         1 <0>         0.1735
     33 H8         -4.1062   -2.5714    2.9394 H         1 <0>         0.4441
     34 H9         -3.3942   -0.8300    3.2405 H         1 <0>         0.4554
     35 H10         1.9502    4.6992    0.6411 H         1 <0>         0.0956
     36 H11         1.7932    2.9887    0.1157 H         1 <0>         0.0477
     37 H12        -0.2824    3.6011   -1.0772 H         1 <0>         0.3446
     38 H13         2.1485    3.6993   -1.9174 H         1 <0>         0.0618
     39 H14         1.2375    6.6419   -1.9927 H         1 <0>         0.0991
     40 H15         2.6423    5.9848   -1.0864 H         1 <0>         0.1091
     41 H16         3.3541    7.0379   -3.2359 H         1 <0>         0.1357
     42 H17         3.6974    5.2747   -3.2221 H         1 <0>         0.1252
     43 H18         1.2675    6.6058   -4.4351 H         1 <0>         0.4517
     44 H19         0.9095    4.4156   -5.4227 H         1 <0>         0.1362
     45 H20         2.2934    3.7687   -4.4776 H         1 <0>         0.1264
     46 H21         0.1423    3.3036   -3.3232 H         1 <0>         0.1068
     47 H22        -0.2383    5.0590   -3.3133 H         1 <0>         0.1012
     48 H23         2.7063    6.0125   -5.3320 H         1 <0>         0.4559
@<TRIPOS>BOND
     1    1    2 1
     2    1   26 1
     3    1   27 1
     4    1   28 1
     5    2    3 1
     6    2   29 1
     7    2   30 1
     8    3   11 1
     9    3    4 1
    10    4    9 ar
    11    4    5 ar
    12    5    6 ar
    13    5   18 1
    14    6    7 ar
    15    6   31 1
    16    7    8 ar
    17    8    9 ar
    18    8   32 1
    19    9   10 1
    20   10   11 2
    21   11   12 1
    22   12   16 2
    23   12   13 1
    24   13   14 2
    25   13   17 1
    26   14   15 1
    27   15   16 1
    28   17   33 1
    29   17   34 1
    30   18   19 1
    31   18   35 1
    32   18   36 1
    33   19   20 1
    34   19   37 1
    35   20   25 1
    36   20   21 1
    37   20   38 1
    38   21   22 1
    39   21   39 1
    40   21   40 1
    41   22   23 1
    42   22   41 1
    43   22   42 1
    44   23   24 1
    45   23   43 1
    46   23   48 1
    47   24   25 1
    48   24   44 1
    49   24   45 1
    50   25   46 1
    51   25   47 1
@<TRIPOS>MOLECULE
ZINC13998530
   50    53     0     0     0
SMALL
USER_CHARGES
N-[[2-(4-amino-1,2,5-oxadiazol-3-yl)-1-ethyl-imidazo[5,4-d]pyridin-7-yl]methyl]piperidin-4-amine
@<TRIPOS>ATOM
      1 C1          1.5587    0.3111   -0.1080 C.3       1 <0>        -0.1879
      2 C2          0.2652    1.0542   -0.4478 C.3       1 <0>         0.0907
      3 N1         -0.4854    1.3157    0.7828 N.pl3     1 <0>        -0.4320
      4 C3         -0.4224    2.4543    1.5497 C.ar      1 <0>         0.1403
      5 C4          0.2805    3.6520    1.4788 C.ar      1 <0>        -0.2050
      6 C5          0.0830    4.5977    2.4615 C.ar      1 <0>         0.2011
      7 N2         -0.7570    4.3848    3.4610 N.ar      1 <0>        -0.4354
      8 C6         -1.4527    3.2734    3.5731 C.ar      1 <0>         0.2433
      9 C7         -1.3129    2.2569    2.6252 C.ar      1 <0>         0.0004
     10 C8         -1.3766    0.4683    1.3870 C.cat     1 <0>         0.5282
     11 C9         -1.7401   -0.8779    0.8921 C.2       1 <0>        -0.0864
     12 C10        -2.6825   -1.8587    1.4795 C.2       1 <0>         0.3373
     13 N3         -2.6148   -2.8606    0.6343 N.2       1 <0>        -0.3540
     14 O1         -1.8331   -2.5921   -0.2473 O.3       1 <0>         0.4261
     15 N4         -1.3034   -1.5081   -0.1774 N.2       1 <0>        -0.2841
     16 N5         -3.4473   -1.7455    2.6331 N.pl3     1 <0>        -0.7914
     17 C11         1.2410    3.9115    0.3469 C.3       1 <0>         0.0409
     18 C12         1.3822    4.4840   -2.0015 C.3       1 <0>         0.0090
     19 C13         2.0249    5.8738   -1.9900 C.3       1 <0>        -0.1710
     20 C14         2.9024    6.0349   -3.2334 C.3       1 <0>         0.0014
     21 C15         1.4918    4.5218   -4.4955 C.3       1 <0>         0.0029
     22 C16         0.5721    4.3156   -3.2899 C.3       1 <0>        -0.1754
     23 H1          2.1915    0.9474    0.5107 H         1 <0>         0.0766
     24 H2          1.3205   -0.6031    0.4356 H         1 <0>         0.0880
     25 H3          2.0858    0.0597   -1.0284 H         1 <0>         0.1156
     26 H4          0.5062    1.9994   -0.9342 H         1 <0>         0.0840
     27 H5         -0.3389    0.4438   -1.1190 H         1 <0>         0.1418
     28 H6          0.6248    5.5308    2.4149 H         1 <0>         0.2015
     29 H7         -2.1261    3.1422    4.4072 H         1 <0>         0.2090
     30 H8         -3.4005   -0.9382    3.1687 H         1 <0>         0.4102
     31 H9         -4.0283   -2.4737    2.9032 H         1 <0>         0.4460
     32 H10         1.9437    4.6920    0.6384 H         1 <0>         0.1710
     33 H11         1.7882    2.9970    0.1179 H         1 <0>         0.1475
     34 H12         2.1599    3.7216   -1.9579 H         1 <0>         0.1609
     35 H13         1.2451    6.6354   -1.9938 H         1 <0>         0.1184
     36 H14         2.6377    5.9839   -1.0953 H         1 <0>         0.1392
     37 H15         3.6903    5.2817   -3.2219 H         1 <0>         0.1457
     38 H16         3.3501    7.0287   -3.2354 H         1 <0>         0.1589
     39 H17         2.2862    3.7758   -4.4782 H         1 <0>         0.1457
     40 H18         0.9150    4.4169   -5.4145 H         1 <0>         0.1578
     41 H19         0.1469    3.3125   -3.3239 H         1 <0>         0.1333
     42 H20        -0.2310    5.0522   -3.3137 H         1 <0>         0.1182
     43 N6          0.4822    4.3468   -0.8408 N.4       1 <0>        -0.5258
     44 H21         0.0394    5.2526   -0.6466 H         1 <0>         0.4455
     45 H22        -0.2418    3.6507   -1.0540 H         1 <0>         0.4274
     46 N7          2.0795    5.8742   -4.4473 N.4       1 <0>        -0.5237
     47 H23         2.6682    6.0169   -5.2763 H         1 <0>         0.4578
     48 H24         1.3252    6.5707   -4.4392 H         1 <0>         0.4401
     49 N8         -1.8590    1.0286    2.4695 N.pl3     1 <0>        -0.4723
     50 H25        -2.5457    0.6011    3.1020 H         1 <0>         0.4828
@<TRIPOS>BOND
     1    1    2 1
     2    1   23 1
     3    1   24 1
     4    1   25 1
     5    2    3 1
     6    2   26 1
     7    2   27 1
     8    3   10 1
     9    3    4 1
    10    4    9 ar
    11    4    5 ar
    12    5    6 ar
    13    5   17 1
    14    6    7 ar
    15    6   28 1
    16    7    8 ar
    17    8    9 ar
    18    8   29 1
    19    9   49 1
    20   10   11 1
    21   10   49 2
    22   11   15 2
    23   11   12 1
    24   12   13 2
    25   12   16 1
    26   13   14 1
    27   14   15 1
    28   16   30 1
    29   16   31 1
    30   17   32 1
    31   17   33 1
    32   17   43 1
    33   18   22 1
    34   18   19 1
    35   18   34 1
    36   18   43 1
    37   19   20 1
    38   19   35 1
    39   19   36 1
    40   20   37 1
    41   20   38 1
    42   20   46 1
    43   21   22 1
    44   21   39 1
    45   21   40 1
    46   21   46 1
    47   22   41 1
    48   22   42 1
    49   43   44 1
    50   43   45 1
    51   46   47 1
    52   46   48 1
    53   49   50 1
@<TRIPOS>MOLECULE
ZINC13998530
   48    51     0     0     0
SMALL
USER_CHARGES
N-[[2-(4-amino-1,2,5-oxadiazol-3-yl)-1-ethyl-imidazo[5,4-d]pyridin-7-yl]methyl]piperidin-4-amine
@<TRIPOS>ATOM
      1 C1          1.5587    0.3111   -0.1080 C.3       1 <0>        -0.1786
      2 C2          0.2652    1.0542   -0.4478 C.3       1 <0>         0.0984
      3 N1         -0.4854    1.3157    0.7828 N.pl3     1 <0>        -0.4740
      4 C3         -0.4224    2.4543    1.5497 C.ar      1 <0>         0.0984
      5 C4          0.2805    3.6520    1.4788 C.ar      1 <0>        -0.2089
      6 C5          0.0830    4.5977    2.4615 C.ar      1 <0>         0.1545
      7 N2         -0.7570    4.3848    3.4610 N.ar      1 <0>        -0.4785
      8 C6         -1.4527    3.2734    3.5731 C.ar      1 <0>         0.2265
      9 C7         -1.3129    2.2569    2.6252 C.ar      1 <0>         0.0045
     10 N3         -1.8585    1.0289    2.4690 N.2       1 <0>        -0.4438
     11 C8         -1.3766    0.4683    1.3870 C.2       1 <0>         0.3923
     12 C9         -1.7401   -0.8779    0.8921 C.2       1 <0>        -0.0123
     13 C10        -2.6825   -1.8587    1.4795 C.2       1 <0>         0.3390
     14 N4         -2.6148   -2.8606    0.6343 N.2       1 <0>        -0.4099
     15 O1         -1.8331   -2.5921   -0.2473 O.3       1 <0>         0.3511
     16 N5         -1.3034   -1.5081   -0.1774 N.2       1 <0>        -0.3239
     17 N6         -3.4473   -1.7455    2.6331 N.pl3     1 <0>        -0.8239
     18 C11         1.2410    3.9115    0.3469 C.3       1 <0>         0.0492
     19 N7          0.4927    4.3449   -0.8406 N.4       1 <0>        -0.5443
     20 C12         1.3822    4.4840   -2.0015 C.3       1 <0>         0.0286
     21 C13         2.0249    5.8738   -1.9900 C.3       1 <0>        -0.1779
     22 C14         2.9024    6.0349   -3.2334 C.3       1 <0>         0.0501
     23 N8          2.0812    5.8656   -4.4389 N.3       1 <0>        -0.6639
     24 C15         1.4918    4.5218   -4.4955 C.3       1 <0>         0.0503
     25 C16         0.5721    4.3156   -3.2899 C.3       1 <0>        -0.1817
     26 H1          2.1223    0.1147   -1.0320 H         1 <0>         0.0939
     27 H2          1.3154   -0.6428    0.3829 H         1 <0>         0.0792
     28 H3          2.1683    0.9271    0.5695 H         1 <0>         0.0650
     29 H4          0.5085    2.0081   -0.9386 H         1 <0>         0.0660
     30 H5         -0.3444    0.4382   -1.1253 H         1 <0>         0.1214
     31 H6          0.6248    5.5308    2.4149 H         1 <0>         0.1741
     32 H7         -2.1261    3.1422    4.4072 H         1 <0>         0.1835
     33 H8         -4.1062   -2.5714    2.9394 H         1 <0>         0.4473
     34 H9         -3.3942   -0.8300    3.2405 H         1 <0>         0.4545
     35 H10         1.9502    4.6992    0.6411 H         1 <0>         0.1484
     36 H11         1.7932    2.9887    0.1157 H         1 <0>         0.1304
     37 H12        -0.2824    3.6011   -1.0772 H         1 <0>         0.4360
     38 H13         2.1485    3.6993   -1.9174 H         1 <0>         0.1334
     39 H14         1.2375    6.6419   -1.9927 H         1 <0>         0.0911
     40 H15         2.6423    5.9848   -1.0864 H         1 <0>         0.0950
     41 H16         3.3541    7.0379   -3.2359 H         1 <0>         0.1018
     42 H17         3.6974    5.2747   -3.2221 H         1 <0>         0.0861
     43 H18         0.9095    4.4156   -5.4227 H         1 <0>         0.1017
     44 H19         2.2934    3.7687   -4.4776 H         1 <0>         0.0861
     45 H20         0.1423    3.3036   -3.3232 H         1 <0>         0.0920
     46 H21        -0.2383    5.0590   -3.3133 H         1 <0>         0.0912
     47 H22         1.2675    6.6058   -4.4351 H         1 <0>         0.3507
     48 H23         0.0189    5.3173   -0.6407 H         1 <0>         0.4498
@<TRIPOS>BOND
     1    1    2 1
     2    1   26 1
     3    1   27 1
     4    1   28 1
     5    2    3 1
     6    2   29 1
     7    2   30 1
     8    3   11 1
     9    3    4 1
    10    4    9 ar
    11    4    5 ar
    12    5    6 ar
    13    5   18 1
    14    6    7 ar
    15    6   31 1
    16    7    8 ar
    17    8    9 ar
    18    8   32 1
    19    9   10 1
    20   10   11 2
    21   11   12 1
    22   12   16 2
    23   12   13 1
    24   13   14 2
    25   13   17 1
    26   14   15 1
    27   15   16 1
    28   17   33 1
    29   17   34 1
    30   18   19 1
    31   18   35 1
    32   18   36 1
    33   19   20 1
    34   19   37 1
    35   19   48 1
    36   20   25 1
    37   20   21 1
    38   20   38 1
    39   21   22 1
    40   21   39 1
    41   21   40 1
    42   22   23 1
    43   22   41 1
    44   22   42 1
    45   23   24 1
    46   23   47 1
    47   24   25 1
    48   24   43 1
    49   24   44 1
    50   25   45 1
    51   25   46 1
