@<TRIPOS>MOLECULE
ZINC02043204
   48    50     0     0     0
SMALL
USER_CHARGES

@<TRIPOS>ATOM
      1 C1          2.5162    0.9496    1.4171 C.ar      1 <0>        -0.1558
      2 C2          1.8179    1.8754    0.7027 C.ar      1 <0>        -0.0089
      3 C3          0.8924    1.4496   -0.2625 C.ar      1 <0>        -0.1400
      4 C4          0.1441    2.3570   -1.0300 C.ar      1 <0>         0.1716
      5 N1         -0.7096    1.9109   -1.9214 N.ar      1 <0>        -0.4887
      6 C5         -0.9082    0.6184   -2.1416 C.ar      1 <0>         0.1175
      7 C6         -0.2327   -0.3410   -1.4505 C.ar      1 <0>        -0.1972
      8 C7          0.7007    0.0595   -0.4769 C.ar      1 <0>         0.0581
      9 C8          1.4373   -0.8645    0.2774 C.ar      1 <0>        -0.6935
     10 C9          2.3271   -0.4146    1.2059 C.ar      1 <0>         0.0350
     11 S1          1.2137   -2.5943    0.0269 S.o2      1 <0>         2.6977
     12 O1          2.1244   -3.2517    0.8974 O.2       1 <0>        -0.9448
     13 O2         -0.1865   -2.8329    0.0680 O.2       1 <0>        -0.9312
     14 N2          1.7064   -2.9332   -1.5173 N.pl3     1 <0>        -1.1162
     15 C10         3.1062   -2.7326   -1.9002 C.3       1 <0>         0.0916
     16 C11         3.3893   -3.4769   -3.2066 C.3       1 <0>        -0.0177
     17 N3          4.7929   -3.2757   -3.5905 N.4       1 <0>        -0.5066
     18 C12         5.0647   -3.9903   -4.8449 C.3       1 <0>         0.0395
     19 C13         6.5046   -3.7840   -5.2387 C.2       1 <0>        -0.2534
     20 C14         7.2882   -4.8305   -5.4586 C.2       1 <0>        -0.0124
     21 C15         8.7005   -4.6281   -5.8449 C.ar      1 <0>        -0.0865
     22 C16         9.2134   -3.3367   -5.9733 C.ar      1 <0>        -0.0932
     23 C17        10.5324   -3.1541   -6.3336 C.ar      1 <0>        -0.0930
     24 C18        11.3467   -4.2489   -6.5682 C.ar      1 <0>        -0.0711
     25 C19        10.8435   -5.5324   -6.4424 C.ar      1 <0>        -0.0912
     26 C20         9.5277   -5.7277   -6.0770 C.ar      1 <0>        -0.0822
     27 Br1        13.1533   -3.9899   -7.0630 Br        1 <0>        -0.0276
     28 H1          3.2315    1.2784    2.1565 H         1 <0>         0.1450
     29 H2          1.9750    2.9294    0.8779 H         1 <0>         0.1486
     30 H3          0.2706    3.4199   -0.8866 H         1 <0>         0.1731
     31 H4         -1.6264    0.3180   -2.8902 H         1 <0>         0.1633
     32 H5         -0.4102   -1.3883   -1.6456 H         1 <0>         0.1411
     33 H6          2.8949   -1.1263    1.7868 H         1 <0>         0.1512
     34 H7          1.0683   -3.2645   -2.1683 H         1 <0>         0.4272
     35 H8          3.2957   -1.6683   -2.0399 H         1 <0>         0.0890
     36 H9          3.7565   -3.1173   -1.1145 H         1 <0>         0.1050
     37 H10         3.1998   -4.5411   -3.0669 H         1 <0>         0.1445
     38 H11         2.7390   -3.0921   -3.9922 H         1 <0>         0.1424
     39 H12         4.9683   -2.2905   -3.7199 H         1 <0>         0.4308
     40 H13         4.8752   -5.0546   -4.7051 H         1 <0>         0.1348
     41 H14         4.4144   -3.6056   -5.6305 H         1 <0>         0.1403
     42 H15         6.8982   -2.7835   -5.3419 H         1 <0>         0.1396
     43 H16         6.8946   -5.8309   -5.3555 H         1 <0>         0.1348
     44 H17         8.5789   -2.4819   -5.7913 H         1 <0>         0.1337
     45 H18        10.9305   -2.1552   -6.4334 H         1 <0>         0.1407
     46 H19        11.4834   -6.3826   -6.6269 H         1 <0>         0.1428
     47 H20         9.1374   -6.7295   -5.9748 H         1 <0>         0.1397
     48 H21         5.3949   -3.6319   -2.8633 H         1 <0>         0.4327
@<TRIPOS>BOND
     1    1   10 ar
     2    1    2 ar
     3    1   28 1
     4    2    3 ar
     5    2   29 1
     6    3    8 ar
     7    3    4 ar
     8    4    5 ar
     9    4   30 1
    10    5    6 ar
    11    6    7 ar
    12    6   31 1
    13    7    8 ar
    14    7   32 1
    15    8    9 ar
    16    9   10 ar
    17    9   11 1
    18   10   33 1
    19   11   12 2
    20   11   13 2
    21   11   14 1
    22   14   15 1
    23   14   34 1
    24   15   16 1
    25   15   35 1
    26   15   36 1
    27   16   17 1
    28   16   37 1
    29   16   38 1
    30   17   18 1
    31   17   39 1
    32   17   48 1
    33   18   19 1
    34   18   40 1
    35   18   41 1
    36   19   20 2
    37   19   42 1
    38   20   21 1
    39   20   43 1
    40   21   26 ar
    41   21   22 ar
    42   22   23 ar
    43   22   44 1
    44   23   24 ar
    45   23   45 1
    46   24   25 ar
    47   24   27 1
    48   25   26 ar
    49   25   46 1
    50   26   47 1
@<TRIPOS>MOLECULE
ZINC00006989
   40    41     0     0     0
SMALL
USER_CHARGES

@<TRIPOS>ATOM
      1 C1         -0.0212    1.5274    0.0295 C.3       1 <0>        -0.1868
      2 C2         -0.0012   -0.0024    0.0209 C.3       1 <0>         0.0329
      3 H1         -1.0239   -0.3792    0.0336 H         1 <0>         0.1427
      4 C3          0.7447   -0.5096    1.2567 C.3       1 <0>        -0.1130
      5 C4          2.1802    0.0193    1.2388 C.3       1 <0>        -0.1460
      6 C5          2.9261   -0.4879    2.4746 C.3       1 <0>        -0.0980
      7 C6          2.9462   -2.0177    2.4660 C.3       1 <0>        -0.1139
      8 C7          1.5106   -2.5467    2.4839 C.3       1 <0>        -0.1118
      9 C8          0.7648   -2.0395    1.2481 C.3       1 <0>        -0.1341
     10 C9          3.6452   -2.5039    1.2227 C.2       1 <0>         0.5220
     11 O1          4.0842   -1.7055    0.4223 O.2       1 <0>        -0.5211
     12 N1          3.7826   -3.8261    1.0002 N.am      1 <0>        -0.6683
     13 C10         4.3419   -4.2780   -0.1958 C.ar      1 <0>         0.1766
     14 C11         5.3665   -3.5677   -0.8193 C.ar      1 <0>        -0.1772
     15 C12         5.8925   -4.0480   -2.0007 C.ar      1 <0>         0.1192
     16 N2          5.4378   -5.1635   -2.5396 N.ar      1 <0>        -0.4895
     17 C13         4.4694   -5.8640   -1.9800 C.ar      1 <0>         0.1213
     18 C14         3.8943   -5.4544   -0.7948 C.ar      1 <0>        -0.2009
     19 N3          0.6803   -0.4764   -1.1911 N.4       1 <0>        -0.6406
     20 H2          1.0015    1.9043    0.0167 H         1 <0>         0.0857
     21 H3         -0.5526    1.8888   -0.8510 H         1 <0>         0.0831
     22 H4         -0.5268    1.8791    0.9288 H         1 <0>         0.1077
     23 H5          0.2391   -0.1579    2.1560 H         1 <0>         0.1206
     24 H6          2.6859   -0.3323    0.3395 H         1 <0>         0.0852
     25 H7          2.1660    1.1092    1.2449 H         1 <0>         0.0829
     26 H8          3.9488   -0.1110    2.4619 H         1 <0>         0.0827
     27 H9          2.4205   -0.1362    3.3740 H         1 <0>         0.0826
     28 H10         3.4775   -2.3791    3.3465 H         1 <0>         0.1134
     29 H11         1.5249   -3.6366    2.4778 H         1 <0>         0.0792
     30 H12         1.0050   -2.1950    3.3833 H         1 <0>         0.0918
     31 H13        -0.2579   -2.4163    1.2609 H         1 <0>         0.0866
     32 H14         1.2704   -2.3912    0.3488 H         1 <0>         0.0540
     33 H15         3.4928   -4.4636    1.6714 H         1 <0>         0.4174
     34 H16         5.7430   -2.6539   -0.3838 H         1 <0>         0.1497
     35 H17         6.6863   -3.5040   -2.4909 H         1 <0>         0.1619
     36 H18         4.1259   -6.7718   -2.4535 H         1 <0>         0.1630
     37 H19         3.1054   -6.0348   -0.3398 H         1 <0>         0.1388
     38 H20         1.6270   -0.1275   -1.2030 H         1 <0>         0.4337
     39 H21         0.6935   -1.4853   -1.1968 H         1 <0>         0.4310
     40 H22         0.1884   -0.1419   -2.0062 H         1 <0>         0.4354
@<TRIPOS>BOND
     1    1    2 1
     2    1   20 1
     3    1   21 1
     4    1   22 1
     5    2    3 1
     6    2    4 1
     7    2   19 1
     8    4    9 1
     9    4    5 1
    10    4   23 1
    11    5    6 1
    12    5   24 1
    13    5   25 1
    14    6    7 1
    15    6   26 1
    16    6   27 1
    17    7    8 1
    18    7   10 1
    19    7   28 1
    20    8    9 1
    21    8   29 1
    22    8   30 1
    23    9   31 1
    24    9   32 1
    25   10   11 2
    26   10   12 am
    27   12   13 1
    28   12   33 1
    29   13   18 ar
    30   13   14 ar
    31   14   15 ar
    32   14   34 1
    33   15   16 ar
    34   15   35 1
    35   16   17 ar
    36   17   18 ar
    37   17   36 1
    38   18   37 1
    39   19   38 1
    40   19   39 1
    41   19   40 1
