@<TRIPOS>MOLECULE
ZINC02043204
   48    50     0     0     0
SMALL
USER_CHARGES

@<TRIPOS>ATOM
      1 C1          2.5162    0.9496    1.4171 C.ar      1 <0>        -0.1558
      2 C2          1.8179    1.8754    0.7027 C.ar      1 <0>        -0.0089
      3 C3          0.8924    1.4496   -0.2625 C.ar      1 <0>        -0.1400
      4 C4          0.1441    2.3570   -1.0300 C.ar      1 <0>         0.1716
      5 N1         -0.7096    1.9109   -1.9214 N.ar      1 <0>        -0.4887
      6 C5         -0.9082    0.6184   -2.1416 C.ar      1 <0>         0.1175
      7 C6         -0.2327   -0.3410   -1.4505 C.ar      1 <0>        -0.1972
      8 C7          0.7007    0.0595   -0.4769 C.ar      1 <0>         0.0581
      9 C8          1.4373   -0.8645    0.2774 C.ar      1 <0>        -0.6935
     10 C9          2.3271   -0.4146    1.2059 C.ar      1 <0>         0.0350
     11 S1          1.2137   -2.5943    0.0269 S.o2      1 <0>         2.6977
     12 O1          2.1244   -3.2517    0.8974 O.2       1 <0>        -0.9448
     13 O2         -0.1865   -2.8329    0.0680 O.2       1 <0>        -0.9312
     14 N2          1.7064   -2.9332   -1.5173 N.pl3     1 <0>        -1.1162
     15 C10         3.1062   -2.7326   -1.9002 C.3       1 <0>         0.0916
     16 C11         3.3893   -3.4769   -3.2066 C.3       1 <0>        -0.0177
     17 N3          4.7929   -3.2757   -3.5905 N.4       1 <0>        -0.5066
     18 C12         5.0647   -3.9903   -4.8449 C.3       1 <0>         0.0395
     19 C13         6.5046   -3.7840   -5.2387 C.2       1 <0>        -0.2534
     20 C14         7.2882   -4.8305   -5.4586 C.2       1 <0>        -0.0124
     21 C15         8.7005   -4.6281   -5.8449 C.ar      1 <0>        -0.0865
     22 C16         9.2134   -3.3367   -5.9733 C.ar      1 <0>        -0.0932
     23 C17        10.5324   -3.1541   -6.3336 C.ar      1 <0>        -0.0930
     24 C18        11.3467   -4.2489   -6.5682 C.ar      1 <0>        -0.0711
     25 C19        10.8435   -5.5324   -6.4424 C.ar      1 <0>        -0.0912
     26 C20         9.5277   -5.7277   -6.0770 C.ar      1 <0>        -0.0822
     27 Br1        13.1533   -3.9899   -7.0630 Br        1 <0>        -0.0276
     28 H1          3.2315    1.2784    2.1565 H         1 <0>         0.1450
     29 H2          1.9750    2.9294    0.8779 H         1 <0>         0.1486
     30 H3          0.2706    3.4199   -0.8866 H         1 <0>         0.1731
     31 H4         -1.6264    0.3180   -2.8902 H         1 <0>         0.1633
     32 H5         -0.4102   -1.3883   -1.6456 H         1 <0>         0.1411
     33 H6          2.8949   -1.1263    1.7868 H         1 <0>         0.1512
     34 H7          1.0683   -3.2645   -2.1683 H         1 <0>         0.4272
     35 H8          3.2957   -1.6683   -2.0399 H         1 <0>         0.0890
     36 H9          3.7565   -3.1173   -1.1145 H         1 <0>         0.1050
     37 H10         3.1998   -4.5411   -3.0669 H         1 <0>         0.1445
     38 H11         2.7390   -3.0921   -3.9922 H         1 <0>         0.1424
     39 H12         4.9683   -2.2905   -3.7199 H         1 <0>         0.4308
     40 H13         4.8752   -5.0546   -4.7051 H         1 <0>         0.1348
     41 H14         4.4144   -3.6056   -5.6305 H         1 <0>         0.1403
     42 H15         6.8982   -2.7835   -5.3419 H         1 <0>         0.1396
     43 H16         6.8946   -5.8309   -5.3555 H         1 <0>         0.1348
     44 H17         8.5789   -2.4819   -5.7913 H         1 <0>         0.1337
     45 H18        10.9305   -2.1552   -6.4334 H         1 <0>         0.1407
     46 H19        11.4834   -6.3826   -6.6269 H         1 <0>         0.1428
     47 H20         9.1374   -6.7295   -5.9748 H         1 <0>         0.1397
     48 H21         5.3949   -3.6319   -2.8633 H         1 <0>         0.4327
@<TRIPOS>BOND
     1    1   10 ar
     2    1    2 ar
     3    1   28 1
     4    2    3 ar
     5    2   29 1
     6    3    8 ar
     7    3    4 ar
     8    4    5 ar
     9    4   30 1
    10    5    6 ar
    11    6    7 ar
    12    6   31 1
    13    7    8 ar
    14    7   32 1
    15    8    9 ar
    16    9   10 ar
    17    9   11 1
    18   10   33 1
    19   11   12 2
    20   11   13 2
    21   11   14 1
    22   14   15 1
    23   14   34 1
    24   15   16 1
    25   15   35 1
    26   15   36 1
    27   16   17 1
    28   16   37 1
    29   16   38 1
    30   17   18 1
    31   17   39 1
    32   17   48 1
    33   18   19 1
    34   18   40 1
    35   18   41 1
    36   19   20 2
    37   19   42 1
    38   20   21 1
    39   20   43 1
    40   21   26 ar
    41   21   22 ar
    42   22   23 ar
    43   22   44 1
    44   23   24 ar
    45   23   45 1
    46   24   25 ar
    47   24   27 1
    48   25   26 ar
    49   25   46 1
    50   26   47 1
@<TRIPOS>MOLECULE
ZINC00006989
   40    41     0     0     0
SMALL
USER_CHARGES

@<TRIPOS>ATOM
      1 C1         -0.0212    1.5274    0.0295 C.3       1 <0>        -0.1868
      2 C2         -0.0012   -0.0024    0.0209 C.3       1 <0>         0.0329
      3 H1         -1.0239   -0.3792    0.0336 H         1 <0>         0.1427
      4 C3          0.7447   -0.5096    1.2567 C.3       1 <0>        -0.1130
      5 C4          2.1802    0.0193    1.2388 C.3       1 <0>        -0.1460
      6 C5          2.9261   -0.4879    2.4746 C.3       1 <0>        -0.0980
      7 C6          2.9462   -2.0177    2.4660 C.3       1 <0>        -0.1139
      8 C7          1.5106   -2.5467    2.4839 C.3       1 <0>        -0.1118
      9 C8          0.7648   -2.0395    1.2481 C.3       1 <0>        -0.1341
     10 C9          3.6452   -2.5039    1.2227 C.2       1 <0>         0.5220
     11 O1          4.0842   -1.7055    0.4223 O.2       1 <0>        -0.5211
     12 N1          3.7826   -3.8261    1.0002 N.am      1 <0>        -0.6683
     13 C10         4.3419   -4.2780   -0.1958 C.ar      1 <0>         0.1766
     14 C11         5.3665   -3.5677   -0.8193 C.ar      1 <0>        -0.1772
     15 C12         5.8925   -4.0480   -2.0007 C.ar      1 <0>         0.1192
     16 N2          5.4378   -5.1635   -2.5396 N.ar      1 <0>        -0.4895
     17 C13         4.4694   -5.8640   -1.9800 C.ar      1 <0>         0.1213
     18 C14         3.8943   -5.4544   -0.7948 C.ar      1 <0>        -0.2009
     19 N3          0.6803   -0.4764   -1.1911 N.4       1 <0>        -0.6406
     20 H2          1.0015    1.9043    0.0167 H         1 <0>         0.0857
     21 H3         -0.5526    1.8888   -0.8510 H         1 <0>         0.0831
     22 H4         -0.5268    1.8791    0.9288 H         1 <0>         0.1077
     23 H5          0.2391   -0.1579    2.1560 H         1 <0>         0.1206
     24 H6          2.6859   -0.3323    0.3395 H         1 <0>         0.0852
     25 H7          2.1660    1.1092    1.2449 H         1 <0>         0.0829
     26 H8          3.9488   -0.1110    2.4619 H         1 <0>         0.0827
     27 H9          2.4205   -0.1362    3.3740 H         1 <0>         0.0826
     28 H10         3.4775   -2.3791    3.3465 H         1 <0>         0.1134
     29 H11         1.5249   -3.6366    2.4778 H         1 <0>         0.0792
     30 H12         1.0050   -2.1950    3.3833 H         1 <0>         0.0918
     31 H13        -0.2579   -2.4163    1.2609 H         1 <0>         0.0866
     32 H14         1.2704   -2.3912    0.3488 H         1 <0>         0.0540
     33 H15         3.4928   -4.4636    1.6714 H         1 <0>         0.4174
     34 H16         5.7430   -2.6539   -0.3838 H         1 <0>         0.1497
     35 H17         6.6863   -3.5040   -2.4909 H         1 <0>         0.1619
     36 H18         4.1259   -6.7718   -2.4535 H         1 <0>         0.1630
     37 H19         3.1054   -6.0348   -0.3398 H         1 <0>         0.1388
     38 H20         1.6270   -0.1275   -1.2030 H         1 <0>         0.4337
     39 H21         0.6935   -1.4853   -1.1968 H         1 <0>         0.4310
     40 H22         0.1884   -0.1419   -2.0062 H         1 <0>         0.4354
@<TRIPOS>BOND
     1    1    2 1
     2    1   20 1
     3    1   21 1
     4    1   22 1
     5    2    3 1
     6    2    4 1
     7    2   19 1
     8    4    9 1
     9    4    5 1
    10    4   23 1
    11    5    6 1
    12    5   24 1
    13    5   25 1
    14    6    7 1
    15    6   26 1
    16    6   27 1
    17    7    8 1
    18    7   10 1
    19    7   28 1
    20    8    9 1
    21    8   29 1
    22    8   30 1
    23    9   31 1
    24    9   32 1
    25   10   11 2
    26   10   12 am
    27   12   13 1
    28   12   33 1
    29   13   18 ar
    30   13   14 ar
    31   14   15 ar
    32   14   34 1
    33   15   16 ar
    34   15   35 1
    35   16   17 ar
    36   17   18 ar
    37   17   36 1
    38   18   37 1
    39   19   38 1
    40   19   39 1
    41   19   40 1
@<TRIPOS>MOLECULE
ZINC13815406
   39    41     0     0     0
SMALL
USER_CHARGES

@<TRIPOS>ATOM
      1 C1          1.9341    1.3849   -0.9653 C.ar      1 <0>        -0.1599
      2 C2          1.2879    2.1037    0.0165 C.ar      1 <0>         0.0165
      3 C3          0.5909    1.4246    1.0153 C.ar      1 <0>        -0.1690
      4 C4          0.5567    0.0108    1.0069 C.ar      1 <0>         0.1107
      5 C5         -0.1831   -0.6726    2.0694 C.2       1 <0>        -0.2571
      6 C6         -0.8030    0.0533    3.0138 C.2       1 <0>         0.1674
      7 N1         -0.7725    1.4183    3.0255 N.am      1 <0>        -0.6308
      8 H1         -1.2384    1.8911    3.7328 H         1 <0>         0.4249
      9 C7         -0.1169    2.1315    2.0883 C.2       1 <0>         0.5480
     10 O1         -0.1124    3.3486    2.1317 O.2       1 <0>        -0.5064
     11 C8          1.2204   -0.6905   -0.0001 C.ar      1 <0>        -0.6929
     12 C9          1.8975   -0.0034   -0.9691 C.ar      1 <0>         0.0083
     13 S1          1.1868   -2.4520   -0.0228 S.o2      1 <0>         2.6928
     14 O2          2.1635   -2.8890    0.9122 O.2       1 <0>        -0.9379
     15 O3         -0.1791   -2.8333    0.0680 O.2       1 <0>        -0.9327
     16 N2          1.7139   -2.9326   -1.5173 N.pl3     1 <0>        -1.0126
     17 C10         0.7944   -3.0347   -2.6190 C.3       1 <0>         0.0910
     18 C11         0.1279   -4.4147   -2.8245 C.3       1 <0>        -0.1665
     19 C12         1.1664   -5.5429   -2.6199 C.3       1 <0>        -0.0238
     20 N3          2.4374   -5.1448   -3.1775 N.4       1 <0>        -0.4916
     21 C13         3.2204   -4.7109   -2.0246 C.3       1 <0>        -0.0359
     22 C14         3.1611   -3.2631   -1.7465 C.3       1 <0>         0.0902
     23 H2          2.4713    1.9070   -1.7432 H         1 <0>         0.1446
     24 H3          1.3213    3.1832    0.0129 H         1 <0>         0.1517
     25 H4         -0.2301   -1.7513    2.0933 H         1 <0>         0.1505
     26 H5         -1.3461   -0.4615    3.7925 H         1 <0>         0.1761
     27 H6          2.4109   -0.5476   -1.7480 H         1 <0>         0.1348
     28 H7          0.0066   -2.2956   -2.4733 H         1 <0>         0.1075
     29 H8          1.3295   -2.7766   -3.5329 H         1 <0>         0.0859
     30 H9         -0.6829   -4.5351   -2.1060 H         1 <0>         0.1214
     31 H10        -0.2759   -4.4742   -3.8353 H         1 <0>         0.1115
     32 H11         1.2836   -5.7385   -1.5540 H         1 <0>         0.1321
     33 H12         0.8201   -6.4487   -3.1176 H         1 <0>         0.1367
     34 H13         2.8834   -5.9275   -3.6319 H         1 <0>         0.4397
     35 H14         2.8644   -5.2472   -1.1450 H         1 <0>         0.1397
     36 H15         4.2618   -4.9858   -2.1925 H         1 <0>         0.1451
     37 H16         3.5412   -2.7015   -2.5999 H         1 <0>         0.1118
     38 H17         3.7429   -3.0280   -0.8552 H         1 <0>         0.1484
     39 H18         2.3140   -4.3823   -3.8267 H         1 <0>         0.4298
@<TRIPOS>BOND
     1    1   12 ar
     2    1    2 ar
     3    1   23 1
     4    2    3 ar
     5    2   24 1
     6    3    9 1
     7    3    4 ar
     8    4    5 1
     9    4   11 ar
    10    5    6 2
    11    5   25 1
    12    6    7 1
    13    6   26 1
    14    7    8 1
    15    7    9 am
    16    9   10 2
    17   11   12 ar
    18   11   13 1
    19   12   27 1
    20   13   14 2
    21   13   15 2
    22   13   16 1
    23   16   22 1
    24   16   17 1
    25   17   18 1
    26   17   28 1
    27   17   29 1
    28   18   19 1
    29   18   30 1
    30   18   31 1
    31   19   20 1
    32   19   32 1
    33   19   33 1
    34   20   21 1
    35   20   34 1
    36   20   39 1
    37   21   22 1
    38   21   35 1
    39   21   36 1
    40   22   37 1
    41   22   38 1
@<TRIPOS>MOLECULE
ZINC13647791
   43    46     0     0     0
SMALL
USER_CHARGES

@<TRIPOS>ATOM
      1 C1         -0.0166    1.3699    0.0096 C.ar      1 <0>        -0.0800
      2 C2          1.1572    2.1045    0.0023 C.ar      1 <0>        -0.1190
      3 C3          2.3694    1.4373   -0.0129 C.ar      1 <0>        -0.0394
      4 C4          2.3887    0.0627   -0.0205 C.ar      1 <0>        -0.1883
      5 C5          1.2179   -0.7095   -0.0134 C.ar      1 <0>         0.1191
      6 C6          0.0021   -0.0041    0.0020 C.ar      1 <0>        -0.1207
      7 N1          1.3955   -2.0811   -0.0225 N.pl3     1 <0>        -0.6290
      8 C7          2.6545   -2.6113   -0.0374 C.2       1 <0>         0.2414
      9 C8          3.0385   -3.9533   -0.0487 C.2       1 <0>        -0.1370
     10 C9          2.0433   -4.9829   -0.0452 C.1       1 <0>         0.2720
     11 N2          1.2537   -5.7996   -0.0424 N.1       1 <0>        -0.4249
     12 C10         4.4680   -4.3104   -0.0642 C.ar      1 <0>         0.3088
     13 C11         4.8666   -5.6555   -0.0815 C.ar      1 <0>        -0.2844
     14 C12         6.2058   -5.9409   -0.0954 C.ar      1 <0>         0.2007
     15 N3          7.0848   -4.9482   -0.0923 N.ar      1 <0>        -0.5794
     16 C13         6.6886   -3.6836   -0.0759 C.ar      1 <0>         0.5826
     17 N4          5.4049   -3.3593   -0.0676 N.ar      1 <0>        -0.5825
     18 N5          7.6395   -2.6778   -0.0728 N.pl3     1 <0>        -0.7005
     19 C14         9.0646   -3.0170   -0.0875 C.3       1 <0>         0.1450
     20 C15         9.8948   -1.7318   -0.0805 C.3       1 <0>        -0.0888
     21 C16        11.3608   -2.0808   -0.0957 C.ar      1 <0>        -0.1340
     22 C17        12.0518   -2.2615    1.0929 C.ar      1 <0>        -0.0689
     23 C18        13.3992   -2.5815    1.0307 C.ar      1 <0>        -0.1701
     24 C19        14.0048   -2.7089   -0.2053 C.ar      1 <0>         0.0971
     25 N6         13.3163   -2.5294   -1.3154 N.ar      1 <0>        -0.4833
     26 C20        12.0320   -2.2302   -1.2943 C.ar      1 <0>         0.1060
     27 S1          3.6842   -1.1528   -0.0394 S.3       1 <0>         0.1837
     28 H1         -0.9648    1.8866    0.0260 H         1 <0>         0.1374
     29 H2          1.1270    3.1841    0.0081 H         1 <0>         0.1413
     30 H3          3.2952    1.9934   -0.0191 H         1 <0>         0.1400
     31 H4         -0.9301   -0.5494    0.0080 H         1 <0>         0.1308
     32 H5          0.6237   -2.6686   -0.0180 H         1 <0>         0.4164
     33 H6          4.1333   -6.4484   -0.0833 H         1 <0>         0.1381
     34 H7          6.5434   -6.9667   -0.1085 H         1 <0>         0.1667
     35 H8          7.3622   -1.7483   -0.0608 H         1 <0>         0.4130
     36 H9          9.3060   -3.6103    0.7944 H         1 <0>         0.0692
     37 H10         9.2920   -3.5916   -0.9854 H         1 <0>         0.0705
     38 H11         9.6534   -1.1385   -0.9624 H         1 <0>         0.0847
     39 H12         9.6674   -1.1572    0.8174 H         1 <0>         0.0829
     40 H13        11.5523   -2.1551    2.0445 H         1 <0>         0.1348
     41 H14        13.9686   -2.7291    1.9364 H         1 <0>         0.1364
     42 H15        15.0542   -2.9580   -0.2624 H         1 <0>         0.1564
     43 H16        11.4998   -2.0959   -2.2244 H         1 <0>         0.1551
@<TRIPOS>BOND
     1    1    6 ar
     2    1    2 ar
     3    1   28 1
     4    2    3 ar
     5    2   29 1
     6    3    4 ar
     7    3   30 1
     8    4   27 1
     9    4    5 ar
    10    5    6 ar
    11    5    7 1
    12    6   31 1
    13    7    8 1
    14    7   32 1
    15    8    9 2
    16    8   27 1
    17    9   10 1
    18    9   12 1
    19   10   11 3
    20   12   17 ar
    21   12   13 ar
    22   13   14 ar
    23   13   33 1
    24   14   15 ar
    25   14   34 1
    26   15   16 ar
    27   16   17 ar
    28   16   18 1
    29   18   19 1
    30   18   35 1
    31   19   20 1
    32   19   36 1
    33   19   37 1
    34   20   21 1
    35   20   38 1
    36   20   39 1
    37   21   26 ar
    38   21   22 ar
    39   22   23 ar
    40   22   40 1
    41   23   24 ar
    42   23   41 1
    43   24   25 ar
    44   24   42 1
    45   25   26 ar
    46   26   43 1
@<TRIPOS>MOLECULE
ZINC03818808
   43    45     0     0     0
SMALL
USER_CHARGES

@<TRIPOS>ATOM
      1 C1         -0.1632    1.4289   -0.0427 C.3       1 <0>        -0.1412
      2 C2         -0.0864   -0.0984    0.0043 C.3       1 <0>        -0.0993
      3 H1          0.4045   -0.4653   -0.8971 H         1 <0>         0.0854
      4 C3         -1.5005   -0.6778    0.0865 C.3       1 <0>        -0.1618
      5 C4         -1.4214   -2.2076    0.0985 C.3       1 <0>         0.0979
      6 N1         -0.5332   -2.6266    1.1913 N.am      1 <0>        -0.6084
      7 C5          0.8204   -2.0592    1.2586 C.3       1 <0>         0.1008
      8 C6          0.7158   -0.5310    1.2337 C.3       1 <0>         0.1392
      9 H2          1.7154   -0.0989    1.1864 H         1 <0>         0.1227
     10 N2          0.0389   -0.0672    2.4474 N.pl3     1 <0>        -0.5724
     11 C7         -1.3008   -0.5622    2.7736 C.3       1 <0>         0.0568
     12 C8          0.6646    0.8382    3.2852 C.ar      1 <0>         0.4913
     13 C9         -0.0139    1.3910    4.3823 C.ar      1 <0>        -0.2606
     14 C10        -1.3557    1.2550    4.9458 C.2       1 <0>        -0.1714
     15 C11        -1.4077    2.0560    6.0226 C.2       1 <0>         0.0373
     16 N3         -0.2038    2.6908    6.1878 N.pl3     1 <0>        -0.5701
     17 H3          0.0007    3.3193    6.8977 H         1 <0>         0.4217
     18 C12         0.6666    2.3073    5.2049 C.ar      1 <0>         0.3412
     19 N4          1.9288    2.6138    4.9083 N.ar      1 <0>        -0.5745
     20 C13         2.5254    2.0715    3.8692 C.ar      1 <0>         0.3621
     21 N5          1.9260    1.2026    3.0748 N.ar      1 <0>        -0.6016
     22 C14        -0.9523   -3.5144    2.1147 C.2       1 <0>         0.5178
     23 O1         -0.2095   -3.8523    3.0120 O.2       1 <0>        -0.5153
     24 C15        -2.3438   -4.0872    2.0324 C.3       1 <0>        -0.0460
     25 C16        -2.5552   -5.0247    3.1474 C.1       1 <0>         0.2103
     26 N6         -2.7185   -5.7482    4.0078 N.1       1 <0>        -0.4023
     27 H4          0.8439    1.8417   -0.1017 H         1 <0>         0.0576
     28 H5         -0.7342    1.7372   -0.9185 H         1 <0>         0.0554
     29 H6         -0.6541    1.7959    0.8587 H         1 <0>         0.0527
     30 H7         -1.9831   -0.3313    1.0004 H         1 <0>         0.0936
     31 H8         -2.0787   -0.3501   -0.7775 H         1 <0>         0.0813
     32 H9         -2.4164   -2.6237    0.2564 H         1 <0>         0.0917
     33 H10        -1.0222   -2.5603   -0.8525 H         1 <0>         0.0812
     34 H11         1.3045   -2.3773    2.1818 H         1 <0>         0.1011
     35 H12         1.4023   -2.3998    0.4022 H         1 <0>         0.0864
     36 H13        -1.4613   -1.5240    2.2863 H         1 <0>         0.0974
     37 H14        -1.3908   -0.6824    3.8532 H         1 <0>         0.0714
     38 H15        -2.0469    0.1513    2.4239 H         1 <0>         0.0596
     39 H16        -2.1522    0.6306    4.5687 H         1 <0>         0.1530
     40 H17        -2.2689    2.1817    6.6620 H         1 <0>         0.1790
     41 H18         3.5491    2.3441    3.6594 H         1 <0>         0.1974
     42 H19        -3.0733   -3.2796    2.0934 H         1 <0>         0.1393
     43 H20        -2.4641   -4.6148    1.0862 H         1 <0>         0.1422
@<TRIPOS>BOND
     1    1    2 1
     2    1   27 1
     3    1   28 1
     4    1   29 1
     5    2    3 1
     6    2    8 1
     7    2    4 1
     8    4    5 1
     9    4   30 1
    10    4   31 1
    11    5    6 1
    12    5   32 1
    13    5   33 1
    14    6    7 1
    15    6   22 am
    16    7    8 1
    17    7   34 1
    18    7   35 1
    19    8    9 1
    20    8   10 1
    21   10   11 1
    22   10   12 1
    23   11   36 1
    24   11   37 1
    25   11   38 1
    26   12   21 ar
    27   12   13 ar
    28   13   18 ar
    29   13   14 1
    30   14   15 2
    31   14   39 1
    32   15   16 1
    33   15   40 1
    34   16   17 1
    35   16   18 1
    36   18   19 ar
    37   19   20 ar
    38   20   21 ar
    39   20   41 1
    40   22   23 2
    41   22   24 1
    42   24   25 1
    43   24   42 1
    44   24   43 1
    45   25   26 3
@<TRIPOS>MOLECULE
ZINC03818808
   44    46     0     0     0
SMALL
USER_CHARGES

@<TRIPOS>ATOM
      1 C1          1.0751    1.2737   -0.0434 C.3       1 <0>        -0.1717
      2 C2          0.9577   -0.2392    0.1521 C.3       1 <0>        -0.1047
      3 H1          1.6206   -0.7482   -0.5476 H         1 <0>         0.1065
      4 C3         -0.4865   -0.6759   -0.1043 C.3       1 <0>        -0.1315
      5 C4         -0.5928   -2.1955    0.0584 C.3       1 <0>         0.0881
      6 N1         -0.0762   -2.5665    1.3829 N.am      1 <0>        -0.6217
      7 C5          1.2696   -2.1192    1.7670 C.3       1 <0>         0.0703
      8 C6          1.3546   -0.6005    1.5853 C.3       1 <0>         0.1548
      9 H2          2.3753   -0.2682    1.7748 H         1 <0>         0.1151
     10 N2          0.4432    0.0566    2.5254 N.pl3     1 <0>        -0.6726
     11 C7          0.2147    1.5009    2.4360 C.3       1 <0>         0.0820
     12 C8         -0.1863   -0.6692    3.4747 C.cat     1 <0>         0.6538
     13 N3         -1.4115   -1.1477    3.3110 N.pl3     1 <0>        -0.5444
     14 C9         -2.0279   -1.8522    4.2561 C.2       1 <0>         0.3321
     15 N4         -1.4500   -2.3911    5.3069 N.2       1 <0>        -0.3576
     16 C10        -0.1425   -2.2304    5.4947 C.2       1 <0>         0.3486
     17 N5          0.8810   -2.7839    6.0628 N.2       1 <0>        -0.3868
     18 C11         2.0466   -2.4288    5.4730 C.2       1 <0>         0.0742
     19 C12         1.8950   -1.3891    4.6394 C.2       1 <0>        -0.1875
     20 C13         0.4539   -1.0025    4.7995 C.3       1 <0>        -0.1965
     21 H3          0.3826   -0.1407    5.4632 H         1 <0>         0.2035
     22 C14        -0.8228   -3.3029    2.2295 C.2       1 <0>         0.4987
     23 O1         -0.4185   -3.5355    3.3491 O.2       1 <0>        -0.5208
     24 C15        -2.1600   -3.8373    1.7851 C.3       1 <0>        -0.0470
     25 C16        -2.7721   -4.6027    2.8834 C.1       1 <0>         0.1796
     26 N6         -3.2445   -5.1934    3.7309 N.1       1 <0>        -0.3579
     27 H4          1.9917    1.6307    0.4261 H         1 <0>         0.0671
     28 H5          1.1000    1.5016   -1.1090 H         1 <0>         0.0701
     29 H6          0.2170    1.7667    0.4136 H         1 <0>         0.0716
     30 H7         -1.1471   -0.1863    0.6113 H         1 <0>         0.0598
     31 H8         -0.7764   -0.3973   -1.1174 H         1 <0>         0.1011
     32 H9         -1.6361   -2.4998   -0.0253 H         1 <0>         0.1003
     33 H10        -0.0031   -2.6879   -0.7149 H         1 <0>         0.0960
     34 H11         1.4551   -2.3733    2.8106 H         1 <0>         0.1127
     35 H12         2.0111   -2.6054    1.1331 H         1 <0>         0.1150
     36 H13        -0.6534    1.6930    1.8054 H         1 <0>         0.0747
     37 H14         0.0356    1.9028    3.4332 H         1 <0>         0.0735
     38 H15         1.0920    1.9814    2.0027 H         1 <0>         0.1163
     39 H16        -3.0936   -1.9931    4.1516 H         1 <0>         0.2346
     40 H17         2.9889   -2.9247    5.6530 H         1 <0>         0.1925
     41 H18         2.6381   -0.9370    3.9993 H         1 <0>         0.1817
     42 H19        -2.8114   -3.0064    1.5141 H         1 <0>         0.1360
     43 H20        -2.0224   -4.4878    0.9214 H         1 <0>         0.1536
     44 H21        -1.8737   -0.9784    2.4752 H         1 <0>         0.4370
@<TRIPOS>BOND
     1    1    2 1
     2    1   27 1
     3    1   28 1
     4    1   29 1
     5    2    3 1
     6    2    8 1
     7    2    4 1
     8    4    5 1
     9    4   30 1
    10    4   31 1
    11    5    6 1
    12    5   32 1
    13    5   33 1
    14    6    7 1
    15    6   22 am
    16    7    8 1
    17    7   34 1
    18    7   35 1
    19    8    9 1
    20    8   10 1
    21   10   11 1
    22   10   12 1
    23   11   36 1
    24   11   37 1
    25   11   38 1
    26   12   20 1
    27   12   13 2
    28   13   14 1
    29   13   44 1
    30   14   15 2
    31   14   39 1
    32   15   16 1
    33   16   20 1
    34   16   17 2
    35   17   18 1
    36   18   19 2
    37   18   40 1
    38   19   20 1
    39   19   41 1
    40   20   21 1
    41   22   23 2
    42   22   24 1
    43   24   25 1
    44   24   42 1
    45   24   43 1
    46   25   26 3
@<TRIPOS>MOLECULE
ZINC28641173
   44    46     0     0     0
SMALL
USER_CHARGES
N-(1-propyl-4-piperidyl)isoquinolin-5-amine
@<TRIPOS>ATOM
      1 C1          9.5563    7.9997    2.4361 C.3       1 <0>        -0.1593
      2 C2          8.3021    7.1299    2.3307 C.3       1 <0>        -0.1534
      3 C3          7.7158    7.2489    0.9224 C.3       1 <0>        -0.0076
      4 N1          6.5116    6.4138    0.8212 N.4       1 <0>        -0.3991
      5 C4          6.0563    6.3135   -0.5713 C.3       1 <0>         0.0017
      6 C5          4.7245    5.5612   -0.6210 C.3       1 <0>        -0.1543
      7 C6          4.9106    4.1638   -0.0234 C.3       1 <0>         0.1454
      8 C7          5.4320    4.2943    1.4104 C.3       1 <0>        -0.1659
      9 C8          6.7426    5.0847    1.4013 C.3       1 <0>        -0.0097
     10 N2          3.6258    3.4599   -0.0149 N.pl3     1 <0>        -0.7506
     11 C9          3.5946    2.0668   -0.0222 C.ar      1 <0>         0.2197
     12 C10         4.7689    1.3424   -0.0374 C.ar      1 <0>        -0.2008
     13 C11         4.7471   -0.0489   -0.0448 C.ar      1 <0>        -0.0720
     14 C12         3.5707   -0.7362   -0.0368 C.ar      1 <0>        -0.1357
     15 C13         2.3540   -0.0371   -0.0208 C.ar      1 <0>        -0.0742
     16 C14         2.3640    1.3816   -0.0132 C.ar      1 <0>        -0.0640
     17 C15         1.1316    2.0562    0.0023 C.ar      1 <0>        -0.1528
     18 C16        -0.0159    1.3217    0.0093 C.ar      1 <0>         0.0751
     19 N3          0.0021   -0.0041    0.0020 N.ar      1 <0>        -0.4783
     20 C17         1.1151   -0.6992   -0.0124 C.ar      1 <0>         0.1447
     21 H1          9.9778    7.9142    3.4485 H         1 <0>         0.0779
     22 H2          9.2928    9.0488    2.2360 H         1 <0>         0.0676
     23 H3         10.3000    7.6615    1.6995 H         1 <0>         0.0670
     24 H4          8.5656    6.0808    2.5308 H         1 <0>         0.0882
     25 H5          7.5584    7.4680    3.0673 H         1 <0>         0.0865
     26 H6          7.4524    8.2980    0.7224 H         1 <0>         0.1323
     27 H7          8.4595    6.9108    0.1858 H         1 <0>         0.1269
     28 H8          5.9223    7.3231   -0.9869 H         1 <0>         0.1365
     29 H9          6.8065    5.7696   -1.1641 H         1 <0>         0.1289
     30 H10         3.9701    6.1126   -0.0407 H         1 <0>         0.0949
     31 H11         4.3915    5.4737   -1.6657 H         1 <0>         0.1192
     32 H12         5.6002    3.5654   -0.6369 H         1 <0>         0.0965
     33 H13         4.6876    4.8221    2.0246 H         1 <0>         0.0926
     34 H14         5.6087    3.2925    1.8289 H         1 <0>         0.1151
     35 H15         7.4899    4.5468    0.7995 H         1 <0>         0.1276
     36 H16         7.1113    5.1935    2.4320 H         1 <0>         0.1387
     37 H17         2.6858    4.0311   -0.0028 H         1 <0>         0.4229
     38 H18         5.7160    1.8613   -0.0440 H         1 <0>         0.1190
     39 H19         5.6795   -0.5938   -0.0568 H         1 <0>         0.1272
     40 H20         3.5746   -1.8162   -0.0424 H         1 <0>         0.1339
     41 H21         1.0946    3.1356    0.0089 H         1 <0>         0.1284
     42 H22        -0.9668    1.8337    0.0166 H         1 <0>         0.1544
     43 H23         1.0787   -1.7786   -0.0175 H         1 <0>         0.1680
     44 H24         5.7124    6.8985    1.4012 H         1 <0>         0.4410
@<TRIPOS>BOND
     1    1    2 1
     2    1   21 1
     3    1   22 1
     4    1   23 1
     5    2    3 1
     6    2   24 1
     7    2   25 1
     8    3    4 1
     9    3   26 1
    10    3   27 1
    11    4    9 1
    12    4    5 1
    13    4   44 1
    14    5    6 1
    15    5   28 1
    16    5   29 1
    17    6    7 1
    18    6   30 1
    19    6   31 1
    20    7    8 1
    21    7   10 1
    22    7   32 1
    23    8    9 1
    24    8   33 1
    25    8   34 1
    26    9   35 1
    27    9   36 1
    28   10   11 1
    29   10   37 1
    30   11   16 ar
    31   11   12 ar
    32   12   13 ar
    33   12   38 1
    34   13   14 ar
    35   13   39 1
    36   14   15 ar
    37   14   40 1
    38   15   20 ar
    39   15   16 ar
    40   16   17 ar
    41   17   18 ar
    42   17   41 1
    43   18   19 ar
    44   18   42 1
    45   19   20 ar
    46   20   43 1
@<TRIPOS>MOLECULE
ZINC28641173
   45    47     0     0     0
SMALL
USER_CHARGES
N-(1-propyl-4-piperidyl)isoquinolin-5-amine
@<TRIPOS>ATOM
      1 C1          9.5563    7.9997    2.4361 C.3       1 <0>        -0.1612
      2 C2          8.3021    7.1299    2.3307 C.3       1 <0>        -0.1524
      3 C3          7.7158    7.2489    0.9224 C.3       1 <0>        -0.0088
      4 N1          6.5116    6.4138    0.8212 N.4       1 <0>        -0.3998
      5 C4          6.0563    6.3135   -0.5713 C.3       1 <0>        -0.0001
      6 C5          4.7245    5.5612   -0.6210 C.3       1 <0>        -0.1544
      7 C6          4.9106    4.1638   -0.0234 C.3       1 <0>         0.1396
      8 C7          5.4320    4.2943    1.4104 C.3       1 <0>        -0.1655
      9 C8          6.7426    5.0847    1.4013 C.3       1 <0>        -0.0115
     10 N2          3.6258    3.4599   -0.0149 N.pl3     1 <0>        -0.7415
     11 C9          3.5946    2.0668   -0.0222 C.ar      1 <0>         0.2274
     12 C10         4.7689    1.3424   -0.0374 C.ar      1 <0>        -0.1591
     13 C11         4.7471   -0.0489   -0.0448 C.ar      1 <0>        -0.0386
     14 C12         3.5707   -0.7362   -0.0368 C.ar      1 <0>        -0.1213
     15 C13         2.3540   -0.0371   -0.0208 C.ar      1 <0>        -0.0635
     16 C14         2.3640    1.3816   -0.0132 C.ar      1 <0>        -0.0477
     17 C15         1.1316    2.0562    0.0023 C.ar      1 <0>        -0.0753
     18 C16        -0.0159    1.3217    0.0093 C.ar      1 <0>         0.0508
     19 N3          0.0021   -0.0041    0.0020 N.ar      1 <0>        -0.4530
     20 C17         1.1151   -0.6992   -0.0124 C.ar      1 <0>         0.2088
     21 H1          9.9778    7.9142    3.4485 H         1 <0>         0.0798
     22 H2          9.2928    9.0488    2.2360 H         1 <0>         0.0692
     23 H3         10.3000    7.6615    1.6995 H         1 <0>         0.0681
     24 H4          8.5656    6.0808    2.5308 H         1 <0>         0.0872
     25 H5          7.5584    7.4680    3.0673 H         1 <0>         0.0868
     26 H6          7.4524    8.2980    0.7224 H         1 <0>         0.1352
     27 H7          8.4595    6.9108    0.1858 H         1 <0>         0.1289
     28 H8          5.9223    7.3231   -0.9869 H         1 <0>         0.1411
     29 H9          6.8065    5.7696   -1.1641 H         1 <0>         0.1311
     30 H10         3.9701    6.1126   -0.0407 H         1 <0>         0.0978
     31 H11         4.3915    5.4737   -1.6657 H         1 <0>         0.1213
     32 H12         5.6002    3.5654   -0.6369 H         1 <0>         0.1018
     33 H13         4.6876    4.8221    2.0246 H         1 <0>         0.0963
     34 H14         5.6087    3.2925    1.8289 H         1 <0>         0.1142
     35 H15         7.4899    4.5468    0.7995 H         1 <0>         0.1298
     36 H16         7.1113    5.1935    2.4320 H         1 <0>         0.1431
     37 H17         2.6858    4.0311   -0.0028 H         1 <0>         0.4287
     38 H18         5.7160    1.8613   -0.0440 H         1 <0>         0.1403
     39 H19         5.6795   -0.5938   -0.0568 H         1 <0>         0.1507
     40 H20         3.5746   -1.8162   -0.0424 H         1 <0>         0.1551
     41 H21         1.0946    3.1356    0.0089 H         1 <0>         0.1685
     42 H22        -0.9668    1.8337    0.0166 H         1 <0>         0.2004
     43 H23         1.0787   -1.7786   -0.0175 H         1 <0>         0.2166
     44 H24         5.7124    6.8985    1.4012 H         1 <0>         0.4419
     45 H25        -0.9429   -0.5670    0.0080 H         1 <0>         0.4928
@<TRIPOS>BOND
     1    1    2 1
     2    1   21 1
     3    1   22 1
     4    1   23 1
     5    2    3 1
     6    2   24 1
     7    2   25 1
     8    3    4 1
     9    3   26 1
    10    3   27 1
    11    4    9 1
    12    4    5 1
    13    4   44 1
    14    5    6 1
    15    5   28 1
    16    5   29 1
    17    6    7 1
    18    6   30 1
    19    6   31 1
    20    7    8 1
    21    7   10 1
    22    7   32 1
    23    8    9 1
    24    8   33 1
    25    8   34 1
    26    9   35 1
    27    9   36 1
    28   10   11 1
    29   10   37 1
    30   11   16 ar
    31   11   12 ar
    32   12   13 ar
    33   12   38 1
    34   13   14 ar
    35   13   39 1
    36   14   15 ar
    37   14   40 1
    38   15   20 ar
    39   15   16 ar
    40   16   17 ar
    41   17   18 ar
    42   17   41 1
    43   18   19 ar
    44   18   42 1
    45   19   20 ar
    46   19   45 1
    47   20   43 1
@<TRIPOS>MOLECULE
ZINC23549779
   46    49     0     0     0
SMALL
USER_CHARGES
N-(1-benzyl-4-piperidyl)-1H-indazol-5-amine
@<TRIPOS>ATOM
      1 C1         -5.9149    2.1458    3.8994 C.ar      1 <0>        -0.0849
      2 C2         -5.9099    3.1178    2.9166 C.ar      1 <0>        -0.1132
      3 C3         -5.3819    2.8377    1.6701 C.ar      1 <0>        -0.0947
      4 C4         -4.8591    1.5855    1.4064 C.ar      1 <0>        -0.1585
      5 C5         -4.8692    0.6117    2.3875 C.ar      1 <0>        -0.0972
      6 C6         -5.3921    0.8935    3.6357 C.ar      1 <0>        -0.1142
      7 C7         -4.2838    1.2801    0.0475 C.3       1 <0>         0.0464
      8 N1         -2.8523    1.6097    0.0364 N.4       1 <0>        -0.3966
      9 C8         -2.2065    1.1092   -1.1838 C.3       1 <0>         0.0011
     10 C9         -0.7558    1.5943   -1.2305 C.3       1 <0>        -0.1529
     11 C10        -0.0127    1.0858    0.0080 C.3       1 <0>         0.1496
     12 C11        -0.7320    1.5809    1.2658 C.3       1 <0>        -0.1640
     13 C12        -2.1847    1.0962    1.2393 C.3       1 <0>        -0.0079
     14 N2          1.3612    1.5941   -0.0024 N.pl3     1 <0>        -0.7611
     15 C13         2.3685    0.9021    0.6795 C.ar      1 <0>         0.1684
     16 C14         2.0604   -0.2719    1.3682 C.ar      1 <0>        -0.1381
     17 C15         3.0283   -0.9622    2.0387 C.ar      1 <0>        -0.0963
     18 C16         4.3414   -0.4979    2.0427 C.ar      1 <0>         0.0794
     19 C17         4.6636    0.6854    1.3517 C.ar      1 <0>        -0.1356
     20 C18         3.6631    1.3810    0.6627 C.ar      1 <0>        -0.1177
     21 C19         6.0941    0.8984    1.5462 C.2       1 <0>         0.0568
     22 N3          6.5457   -0.0768    2.2821 N.2       1 <0>        -0.2248
     23 N4          5.5061   -0.9537    2.6082 N.pl3     1 <0>        -0.5191
     24 H1          5.5028   -1.8775    3.2053 H         1 <0>         0.4705
     25 H2         -6.3268    2.3648    4.8735 H         1 <0>         0.1355
     26 H3         -6.3183    4.0961    3.1226 H         1 <0>         0.1358
     27 H4         -5.3780    3.5972    0.9023 H         1 <0>         0.1311
     28 H5         -4.4648   -0.3680    2.1801 H         1 <0>         0.1295
     29 H6         -5.3957    0.1342    4.4037 H         1 <0>         0.1356
     30 H7         -4.4156    0.2108   -0.1746 H         1 <0>         0.1328
     31 H8         -4.8040    1.8796   -0.7141 H         1 <0>         0.1381
     32 H9         -2.2250    0.0094   -1.1837 H         1 <0>         0.1284
     33 H10        -2.7468    1.4849   -2.0652 H         1 <0>         0.1359
     34 H11        -0.2686    1.2068   -2.1374 H         1 <0>         0.1185
     35 H12        -0.7372    2.6940   -1.2457 H         1 <0>         0.0941
     36 H13         0.0516   -0.0123    0.0015 H         1 <0>         0.0912
     37 H14        -0.2264    1.1829    2.1580 H         1 <0>         0.1121
     38 H15        -0.7102    2.6804    1.2919 H         1 <0>         0.0910
     39 H16        -2.7090    1.4625    2.1342 H         1 <0>         0.1353
     40 H17        -2.2034   -0.0036    1.2278 H         1 <0>         0.1245
     41 H18         1.6011    2.5197   -0.5462 H         1 <0>         0.4220
     42 H19         1.0445   -0.6386    1.3704 H         1 <0>         0.1218
     43 H20         2.7756   -1.8695    2.5672 H         1 <0>         0.1270
     44 H21         3.9014    2.2873    0.1257 H         1 <0>         0.1270
     45 H22         6.6748    1.7186    1.1506 H         1 <0>         0.1974
     46 H23        -2.7560    2.7055    0.0415 H         1 <0>         0.4399
@<TRIPOS>BOND
     1    1    6 ar
     2    1    2 ar
     3    1   25 1
     4    2    3 ar
     5    2   26 1
     6    3    4 ar
     7    3   27 1
     8    4    5 ar
     9    4    7 1
    10    5    6 ar
    11    5   28 1
    12    6   29 1
    13    7    8 1
    14    7   30 1
    15    7   31 1
    16    8   13 1
    17    8    9 1
    18    8   46 1
    19    9   10 1
    20    9   32 1
    21    9   33 1
    22   10   11 1
    23   10   34 1
    24   10   35 1
    25   11   12 1
    26   11   14 1
    27   11   36 1
    28   12   13 1
    29   12   37 1
    30   12   38 1
    31   13   39 1
    32   13   40 1
    33   14   15 1
    34   14   41 1
    35   15   20 ar
    36   15   16 ar
    37   16   17 ar
    38   16   42 1
    39   17   18 ar
    40   17   43 1
    41   18   23 1
    42   18   19 ar
    43   19   20 ar
    44   19   21 1
    45   20   44 1
    46   21   22 2
    47   21   45 1
    48   22   23 1
    49   23   24 1
@<TRIPOS>MOLECULE
ZINC03873287
   50    53     0     0     0
SMALL
USER_CHARGES

@<TRIPOS>ATOM
      1 C1          1.0640   -0.4441   -0.7878 C.ar      1 <0>        -0.1410
      2 C2          2.2473    0.2676   -0.8051 C.ar      1 <0>        -0.0006
      3 C3          2.3751    1.4182   -0.0486 C.ar      1 <0>        -0.6984
      4 C4          1.3192    1.8600    0.7275 C.ar      1 <0>         0.0094
      5 C5          0.1332    1.1527    0.7497 C.ar      1 <0>        -0.1704
      6 C6          0.0014   -0.0032   -0.0094 C.ar      1 <0>         0.2324
      7 N1         -1.1980   -0.7210    0.0101 N.pl3     1 <0>        -0.6339
      8 C7         -1.1808   -2.1027   -0.1021 C.ar      1 <0>         0.6156
      9 N2         -2.3307   -2.7504   -0.1982 N.ar      1 <0>        -0.5803
     10 C8         -2.3525   -4.0741   -0.3076 C.ar      1 <0>         0.3394
     11 C9         -1.1370   -4.7803   -0.3202 C.ar      1 <0>        -0.1015
     12 C10         0.0574   -4.0511   -0.2158 C.ar      1 <0>         0.4739
     13 N3         -0.0115   -2.7302   -0.1151 N.ar      1 <0>        -0.6058
     14 O1          1.2559   -4.6825   -0.2224 O.3       1 <0>        -0.2730
     15 C11         2.4214   -3.8631   -0.1117 C.3       1 <0>         0.0667
     16 C12         3.6703   -4.7467   -0.1370 C.3       1 <0>        -0.0863
     17 C13         3.6862   -5.6428    1.1030 C.3       1 <0>        -0.1150
     18 C14         4.9350   -6.5264    1.0776 C.3       1 <0>        -0.1192
     19 C15         6.1845   -5.6434    1.0704 C.3       1 <0>        -0.1224
     20 C16         6.1685   -4.7473   -0.1696 C.3       1 <0>        -0.1175
     21 C17         4.9197   -3.8637   -0.1443 C.3       1 <0>        -0.1128
     22 N4         -1.4413   -6.0963   -0.4395 N.2       1 <0>        -0.4434
     23 C18        -2.7329   -6.2385   -0.4993 C.2       1 <0>         0.2546
     24 N5         -3.3404   -5.0194   -0.4220 N.pl3     1 <0>        -0.5790
     25 H1         -4.2955   -4.8516   -0.4439 H         1 <0>         0.4341
     26 S1          3.8869    2.3230   -0.0731 S.o2      1 <0>         2.7018
     27 O2          3.9389    3.0598    1.1409 O.2       1 <0>        -0.9640
     28 O3          4.9035    1.4050   -0.4512 O.2       1 <0>        -0.9607
     29 N6          3.7731    3.4335   -1.2963 N.pl3     1 <0>        -1.2490
     30 H2          0.9633   -1.3401   -1.3823 H         1 <0>         0.1431
     31 H3          3.0740   -0.0749   -1.4098 H         1 <0>         0.1446
     32 H4          1.4223    2.7589    1.3171 H         1 <0>         0.1468
     33 H5         -0.6908    1.4978    1.3565 H         1 <0>         0.1381
     34 H6         -2.0423   -0.2524    0.1021 H         1 <0>         0.4303
     35 H7          2.4544   -3.1635   -0.9469 H         1 <0>         0.0726
     36 H8          2.3879   -3.3083    0.8259 H         1 <0>         0.0738
     37 H9          3.6584   -5.3669   -1.0334 H         1 <0>         0.0830
     38 H10         3.6980   -5.0227    1.9993 H         1 <0>         0.0614
     39 H11         2.7961   -6.2719    1.1081 H         1 <0>         0.0692
     40 H12         4.9464   -7.1648    1.9610 H         1 <0>         0.0623
     41 H13         4.9232   -7.1466    0.1813 H         1 <0>         0.0626
     42 H14         6.1963   -5.0233    1.9667 H         1 <0>         0.0620
     43 H15         7.0741   -6.2729    1.0524 H         1 <0>         0.0618
     44 H16         7.0587   -4.1182   -0.1747 H         1 <0>         0.0663
     45 H17         6.1567   -5.3675   -1.0659 H         1 <0>         0.0630
     46 H18         4.9084   -3.2253   -1.0277 H         1 <0>         0.0678
     47 H19         4.9315   -3.2436    0.7521 H         1 <0>         0.0678
     48 H20        -3.2485   -7.1825   -0.5967 H         1 <0>         0.2311
     49 H21         4.2460    4.2778   -1.2303 H         1 <0>         0.4215
     50 H22         3.2336    3.2396   -2.0787 H         1 <0>         0.4170
@<TRIPOS>BOND
     1    1    6 ar
     2    1    2 ar
     3    1   30 1
     4    2    3 ar
     5    2   31 1
     6    3    4 ar
     7    3   26 1
     8    4    5 ar
     9    4   32 1
    10    5    6 ar
    11    5   33 1
    12    6    7 1
    13    7    8 1
    14    7   34 1
    15    8   13 ar
    16    8    9 ar
    17    9   10 ar
    18   10   24 1
    19   10   11 ar
    20   11   12 ar
    21   11   22 1
    22   12   13 ar
    23   12   14 1
    24   14   15 1
    25   15   16 1
    26   15   35 1
    27   15   36 1
    28   16   21 1
    29   16   17 1
    30   16   37 1
    31   17   18 1
    32   17   38 1
    33   17   39 1
    34   18   19 1
    35   18   40 1
    36   18   41 1
    37   19   20 1
    38   19   42 1
    39   19   43 1
    40   20   21 1
    41   20   44 1
    42   20   45 1
    43   21   46 1
    44   21   47 1
    45   22   23 2
    46   23   24 1
    47   23   48 1
    48   24   25 1
    49   26   27 2
    50   26   28 2
    51   26   29 1
    52   29   49 1
    53   29   50 1
@<TRIPOS>MOLECULE
ZINC00006486
   38    40     0     0     0
SMALL
USER_CHARGES

@<TRIPOS>ATOM
      1 C1          1.9298    1.3878   -0.9612 C.ar      1 <0>        -0.1576
      2 C2          1.2945    2.1069    0.0055 C.ar      1 <0>        -0.0072
      3 C3          0.5887    1.4353    1.0155 C.ar      1 <0>        -0.1351
      4 C4         -0.0859    2.1226    2.0377 C.ar      1 <0>         0.1714
      5 N1         -0.7330    1.4506    2.9607 N.ar      1 <0>        -0.4845
      6 C5         -0.7853    0.1257    2.9804 C.ar      1 <0>         0.1226
      7 C6         -0.1649   -0.6326    2.0348 C.ar      1 <0>        -0.1974
      8 C7          0.5498    0.0164    1.0112 C.ar      1 <0>         0.0591
      9 C8          1.2155   -0.6907    0.0002 C.ar      1 <0>        -0.6812
     10 C9          1.8908   -0.0050   -0.9643 C.ar      1 <0>         0.0183
     11 S1          1.1797   -2.4522   -0.0228 S.o2      1 <0>         2.6894
     12 O1          2.1558   -2.8904    0.9123 O.2       1 <0>        -0.9370
     13 O2         -0.1866   -2.8318    0.0679 O.2       1 <0>        -0.9323
     14 N2          1.7064   -2.9332   -1.5173 N.pl3     1 <0>        -1.0124
     15 C10         0.7868   -3.0345   -2.6189 C.3       1 <0>         0.0909
     16 C11         0.1192   -4.4141   -2.8245 C.3       1 <0>        -0.1667
     17 C12         1.1568   -5.5430   -2.6198 C.3       1 <0>        -0.0238
     18 N3          2.4281   -5.1459   -3.1775 N.4       1 <0>        -0.4914
     19 C13         3.2116   -4.7126   -2.0246 C.3       1 <0>        -0.0360
     20 C14         3.1534   -3.2648   -1.7465 C.3       1 <0>         0.0902
     21 H1          2.4689    1.9057   -1.7406 H         1 <0>         0.1429
     22 H2          1.3340    3.1862   -0.0051 H         1 <0>         0.1499
     23 H3         -0.0718    3.2022    2.0643 H         1 <0>         0.1757
     24 H4         -1.3354   -0.3659    3.7691 H         1 <0>         0.1673
     25 H5         -0.2201   -1.7107    2.0699 H         1 <0>         0.1385
     26 H6          2.4035   -0.5495   -1.7435 H         1 <0>         0.1345
     27 H7         -0.0004   -2.2948   -2.4732 H         1 <0>         0.1069
     28 H8          1.3221   -2.7769   -3.5328 H         1 <0>         0.0865
     29 H9         -0.6916   -4.5338   -2.1059 H         1 <0>         0.1214
     30 H10        -0.2846   -4.4731   -3.8352 H         1 <0>         0.1121
     31 H11         1.2739   -5.7387   -1.5540 H         1 <0>         0.1320
     32 H12         0.8098   -6.4486   -3.1175 H         1 <0>         0.1373
     33 H13         2.8736   -5.9290   -3.6319 H         1 <0>         0.4400
     34 H14         2.8551   -5.2487   -1.1450 H         1 <0>         0.1397
     35 H15         4.2526   -4.9884   -2.1925 H         1 <0>         0.1457
     36 H16         3.5339   -2.7035   -2.5999 H         1 <0>         0.1123
     37 H17         3.7354   -3.0302   -0.8552 H         1 <0>         0.1481
     38 H18         2.3053   -4.3833   -3.8267 H         1 <0>         0.4297
@<TRIPOS>BOND
     1    1   10 ar
     2    1    2 ar
     3    1   21 1
     4    2    3 ar
     5    2   22 1
     6    3    8 ar
     7    3    4 ar
     8    4    5 ar
     9    4   23 1
    10    5    6 ar
    11    6    7 ar
    12    6   24 1
    13    7    8 ar
    14    7   25 1
    15    8    9 ar
    16    9   10 ar
    17    9   11 1
    18   10   26 1
    19   11   12 2
    20   11   13 2
    21   11   14 1
    22   14   20 1
    23   14   15 1
    24   15   16 1
    25   15   27 1
    26   15   28 1
    27   16   17 1
    28   16   29 1
    29   16   30 1
    30   17   18 1
    31   17   31 1
    32   17   32 1
    33   18   19 1
    34   18   33 1
    35   18   38 1
    36   19   20 1
    37   19   34 1
    38   19   35 1
    39   20   36 1
    40   20   37 1
@<TRIPOS>MOLECULE
ZINC00022706
   44    46     0     0     0
SMALL
USER_CHARGES

@<TRIPOS>ATOM
      1 C1         -2.0705    0.9655    3.5426 C.3       1 <0>        -0.1933
      2 C2         -2.1465   -0.4564    3.0494 C.ar      1 <0>        -0.1513
      3 C3         -3.1879   -1.2598    3.4035 C.ar      1 <0>         0.1147
      4 N1         -3.2785   -2.5142    2.9839 N.ar      1 <0>        -0.4799
      5 C4         -2.3806   -3.0692    2.2037 C.ar      1 <0>         0.1608
      6 C5         -1.2670   -2.3265    1.7802 C.ar      1 <0>        -0.1298
      7 C6         -1.1465   -0.9789    2.2096 C.ar      1 <0>         0.0568
      8 C7         -0.0451   -0.2165    1.7944 C.ar      1 <0>        -0.6740
      9 C8          0.8909   -0.7791    0.9803 C.ar      1 <0>         0.0153
     10 C9          0.7709   -2.1006    0.5536 C.ar      1 <0>        -0.1568
     11 C10        -0.2792   -2.8736    0.9461 C.ar      1 <0>        -0.0074
     12 S1          0.1264    1.4561    2.3212 S.o2      1 <0>         2.7012
     13 O1         -1.0784    2.1198    1.9645 O.2       1 <0>        -0.9434
     14 O2          0.6056    1.4137    3.6583 O.2       1 <0>        -0.9375
     15 N2          1.3294    2.1360    1.4087 N.pl3     1 <0>        -1.0126
     16 C11         2.6905    2.2222    1.9753 C.3       1 <0>         0.0892
     17 C12         3.3419    3.5780    1.6472 C.3       1 <0>        -0.1524
     18 C13         2.3086    4.6758    1.7699 C.3       1 <0>        -0.0109
     19 N3          1.7064    4.9200    0.4611 N.4       1 <0>        -0.4860
     20 C14         0.5885    4.1108    0.1597 C.3       1 <0>        -0.0526
     21 C15         1.0102    2.6195    0.0811 C.3       1 <0>         0.1430
     22 H1          1.8865    2.5232   -0.5599 H         1 <0>         0.1129
     23 C16        -0.1368    1.7903   -0.5000 C.3       1 <0>        -0.2392
     24 H2         -2.4559    1.6373    2.7756 H         1 <0>         0.1512
     25 H3         -2.6675    1.0682    4.4488 H         1 <0>         0.0890
     26 H4         -1.0331    1.2197    3.7603 H         1 <0>         0.0573
     27 H5         -3.9616   -0.8638    4.0445 H         1 <0>         0.1647
     28 H6         -2.4981   -4.0954    1.8883 H         1 <0>         0.1745
     29 H7          1.7390   -0.1921    0.6602 H         1 <0>         0.1355
     30 H8          1.5278   -2.5210   -0.0920 H         1 <0>         0.1430
     31 H9         -0.3584   -3.8961    0.6075 H         1 <0>         0.1498
     32 H10         2.6356    2.1043    3.0575 H         1 <0>         0.1191
     33 H11         3.3023    1.4215    1.5597 H         1 <0>         0.0926
     34 H12         4.1580    3.7674    2.3446 H         1 <0>         0.1292
     35 H13         3.7311    3.5573    0.6292 H         1 <0>         0.0944
     36 H14         1.5354    4.3706    2.4750 H         1 <0>         0.1279
     37 H15         2.7872    5.5880    2.1262 H         1 <0>         0.1445
     38 H16         1.4207    5.8867    0.4176 H         1 <0>         0.4324
     39 H17        -0.1658    4.2331    0.9370 H         1 <0>         0.1429
     40 H18         0.1690    4.4171   -0.7986 H         1 <0>         0.1527
     41 H19        -1.0191    1.8982    0.1309 H         1 <0>         0.1208
     42 H20        -0.3649    2.1408   -1.5066 H         1 <0>         0.1012
     43 H21         0.1564    0.7412   -0.5383 H         1 <0>         0.0871
     44 H22         2.4096    4.7678   -0.2462 H         1 <0>         0.4232
@<TRIPOS>BOND
     1    1    2 1
     2    1   24 1
     3    1   25 1
     4    1   26 1
     5    2    7 ar
     6    2    3 ar
     7    3    4 ar
     8    3   27 1
     9    4    5 ar
    10    5    6 ar
    11    5   28 1
    12    6   11 ar
    13    6    7 ar
    14    7    8 ar
    15    8    9 ar
    16    8   12 1
    17    9   10 ar
    18    9   29 1
    19   10   11 ar
    20   10   30 1
    21   11   31 1
    22   12   13 2
    23   12   14 2
    24   12   15 1
    25   15   21 1
    26   15   16 1
    27   16   17 1
    28   16   32 1
    29   16   33 1
    30   17   18 1
    31   17   34 1
    32   17   35 1
    33   18   19 1
    34   18   36 1
    35   18   37 1
    36   19   20 1
    37   19   38 1
    38   19   44 1
    39   20   21 1
    40   20   39 1
    41   20   40 1
    42   21   22 1
    43   21   23 1
    44   23   41 1
    45   23   42 1
    46   23   43 1
@<TRIPOS>MOLECULE
ZINC06848162
   37    40     0     0     0
SMALL
USER_CHARGES

@<TRIPOS>ATOM
      1 C1         -0.0167    1.3777    0.0096 C.ar      1 <0>        -0.1109
      2 C2          1.1697    2.0876    0.0021 C.ar      1 <0>        -0.1108
      3 C3          2.3784    1.4177   -0.0116 C.ar      1 <0>        -0.1063
      4 C4          2.4042    0.0310   -0.0192 C.ar      1 <0>         0.0488
      5 C5          1.2117   -0.6826   -0.0141 C.ar      1 <0>         0.0442
      6 C6          0.0021   -0.0041    0.0020 C.ar      1 <0>        -0.1091
      7 O1          1.2143   -2.0435   -0.0292 O.3       1 <0>        -0.2947
      8 C7          2.4407   -2.6888    0.3305 C.3       1 <0>         0.0321
      9 C8          3.5869   -1.9932   -0.4162 C.3       1 <0>         0.0459
     10 H1          3.4262   -2.0716   -1.4914 H         1 <0>         0.1244
     11 O2          3.6023   -0.6148   -0.0295 O.3       1 <0>        -0.2780
     12 C9          4.8981   -2.6394   -0.0500 C.2       1 <0>         0.5267
     13 O3          5.7392   -2.0060    0.5519 O.2       1 <0>        -0.4607
     14 N1          5.1362   -3.9213   -0.3914 N.am      1 <0>        -0.6042
     15 C10         6.3452   -4.5171   -0.0538 C.2       1 <0>         0.3118
     16 N2          6.7687   -5.7427   -0.2979 N.2       1 <0>        -0.5226
     17 C11         7.9650   -6.1498    0.1008 C.2       1 <0>         0.1078
     18 C12         8.7767   -5.2821    0.7787 C.2       1 <0>        -0.2222
     19 S1          7.7423   -3.8242    0.8196 S.3       1 <0>         0.1385
     20 C13         8.4188   -7.5313   -0.1846 C.ar      1 <0>         0.0216
     21 C14         9.6767   -7.9757    0.2361 C.ar      1 <0>        -0.1601
     22 C15        10.0593   -9.2692   -0.0506 C.ar      1 <0>         0.1019
     23 N3          9.2570  -10.0823   -0.7115 N.ar      1 <0>        -0.4841
     24 C16         8.0628   -9.7029   -1.1261 C.ar      1 <0>         0.0986
     25 C17         7.5989   -8.4285   -0.8769 C.ar      1 <0>        -0.1424
     26 H2         -0.9596    1.9040    0.0259 H         1 <0>         0.1362
     27 H3          1.1518    3.1674    0.0066 H         1 <0>         0.1366
     28 H4          3.3037    1.9746   -0.0169 H         1 <0>         0.1387
     29 H5         -0.9261   -0.5562    0.0086 H         1 <0>         0.1382
     30 H6          2.5984   -2.6053    1.4058 H         1 <0>         0.0900
     31 H7          2.4005   -3.7400    0.0450 H         1 <0>         0.1304
     32 H8          9.7695   -5.4343    1.1757 H         1 <0>         0.2039
     33 H9         10.3385   -7.3156    0.7770 H         1 <0>         0.1379
     34 H10        11.0287   -9.6214    0.2697 H         1 <0>         0.1602
     35 H11         7.4390  -10.4013   -1.6641 H         1 <0>         0.1588
     36 H12         6.6186   -8.1263   -1.2147 H         1 <0>         0.1431
     37 H13         4.4636   -4.4280   -0.8728 H         1 <0>         0.4299
@<TRIPOS>BOND
     1    1    6 ar
     2    1    2 ar
     3    1   26 1
     4    2    3 ar
     5    2   27 1
     6    3    4 ar
     7    3   28 1
     8    4   11 1
     9    4    5 ar
    10    5    6 ar
    11    5    7 1
    12    6   29 1
    13    7    8 1
    14    8    9 1
    15    8   30 1
    16    8   31 1
    17    9   10 1
    18    9   11 1
    19    9   12 1
    20   12   13 2
    21   12   14 am
    22   14   15 1
    23   14   37 1
    24   15   19 1
    25   15   16 2
    26   16   17 1
    27   17   18 2
    28   17   20 1
    29   18   19 1
    30   18   32 1
    31   20   25 ar
    32   20   21 ar
    33   21   22 ar
    34   21   33 1
    35   22   23 ar
    36   22   34 1
    37   23   24 ar
    38   24   25 ar
    39   24   35 1
    40   25   36 1
@<TRIPOS>MOLECULE
ZINC06848170
   37    40     0     0     0
SMALL
USER_CHARGES

@<TRIPOS>ATOM
      1 C1         -0.0167    1.3777    0.0096 C.ar      1 <0>        -0.1109
      2 C2          1.1697    2.0876    0.0021 C.ar      1 <0>        -0.1108
      3 C3          2.3783    1.4178   -0.0143 C.ar      1 <0>        -0.1063
      4 C4          2.4042    0.0310   -0.0230 C.ar      1 <0>         0.0487
      5 C5          1.2117   -0.6826   -0.0129 C.ar      1 <0>         0.0442
      6 C6          0.0021   -0.0041    0.0020 C.ar      1 <0>        -0.1091
      7 O1          1.2145   -2.0436   -0.0133 O.3       1 <0>        -0.2947
      8 C7          2.4336   -2.6847   -0.4041 C.3       1 <0>         0.0321
      9 C8          3.5941   -1.9974    0.3280 C.3       1 <0>         0.0459
     10 H1          3.4543   -2.0880    1.4052 H         1 <0>         0.1244
     11 O2          3.6022   -0.6147   -0.0433 O.3       1 <0>        -0.2780
     12 C9          4.8979   -2.6393   -0.0710 C.2       1 <0>         0.5267
     13 O3          5.7272   -1.9990   -0.6819 O.2       1 <0>        -0.4606
     14 N1          5.1425   -3.9250    0.2512 N.am      1 <0>        -0.6042
     15 C10         6.3445   -4.5168   -0.1166 C.2       1 <0>         0.3119
     16 N2          6.7681   -5.7482    0.0960 N.2       1 <0>        -0.5226
     17 C11         7.9569   -6.1503   -0.3295 C.2       1 <0>         0.1078
     18 C12         8.7605   -5.2712   -1.0024 C.2       1 <0>        -0.2221
     19 S1          7.7240   -3.8142   -1.0101 S.3       1 <0>         0.1384
     20 C13         8.4114   -7.5382   -0.0785 C.ar      1 <0>         0.0216
     21 C14         9.6664   -7.9737   -0.5167 C.ar      1 <0>        -0.1601
     22 C15        10.0497   -9.2736   -0.2620 C.ar      1 <0>         0.1018
     23 N3          9.2507  -10.1012    0.3848 N.ar      1 <0>        -0.4841
     24 C16         8.0593   -9.7306    0.8150 C.ar      1 <0>         0.0985
     25 C17         7.5996   -8.4471    0.6081 C.ar      1 <0>        -0.1424
     26 H2         -0.9596    1.9040    0.0259 H         1 <0>         0.1362
     27 H3          1.1518    3.1674    0.0087 H         1 <0>         0.1366
     28 H4          3.3037    1.9746   -0.0208 H         1 <0>         0.1387
     29 H5         -0.9261   -0.5562    0.0079 H         1 <0>         0.1382
     30 H6          2.3988   -3.7390   -0.1298 H         1 <0>         0.1304
     31 H7          2.5703   -2.5889   -1.4813 H         1 <0>         0.0900
     32 H8          9.7466   -5.4179   -1.4178 H         1 <0>         0.2039
     33 H9         10.3252   -7.3019   -1.0469 H         1 <0>         0.1379
     34 H10        11.0166   -9.6192   -0.5967 H         1 <0>         0.1602
     35 H11         7.4378  -10.4410    1.3400 H         1 <0>         0.1588
     36 H12         6.6256   -8.1493    0.9673 H         1 <0>         0.1431
     37 H13         4.4793   -4.4371    0.7398 H         1 <0>         0.4299
@<TRIPOS>BOND
     1    1    6 ar
     2    1    2 ar
     3    1   26 1
     4    2    3 ar
     5    2   27 1
     6    3    4 ar
     7    3   28 1
     8    4   11 1
     9    4    5 ar
    10    5    6 ar
    11    5    7 1
    12    6   29 1
    13    7    8 1
    14    8    9 1
    15    8   30 1
    16    8   31 1
    17    9   10 1
    18    9   11 1
    19    9   12 1
    20   12   13 2
    21   12   14 am
    22   14   15 1
    23   14   37 1
    24   15   19 1
    25   15   16 2
    26   16   17 1
    27   17   18 2
    28   17   20 1
    29   18   19 1
    30   18   32 1
    31   20   25 ar
    32   20   21 ar
    33   21   22 ar
    34   21   33 1
    35   22   23 ar
    36   22   34 1
    37   23   24 ar
    38   24   25 ar
    39   24   35 1
    40   25   36 1
@<TRIPOS>MOLECULE
ZINC35212825
   39    42     0     0     0
SMALL
USER_CHARGES

@<TRIPOS>ATOM
      1 C1         -0.0213    1.3715    0.0321 C.ar      1 <0>        -0.1134
      2 C2          1.1639    2.0830    0.0146 C.ar      1 <0>        -0.1116
      3 C3          2.3734    1.4148   -0.0059 C.ar      1 <0>        -0.1086
      4 C4          2.4012    0.0281   -0.0102 C.ar      1 <0>         0.0503
      5 C5          1.2098   -0.6872    0.0050 C.ar      1 <0>         0.0438
      6 C6         -0.0007   -0.0103    0.0278 C.ar      1 <0>        -0.1102
      7 O1          1.2142   -2.0482   -0.0067 O.3       1 <0>        -0.2982
      8 C7          2.4440   -2.6908    0.3461 C.3       1 <0>         0.0334
      9 C8          3.5840   -1.9955   -0.4103 C.3       1 <0>         0.0366
     10 H1          3.4159   -2.0768   -1.4842 H         1 <0>         0.1156
     11 O2          3.6002   -0.6160   -0.0272 O.3       1 <0>        -0.2785
     12 C9          4.8987   -2.6389   -0.0516 C.2       1 <0>         0.5241
     13 O3          5.7430   -2.0027    0.5429 O.2       1 <0>        -0.4838
     14 N1          5.1362   -3.9213   -0.3914 N.am      1 <0>        -0.6666
     15 C10         6.3911   -4.4895   -0.1450 C.ar      1 <0>         0.1286
     16 C11         7.1045   -4.1295    0.9916 C.ar      1 <0>        -0.1085
     17 C12         8.3414   -4.6883    1.2363 C.ar      1 <0>        -0.0993
     18 C13         8.8754   -5.6144    0.3428 C.ar      1 <0>        -0.0023
     19 C14         8.1583   -5.9740   -0.7964 C.ar      1 <0>        -0.1045
     20 C15         6.9193   -5.4171   -1.0344 C.ar      1 <0>        -0.1303
     21 C16        10.2072   -6.2169    0.6040 C.2       1 <0>        -0.2015
     22 C17        10.8489   -7.1268   -0.1844 C.2       1 <0>         0.0753
     23 N2         12.0273   -7.4172    0.4040 N.pl3     1 <0>        -0.4721
     24 H2         12.6943   -8.0355    0.0669 H         1 <0>         0.4429
     25 N3         12.1218   -6.6716    1.5853 N.2       1 <0>        -0.2908
     26 C18        11.0401   -5.9484    1.7075 C.2       1 <0>         0.0674
     27 H3         -0.9649    1.8964    0.0537 H         1 <0>         0.1350
     28 H4          1.1446    3.1628    0.0165 H         1 <0>         0.1355
     29 H5          3.2979    1.9729   -0.0190 H         1 <0>         0.1378
     30 H6         -0.9280   -0.5638    0.0423 H         1 <0>         0.1370
     31 H7          2.6090   -2.6043    1.4201 H         1 <0>         0.0873
     32 H8          2.4033   -3.7428    0.0635 H         1 <0>         0.1277
     33 H9          4.4374   -4.4504   -0.8067 H         1 <0>         0.4123
     34 H10         6.6903   -3.4113    1.6837 H         1 <0>         0.1395
     35 H11         8.8958   -4.4079    2.1197 H         1 <0>         0.1283
     36 H12         8.5707   -6.6914   -1.4904 H         1 <0>         0.1260
     37 H13         6.3610   -5.6991   -1.9148 H         1 <0>         0.1278
     38 H14        10.4802   -7.5397   -1.1117 H         1 <0>         0.1807
     39 H15        10.8217   -5.2657    2.5153 H         1 <0>         0.1872
@<TRIPOS>BOND
     1    1    6 ar
     2    1    2 ar
     3    1   27 1
     4    2    3 ar
     5    2   28 1
     6    3    4 ar
     7    3   29 1
     8    4   11 1
     9    4    5 ar
    10    5    6 ar
    11    5    7 1
    12    6   30 1
    13    7    8 1
    14    8    9 1
    15    8   31 1
    16    8   32 1
    17    9   10 1
    18    9   11 1
    19    9   12 1
    20   12   13 2
    21   12   14 am
    22   14   15 1
    23   14   33 1
    24   15   20 ar
    25   15   16 ar
    26   16   17 ar
    27   16   34 1
    28   17   18 ar
    29   17   35 1
    30   18   19 ar
    31   18   21 1
    32   19   20 ar
    33   19   36 1
    34   20   37 1
    35   21   26 1
    36   21   22 2
    37   22   23 1
    38   22   38 1
    39   23   24 1
    40   23   25 1
    41   25   26 2
    42   26   39 1
@<TRIPOS>MOLECULE
ZINC35212827
   39    42     0     0     0
SMALL
USER_CHARGES

@<TRIPOS>ATOM
      1 C1         -0.0126    1.3826    0.0320 C.ar      1 <0>        -0.1134
      2 C2          1.1744    2.0912    0.0147 C.ar      1 <0>        -0.1116
      3 C3          2.3822    1.4200   -0.0084 C.ar      1 <0>        -0.1086
      4 C4          2.4065    0.0332   -0.0139 C.ar      1 <0>         0.0504
      5 C5          1.2134   -0.6790    0.0061 C.ar      1 <0>         0.0439
      6 C6          0.0046    0.0008    0.0277 C.ar      1 <0>        -0.1103
      7 O1          1.2147   -2.0401    0.0090 O.3       1 <0>        -0.2985
      8 C7          2.4304   -2.6834   -0.3886 C.3       1 <0>         0.0345
      9 C8          3.5967   -1.9956    0.3339 C.3       1 <0>         0.0365
     10 H1          3.4642   -2.0834    1.4122 H         1 <0>         0.1152
     11 O2          3.6037   -0.6138   -0.0408 O.3       1 <0>        -0.2785
     12 C9          4.8971   -2.6398   -0.0724 C.2       1 <0>         0.5240
     13 O3          5.7229   -2.0018   -0.6906 O.2       1 <0>        -0.4839
     14 N1          5.1425   -3.9250    0.2512 N.am      1 <0>        -0.6666
     15 C10         6.3058   -4.5523   -0.2084 C.ar      1 <0>         0.1286
     16 C11         7.4858   -3.8279   -0.3226 C.ar      1 <0>        -0.1086
     17 C12         8.6335   -4.4442   -0.7754 C.ar      1 <0>        -0.0992
     18 C13         8.6090   -5.7944   -1.1184 C.ar      1 <0>        -0.0024
     19 C14         7.4246   -6.5191   -1.0031 C.ar      1 <0>        -0.1046
     20 C15         6.2806   -5.9002   -0.5445 C.ar      1 <0>        -0.1306
     21 C16         9.8433   -6.4600   -1.6065 C.2       1 <0>        -0.2015
     22 C17         9.9605   -7.7668   -1.9804 C.2       1 <0>         0.0752
     23 N2         11.2391   -7.9698   -2.3585 N.pl3     1 <0>        -0.4721
     24 H2         11.6127   -8.8075   -2.6743 H         1 <0>         0.4429
     25 N3         11.9340   -6.7626   -2.2170 N.2       1 <0>        -0.2908
     26 C18        11.1043   -5.8555   -1.7735 C.2       1 <0>         0.0674
     27 H3         -0.9549    1.9099    0.0535 H         1 <0>         0.1350
     28 H4          1.1577    3.1711    0.0188 H         1 <0>         0.1355
     29 H5          3.3080    1.9759   -0.0225 H         1 <0>         0.1378
     30 H6         -0.9241   -0.5503    0.0412 H         1 <0>         0.1369
     31 H7          2.3964   -3.7370   -0.1115 H         1 <0>         0.1279
     32 H8          2.5599   -2.5904   -1.4669 H         1 <0>         0.0867
     33 H9          4.5127   -4.4150    0.8027 H         1 <0>         0.4127
     34 H10         7.5043   -2.7812   -0.0570 H         1 <0>         0.1399
     35 H11         9.5505   -3.8806   -0.8644 H         1 <0>         0.1283
     36 H12         7.4033   -7.5657   -1.2688 H         1 <0>         0.1260
     37 H13         5.3634   -6.4627   -0.4505 H         1 <0>         0.1278
     38 H14         9.1722   -8.5050   -1.9747 H         1 <0>         0.1807
     39 H15        11.3445   -4.8227   -1.5683 H         1 <0>         0.1872
@<TRIPOS>BOND
     1    1    6 ar
     2    1    2 ar
     3    1   27 1
     4    2    3 ar
     5    2   28 1
     6    3    4 ar
     7    3   29 1
     8    4   11 1
     9    4    5 ar
    10    5    6 ar
    11    5    7 1
    12    6   30 1
    13    7    8 1
    14    8    9 1
    15    8   31 1
    16    8   32 1
    17    9   10 1
    18    9   11 1
    19    9   12 1
    20   12   13 2
    21   12   14 am
    22   14   15 1
    23   14   33 1
    24   15   20 ar
    25   15   16 ar
    26   16   17 ar
    27   16   34 1
    28   17   18 ar
    29   17   35 1
    30   18   19 ar
    31   18   21 1
    32   19   20 ar
    33   19   36 1
    34   20   37 1
    35   21   26 1
    36   21   22 2
    37   22   23 1
    38   22   38 1
    39   23   24 1
    40   23   25 1
    41   25   26 2
    42   26   39 1
@<TRIPOS>MOLECULE
ZINC40414458
   55    58     0     0     0
SMALL
USER_CHARGES

@<TRIPOS>ATOM
      1 C1         -0.0451    1.4831   -0.0021 C.3       1 <0>        -0.0554
      2 N1         -0.0145    0.0144   -0.0049 N.4       1 <0>        -0.3889
      3 C2          0.6989   -0.4628    1.1873 C.3       1 <0>        -0.0484
      4 C3         -1.3889   -0.5040    0.0067 C.3       1 <0>        -0.0026
      5 C4         -2.0931   -0.1114   -1.2936 C.3       1 <0>         0.0258
      6 O1         -1.4541   -0.7589   -2.3957 O.3       1 <0>        -0.3331
      7 C5         -1.9611   -0.5147   -3.6335 C.ar      1 <0>         0.0973
      8 C6         -3.0444    0.3328   -3.7831 C.ar      1 <0>        -0.1839
      9 C7         -3.5616    0.5811   -5.0525 C.ar      1 <0>         0.0426
     10 C8         -2.9872   -0.0244   -6.1681 C.ar      1 <0>        -0.1214
     11 C9         -1.9068   -0.8693   -6.0163 C.ar      1 <0>        -0.0823
     12 C10        -1.3863   -1.1135   -4.7530 C.ar      1 <0>         0.1190
     13 N2         -0.2855   -1.9674   -4.6025 N.am      1 <0>        -0.6602
     14 C11         0.5684   -2.1533   -5.6286 C.2       1 <0>         0.5228
     15 O2          0.4425   -1.5067   -6.6471 O.2       1 <0>        -0.4763
     16 C12         1.6795   -3.1645   -5.5105 C.3       1 <0>         0.0360
     17 H1          1.2640   -4.1384   -5.2515 H         1 <0>         0.1163
     18 C13         2.6707   -2.7200   -4.4265 C.3       1 <0>         0.0365
     19 O3          3.7181   -3.6932   -4.3505 O.3       1 <0>        -0.2994
     20 C14         4.2547   -4.1075   -5.5307 C.ar      1 <0>         0.0401
     21 C15         5.4832   -4.7514   -5.5312 C.ar      1 <0>        -0.1086
     22 C16         6.0393   -5.1808   -6.7212 C.ar      1 <0>        -0.1101
     23 C17         5.3733   -4.9697   -7.9141 C.ar      1 <0>        -0.1069
     24 C18         4.1496   -4.3275   -7.9208 C.ar      1 <0>        -0.1065
     25 C19         3.5863   -3.8929   -6.7301 C.ar      1 <0>         0.0489
     26 O4          2.3839   -3.2552   -6.7536 O.3       1 <0>        -0.2775
     27 C20        -4.7244    1.4898   -5.2163 C.2       1 <0>        -0.2179
     28 C21        -5.3330    1.8160   -6.3929 C.2       1 <0>         0.0917
     29 N3         -6.3432    2.6632   -6.1085 N.pl3     1 <0>        -0.4646
     30 H2         -6.9505    3.0607   -6.7521 H         1 <0>         0.4477
     31 N4         -6.3644    2.8693   -4.7238 N.2       1 <0>        -0.2844
     32 C22        -5.4034    2.1667   -4.1847 C.2       1 <0>         0.0657
     33 H3          0.9747    1.8678   -0.0107 H         1 <0>         0.1273
     34 H4         -0.5745    1.8372   -0.8867 H         1 <0>         0.1227
     35 H5         -0.5583    1.8341    0.8932 H         1 <0>         0.1256
     36 H6          0.1857   -0.1118    2.0826 H         1 <0>         0.1239
     37 H7          0.7216   -1.5525    1.1852 H         1 <0>         0.1250
     38 H8          1.7187   -0.0781    1.1787 H         1 <0>         0.1260
     39 H9         -1.3668   -1.5903    0.0942 H         1 <0>         0.1430
     40 H10        -1.9292   -0.0822    0.8542 H         1 <0>         0.1507
     41 H11        -3.1380   -0.4184   -1.2480 H         1 <0>         0.1116
     42 H12        -2.0373    0.9692   -1.4250 H         1 <0>         0.0892
     43 H13        -3.4885    0.8009   -2.9171 H         1 <0>         0.1331
     44 H14        -3.3880    0.1674   -7.1525 H         1 <0>         0.1339
     45 H15        -1.4630   -1.3380   -6.8821 H         1 <0>         0.1578
     46 H16        -0.1380   -2.4247   -3.7599 H         1 <0>         0.4118
     47 H17         3.0900   -1.7484   -4.6880 H         1 <0>         0.0851
     48 H18         2.1598   -2.6540   -3.4659 H         1 <0>         0.1190
     49 H19         6.0058   -4.9170   -4.6007 H         1 <0>         0.1375
     50 H20         6.9961   -5.6818   -6.7193 H         1 <0>         0.1377
     51 H21         5.8101   -5.3070   -8.8425 H         1 <0>         0.1385
     52 H22         3.6313   -4.1639   -8.8541 H         1 <0>         0.1396
     53 H23        -5.0557    1.4608   -7.3744 H         1 <0>         0.1850
     54 H24        -5.1689    2.1162   -3.1317 H         1 <0>         0.1821
     55 H25         0.4605   -0.3105   -0.8337 H         1 <0>         0.4318
@<TRIPOS>BOND
     1    1    2 1
     2    1   33 1
     3    1   34 1
     4    1   35 1
     5    2    3 1
     6    2    4 1
     7    2   55 1
     8    3   36 1
     9    3   37 1
    10    3   38 1
    11    4    5 1
    12    4   39 1
    13    4   40 1
    14    5    6 1
    15    5   41 1
    16    5   42 1
    17    6    7 1
    18    7   12 ar
    19    7    8 ar
    20    8    9 ar
    21    8   43 1
    22    9   10 ar
    23    9   27 1
    24   10   11 ar
    25   10   44 1
    26   11   12 ar
    27   11   45 1
    28   12   13 1
    29   13   14 am
    30   13   46 1
    31   14   15 2
    32   14   16 1
    33   16   17 1
    34   16   26 1
    35   16   18 1
    36   18   19 1
    37   18   47 1
    38   18   48 1
    39   19   20 1
    40   20   25 ar
    41   20   21 ar
    42   21   22 ar
    43   21   49 1
    44   22   23 ar
    45   22   50 1
    46   23   24 ar
    47   23   51 1
    48   24   25 ar
    49   24   52 1
    50   25   26 1
    51   27   32 1
    52   27   28 2
    53   28   29 1
    54   28   53 1
    55   29   30 1
    56   29   31 1
    57   31   32 2
    58   32   54 1
@<TRIPOS>MOLECULE
ZINC40414461
   55    58     0     0     0
SMALL
USER_CHARGES

@<TRIPOS>ATOM
      1 C1         -0.0452    1.4834   -0.0023 C.3       1 <0>        -0.0552
      2 N1         -0.0145    0.0147   -0.0050 N.4       1 <0>        -0.3890
      3 C2          0.6989   -0.4624    1.1872 C.3       1 <0>        -0.0481
      4 C3         -1.3889   -0.5038    0.0066 C.3       1 <0>        -0.0025
      5 C4         -2.0932   -0.1113   -1.2937 C.3       1 <0>         0.0259
      6 O1         -1.4542   -0.7588   -2.3957 O.3       1 <0>        -0.3328
      7 C5         -1.9611   -0.5147   -3.6336 C.ar      1 <0>         0.0975
      8 C6         -3.0445    0.3327   -3.7832 C.ar      1 <0>        -0.1839
      9 C7         -3.5617    0.5809   -5.0525 C.ar      1 <0>         0.0427
     10 C8         -2.9873   -0.0246   -6.1682 C.ar      1 <0>        -0.1214
     11 C9         -1.9069   -0.8695   -6.0163 C.ar      1 <0>        -0.0825
     12 C10        -1.3863   -1.1136   -4.7530 C.ar      1 <0>         0.1191
     13 N2         -0.2855   -1.9674   -4.6025 N.am      1 <0>        -0.6604
     14 C11         0.5684   -2.1533   -5.6286 C.2       1 <0>         0.5225
     15 O2          0.4425   -1.5067   -6.6471 O.2       1 <0>        -0.4764
     16 C12         1.6795   -3.1645   -5.5105 C.3       1 <0>         0.0385
     17 H1          2.2767   -2.9524   -4.6237 H         1 <0>         0.1109
     18 C13         1.0859   -4.5761   -5.4090 C.3       1 <0>         0.0340
     19 O3          2.1662   -5.5108   -5.3126 O.3       1 <0>        -0.2979
     20 C14         3.1965   -5.3469   -6.1868 C.ar      1 <0>         0.0419
     21 C15         4.0809   -6.3937   -6.4005 C.ar      1 <0>        -0.1088
     22 C16         5.1338   -6.2413   -7.2826 C.ar      1 <0>        -0.1096
     23 C17         5.3084   -5.0457   -7.9544 C.ar      1 <0>        -0.1085
     24 C18         4.4299   -3.9992   -7.7471 C.ar      1 <0>        -0.1071
     25 C19         3.3704   -4.1459   -6.8640 C.ar      1 <0>         0.0470
     26 O4          2.5091   -3.1086   -6.6760 O.3       1 <0>        -0.2785
     27 C20        -4.7246    1.4895   -5.2164 C.2       1 <0>        -0.2179
     28 C21        -5.3332    1.8157   -6.3930 C.2       1 <0>         0.0917
     29 N3         -6.3434    2.6628   -6.1086 N.pl3     1 <0>        -0.4646
     30 H2         -6.9508    3.0602   -6.7522 H         1 <0>         0.4477
     31 N4         -6.3647    2.8690   -4.7239 N.2       1 <0>        -0.2844
     32 C22        -5.4036    2.1665   -4.1848 C.2       1 <0>         0.0657
     33 H3          0.9746    1.8681   -0.0109 H         1 <0>         0.1272
     34 H4         -0.5746    1.8373   -0.8869 H         1 <0>         0.1226
     35 H5         -0.5584    1.8344    0.8930 H         1 <0>         0.1255
     36 H6          0.1858   -0.1114    2.0825 H         1 <0>         0.1238
     37 H7          0.7217   -1.5522    1.1851 H         1 <0>         0.1248
     38 H8          1.7187   -0.0777    1.1785 H         1 <0>         0.1258
     39 H9         -1.3667   -1.5901    0.0942 H         1 <0>         0.1428
     40 H10        -1.9292   -0.0820    0.8541 H         1 <0>         0.1505
     41 H11        -3.1380   -0.4183   -1.2480 H         1 <0>         0.1116
     42 H12        -2.0374    0.9693   -1.4252 H         1 <0>         0.0891
     43 H13        -3.4886    0.8009   -2.9172 H         1 <0>         0.1331
     44 H14        -3.3882    0.1671   -7.1525 H         1 <0>         0.1338
     45 H15        -1.4631   -1.3382   -6.8821 H         1 <0>         0.1573
     46 H16        -0.1380   -2.4247   -3.7599 H         1 <0>         0.4122
     47 H17         0.4575   -4.6477   -4.5213 H         1 <0>         0.1249
     48 H18         0.4928   -4.7903   -6.2981 H         1 <0>         0.0877
     49 H19         3.9469   -7.3287   -5.8769 H         1 <0>         0.1382
     50 H20         5.8212   -7.0578   -7.4477 H         1 <0>         0.1376
     51 H21         6.1329   -4.9291   -8.6421 H         1 <0>         0.1379
     52 H22         4.5686   -3.0662   -8.2731 H         1 <0>         0.1386
     53 H23        -5.0559    1.4604   -7.3745 H         1 <0>         0.1849
     54 H24        -5.1691    2.1161   -3.1318 H         1 <0>         0.1821
     55 H25         0.4605   -0.3103   -0.8338 H         1 <0>         0.4323
@<TRIPOS>BOND
     1    1    2 1
     2    1   33 1
     3    1   34 1
     4    1   35 1
     5    2    3 1
     6    2    4 1
     7    2   55 1
     8    3   36 1
     9    3   37 1
    10    3   38 1
    11    4    5 1
    12    4   39 1
    13    4   40 1
    14    5    6 1
    15    5   41 1
    16    5   42 1
    17    6    7 1
    18    7   12 ar
    19    7    8 ar
    20    8    9 ar
    21    8   43 1
    22    9   10 ar
    23    9   27 1
    24   10   11 ar
    25   10   44 1
    26   11   12 ar
    27   11   45 1
    28   12   13 1
    29   13   14 am
    30   13   46 1
    31   14   15 2
    32   14   16 1
    33   16   17 1
    34   16   26 1
    35   16   18 1
    36   18   19 1
    37   18   47 1
    38   18   48 1
    39   19   20 1
    40   20   25 ar
    41   20   21 ar
    42   21   22 ar
    43   21   49 1
    44   22   23 ar
    45   22   50 1
    46   23   24 ar
    47   23   51 1
    48   24   25 ar
    49   24   52 1
    50   25   26 1
    51   27   32 1
    52   27   28 2
    53   28   29 1
    54   28   53 1
    55   29   30 1
    56   29   31 1
    57   31   32 2
    58   32   54 1
@<TRIPOS>MOLECULE
ZINC03964325
   57    59     0     0     0
SMALL
USER_CHARGES

@<TRIPOS>ATOM
      1 C1          0.1489    2.0884    0.1150 C.3       1 <0>        -0.1876
      2 C2          0.1348    0.5603    0.1888 C.3       1 <0>        -0.0191
      3 N1         -1.2520    0.0881    0.2979 N.4       1 <0>        -0.3822
      4 C3         -1.9779    0.4111   -0.9377 C.3       1 <0>        -0.0142
      5 C4         -3.4549    0.0484   -0.7712 C.3       1 <0>        -0.1895
      6 C5         -1.2593   -1.3663    0.5041 C.3       1 <0>        -0.0265
      7 C6         -0.6131   -1.6936    1.8518 C.3       1 <0>         0.0952
      8 N2         -0.6203   -3.1440    2.0575 N.am      1 <0>        -0.7289
      9 C7         -0.0988   -3.6675    3.1846 C.2       1 <0>         0.6111
     10 O1          0.3779   -2.9358    4.0309 O.2       1 <0>        -0.5184
     11 C8         -0.1061   -5.1270    3.3915 C.2       1 <0>        -0.2420
     12 C9          0.9071   -6.0320    3.0089 C.2       1 <0>        -0.0577
     13 C10         0.4868   -7.2892    3.3960 C.2       1 <0>        -0.0075
     14 N3         -0.7476   -7.1595    3.9982 N.pl3     1 <0>        -0.4910
     15 H1         -1.2731   -7.8879    4.3645 H         1 <0>         0.4270
     16 C11        -1.1044   -5.8642    4.0022 C.2       1 <0>         0.1158
     17 C12        -2.3825   -5.3072    4.5743 C.3       1 <0>        -0.0999
     18 C13         1.1957   -8.4957    3.2079 C.2       1 <0>         0.0729
     19 C14         0.5100   -9.6674    2.9570 C.2       1 <0>        -0.1889
     20 C15         1.0648  -11.0377    2.8871 C.ar      1 <0>        -0.0736
     21 C16         2.3472  -11.5557    3.0375 C.ar      1 <0>        -0.1000
     22 C17         2.5553  -12.9162    2.9116 C.ar      1 <0>         0.0861
     23 C18         1.4888  -13.7593    2.6366 C.ar      1 <0>        -0.1139
     24 C19         0.2139  -13.2531    2.4856 C.ar      1 <0>        -0.1021
     25 C20        -0.0144  -11.8871    2.6092 C.ar      1 <0>         0.1282
     26 N4         -1.1765  -11.1301    2.5069 N.am      1 <0>        -0.6466
     27 C21        -0.9294   -9.8245    2.7079 C.2       1 <0>         0.5595
     28 O2         -1.7538   -8.9280    2.6842 O.2       1 <0>        -0.5156
     29 F1          3.7984  -13.4252    3.0561 F         1 <0>        -0.1318
     30 C22         2.1990   -5.6919    2.3116 C.3       1 <0>        -0.0931
     31 H2          1.1793    2.4435    0.1331 H         1 <0>         0.1076
     32 H3         -0.3308    2.4121   -0.8087 H         1 <0>         0.0811
     33 H4         -0.3916    2.4984    0.9682 H         1 <0>         0.0809
     34 H5          0.5888    0.1488   -0.7126 H         1 <0>         0.1317
     35 H6          0.6996    0.2334    1.0619 H         1 <0>         0.1337
     36 H7         -1.8867    1.4775   -1.1444 H         1 <0>         0.1351
     37 H8         -1.5554   -0.1571   -1.7664 H         1 <0>         0.1307
     38 H9         -3.5537   -1.0316   -0.6617 H         1 <0>         0.0802
     39 H10        -3.8523    0.5414    0.1160 H         1 <0>         0.0808
     40 H11        -4.0109    0.3769   -1.6492 H         1 <0>         0.1074
     41 H12        -2.2871   -1.7292    0.4963 H         1 <0>         0.1397
     42 H13        -0.6973   -1.8494   -0.2952 H         1 <0>         0.1376
     43 H14         0.4147   -1.3306    1.8596 H         1 <0>         0.0893
     44 H15        -1.1751   -1.2105    2.6511 H         1 <0>         0.0890
     45 H16        -1.0005   -3.7277    1.3824 H         1 <0>         0.4099
     46 H17        -3.1529   -5.3000    3.8032 H         1 <0>         0.0840
     47 H18        -2.7087   -5.9289    5.4080 H         1 <0>         0.0782
     48 H19        -2.2103   -4.2898    4.9254 H         1 <0>         0.0840
     49 H20         2.2744   -8.5020    3.2604 H         1 <0>         0.1589
     50 H21         3.1765  -10.8977    3.2512 H         1 <0>         0.1436
     51 H22         1.6578  -14.8215    2.5394 H         1 <0>         0.1485
     52 H23        -0.6084  -13.9196    2.2712 H         1 <0>         0.1415
     53 H24        -2.0541  -11.4980    2.3189 H         1 <0>         0.4217
     54 H25         2.9686   -5.4822    3.0545 H         1 <0>         0.0785
     55 H26         2.5107   -6.5337    1.6932 H         1 <0>         0.0726
     56 H27         2.0522   -4.8138    1.6827 H         1 <0>         0.0634
     57 H28        -1.7009    0.5410    1.0799 H         1 <0>         0.4247
@<TRIPOS>BOND
     1    1    2 1
     2    1   31 1
     3    1   32 1
     4    1   33 1
     5    2    3 1
     6    2   34 1
     7    2   35 1
     8    3    4 1
     9    3    6 1
    10    3   57 1
    11    4    5 1
    12    4   36 1
    13    4   37 1
    14    5   38 1
    15    5   39 1
    16    5   40 1
    17    6    7 1
    18    6   41 1
    19    6   42 1
    20    7    8 1
    21    7   43 1
    22    7   44 1
    23    8    9 am
    24    8   45 1
    25    9   10 2
    26    9   11 1
    27   11   16 2
    28   11   12 1
    29   12   13 2
    30   12   30 1
    31   13   14 1
    32   13   18 1
    33   14   15 1
    34   14   16 1
    35   16   17 1
    36   17   46 1
    37   17   47 1
    38   17   48 1
    39   18   19 2
    40   18   49 1
    41   19   27 1
    42   19   20 1
    43   20   25 ar
    44   20   21 ar
    45   21   22 ar
    46   21   50 1
    47   22   23 ar
    48   22   29 1
    49   23   24 ar
    50   23   51 1
    51   24   25 ar
    52   24   52 1
    53   25   26 1
    54   26   27 am
    55   26   53 1
    56   27   28 2
    57   30   54 1
    58   30   55 1
    59   30   56 1
@<TRIPOS>MOLECULE
ZINC45254824
   59    62     0     0     0
SMALL
USER_CHARGES

@<TRIPOS>ATOM
      1 C1         -3.0524    0.8507    0.8430 C.3       1 <0>        -0.0777
      2 C2         -2.4167   -0.4997    0.6349 C.2       1 <0>        -0.1346
      3 C3         -2.9361   -1.5324   -0.0488 C.2       1 <0>         0.0511
      4 N1         -2.0676   -2.5928   -0.0197 N.pl3     1 <0>        -0.5716
      5 H1         -2.2232   -3.4510   -0.4442 H         1 <0>         0.4241
      6 C4         -0.9494   -2.2627    0.6955 C.ar      1 <0>         0.3229
      7 C5         -1.1133   -0.9353    1.1329 C.ar      1 <0>        -0.2041
      8 C6         -0.0916   -0.3460    1.8927 C.ar      1 <0>         0.4790
      9 N2          0.9909   -1.0695    2.1634 N.ar      1 <0>        -0.5500
     10 C7          1.1055   -2.3119    1.7299 C.ar      1 <0>         0.3284
     11 N3          0.1698   -2.9070    1.0221 N.ar      1 <0>        -0.5357
     12 N4         -0.2071    0.9549    2.3485 N.pl3     1 <0>        -0.6567
     13 C8          0.1720    2.0850    1.4889 C.3       1 <0>         0.1365
     14 C9          1.2054    2.9408    2.2319 C.3       1 <0>         0.0933
     15 N5          0.7007    3.2176    3.5842 N.am      1 <0>        -0.6167
     16 C10         0.3216    2.0875    4.4438 C.3       1 <0>         0.1470
     17 H2          1.2026    1.4857    4.6667 H         1 <0>         0.0806
     18 C11        -0.7171    1.2319    3.6987 C.3       1 <0>         0.1401
     19 C12        -0.2838    2.6138    5.7466 C.3       1 <0>        -0.1377
     20 C13         0.5881    4.4851    4.0282 C.2       1 <0>         0.7087
     21 O1          0.2797    4.6991    5.1846 O.2       1 <0>        -0.5590
     22 N6          0.8175    5.5156    3.1902 N.am      1 <0>        -0.6877
     23 C14         0.8477    6.8249    3.6832 C.ar      1 <0>         0.1839
     24 C15         1.3293    7.0757    4.9620 C.ar      1 <0>        -0.1125
     25 C16         1.3586    8.3680    5.4487 C.ar      1 <0>        -0.0828
     26 C17         0.9093    9.4145    4.6656 C.ar      1 <0>        -0.1345
     27 C18         0.4277    9.1699    3.3875 C.ar      1 <0>         0.1244
     28 C19         0.4020    7.8750    2.8934 C.ar      1 <0>        -0.1477
     29 O2         -0.0143   10.2001    2.6186 O.3       1 <0>        -0.3047
     30 C20         0.9046   11.0014    2.0462 C.2       1 <0>         0.6441
     31 O3          2.0868   10.7394    2.1475 O.2       1 <0>        -0.5506
     32 N7          0.5128   12.0938    1.3609 N.am      1 <0>        -0.6008
     33 C21         1.5122   12.9654    0.7383 C.3       1 <0>         0.1040
     34 C22        -0.9125   12.4097    1.2387 C.3       1 <0>         0.0795
     35 H3         -2.6894    1.5441    0.0844 H         1 <0>         0.0645
     36 H4         -4.1356    0.7587    0.7626 H         1 <0>         0.0646
     37 H5         -2.7922    1.2262    1.8327 H         1 <0>         0.0686
     38 H6         -3.8944   -1.5281   -0.5469 H         1 <0>         0.1823
     39 H7          2.0013   -2.8643    1.9723 H         1 <0>         0.2005
     40 H8          0.6061    1.7101    0.5620 H         1 <0>         0.0821
     41 H9         -0.7090    2.6868    1.2659 H         1 <0>         0.0661
     42 H10         2.1494    2.3998    2.2973 H         1 <0>         0.0818
     43 H11         1.3550    3.8793    1.6981 H         1 <0>         0.0825
     44 H12        -1.6600    1.7744    3.6295 H         1 <0>         0.0662
     45 H13        -0.8703    0.2935    4.2315 H         1 <0>         0.0815
     46 H14        -1.0947    3.3051    5.5172 H         1 <0>         0.0702
     47 H15        -0.6721    1.7791    6.3301 H         1 <0>         0.0471
     48 H16         0.4842    3.1323    6.3207 H         1 <0>         0.0808
     49 H17         0.9616    5.3496    2.2455 H         1 <0>         0.4047
     50 H18         1.6806    6.2597    5.5760 H         1 <0>         0.1417
     51 H19         1.7330    8.5611    6.4431 H         1 <0>         0.1356
     52 H20         0.9328   10.4239    5.0491 H         1 <0>         0.1283
     53 H21         0.0316    7.6833    1.8972 H         1 <0>         0.1321
     54 H22         2.0918   12.3937    0.0134 H         1 <0>         0.0660
     55 H23         1.0104   13.7904    0.2327 H         1 <0>         0.0861
     56 H24         2.1781   13.3605    1.5054 H         1 <0>         0.0663
     57 H25        -1.2162   13.0463    2.0698 H         1 <0>         0.0612
     58 H26        -1.0898   12.9311    0.2981 H         1 <0>         0.0775
     59 H27        -1.4921   11.4868    1.2573 H         1 <0>         0.0791
@<TRIPOS>BOND
     1    1    2 1
     2    1   35 1
     3    1   36 1
     4    1   37 1
     5    2    7 1
     6    2    3 2
     7    3    4 1
     8    3   38 1
     9    4    5 1
    10    4    6 1
    11    6   11 ar
    12    6    7 ar
    13    7    8 ar
    14    8    9 ar
    15    8   12 1
    16    9   10 ar
    17   10   11 ar
    18   10   39 1
    19   12   18 1
    20   12   13 1
    21   13   14 1
    22   13   40 1
    23   13   41 1
    24   14   15 1
    25   14   42 1
    26   14   43 1
    27   15   16 1
    28   15   20 am
    29   16   17 1
    30   16   18 1
    31   16   19 1
    32   18   44 1
    33   18   45 1
    34   19   46 1
    35   19   47 1
    36   19   48 1
    37   20   21 2
    38   20   22 am
    39   22   23 1
    40   22   49 1
    41   23   28 ar
    42   23   24 ar
    43   24   25 ar
    44   24   50 1
    45   25   26 ar
    46   25   51 1
    47   26   27 ar
    48   26   52 1
    49   27   28 ar
    50   27   29 1
    51   28   53 1
    52   29   30 1
    53   30   31 2
    54   30   32 am
    55   32   33 1
    56   32   34 1
    57   33   54 1
    58   33   55 1
    59   33   56 1
    60   34   57 1
    61   34   58 1
    62   34   59 1
@<TRIPOS>MOLECULE
ZINC45254830
   50    53     0     0     0
SMALL
USER_CHARGES

@<TRIPOS>ATOM
      1 C1         -3.6570    1.8706    1.1848 C.3       1 <0>        -0.0765
      2 C2         -3.2550    0.6168    0.4518 C.2       1 <0>        -0.1354
      3 C3         -4.0718   -0.2249   -0.2026 C.2       1 <0>         0.0511
      4 N1         -3.3433   -1.2526   -0.7436 N.pl3     1 <0>        -0.5719
      5 H1         -3.7135   -1.9841   -1.2620 H         1 <0>         0.4240
      6 C4         -2.0177   -1.0946   -0.4456 C.ar      1 <0>         0.3223
      7 C5         -1.9003    0.0860    0.3111 C.ar      1 <0>        -0.2037
      8 C6         -0.6266    0.4838    0.7445 C.ar      1 <0>         0.4790
      9 N2          0.4165   -0.2734    0.4168 N.ar      1 <0>        -0.5484
     10 C7          0.2617   -1.3729   -0.2985 C.ar      1 <0>         0.3282
     11 N3         -0.9138   -1.7882   -0.7187 N.ar      1 <0>        -0.5359
     12 N4         -0.4598    1.6347    1.4934 N.pl3     1 <0>        -0.6537
     13 C8         -0.3285    2.9425    0.8358 C.3       1 <0>         0.1358
     14 C9          0.9717    3.6020    1.3119 C.3       1 <0>         0.1270
     15 N5          1.0203    3.5391    2.7794 N.pl3     1 <0>        -0.6788
     16 C10         0.8890    2.2313    3.4370 C.3       1 <0>         0.1472
     17 H2          1.7376    1.6012    3.1708 H         1 <0>         0.0858
     18 C11        -0.4169    1.5724    2.9611 C.3       1 <0>         0.1401
     19 C12         0.8467    2.4216    4.9545 C.3       1 <0>        -0.1720
     20 C13         1.1857    4.6809    3.5224 C.2       1 <0>         0.6547
     21 N6          0.0901    5.3129    4.0668 N.pl3     1 <0>        -0.5870
     22 C14         0.2412    6.4939    4.7136 C.1       1 <0>         0.4213
     23 N7          0.3680    7.4840    5.2559 N.1       1 <0>        -0.3937
     24 N8          2.3878    5.1705    3.7140 N.2       1 <0>        -0.5449
     25 C15         3.4661    4.6037    3.0875 C.ar      1 <0>         0.1388
     26 C16         3.7765    3.2596    3.3046 C.ar      1 <0>        -0.1241
     27 C17         4.8636    2.6946    2.6709 C.ar      1 <0>        -0.0971
     28 C18         5.6463    3.4563    1.8213 C.ar      1 <0>        -0.1044
     29 C19         5.3446    4.7893    1.6013 C.ar      1 <0>        -0.0746
     30 C20         4.2559    5.3655    2.2249 C.ar      1 <0>        -0.0932
     31 Br1         6.4214    5.8211    0.4387 Br        1 <0>        -0.0491
     32 H3         -3.5385    2.7306    0.5256 H         1 <0>         0.0649
     33 H4         -4.6988    1.7917    1.4954 H         1 <0>         0.0638
     34 H5         -3.0244    1.9965    2.0635 H         1 <0>         0.0683
     35 H6         -5.1421   -0.1094   -0.2895 H         1 <0>         0.1817
     36 H7          1.1353   -1.9590   -0.5426 H         1 <0>         0.1995
     37 H8         -0.2953    2.8067   -0.2452 H         1 <0>         0.0786
     38 H9         -1.1771    3.5726    1.1020 H         1 <0>         0.0647
     39 H10         1.8263    3.0695    0.8944 H         1 <0>         0.0732
     40 H11         0.9932    4.6431    0.9895 H         1 <0>         0.0807
     41 H12        -1.2716    2.1073    3.3751 H         1 <0>         0.0642
     42 H13        -0.4421    0.5317    3.2840 H         1 <0>         0.0787
     43 H14         0.0278    3.0926    5.2139 H         1 <0>         0.0646
     44 H15         0.6927    1.4566    5.4375 H         1 <0>         0.0807
     45 H16         1.7895    2.8510    5.2932 H         1 <0>         0.0668
     46 H17         3.1669    2.6638    3.9677 H         1 <0>         0.1282
     47 H18         5.1047    1.6553    2.8385 H         1 <0>         0.1308
     48 H19         6.4965    3.0090    1.3280 H         1 <0>         0.1311
     49 H20         4.0185    6.4043    2.0492 H         1 <0>         0.1323
     50 H21        -0.7898    4.9126    3.9872 H         1 <0>         0.4363
@<TRIPOS>BOND
     1    1    2 1
     2    1   32 1
     3    1   33 1
     4    1   34 1
     5    2    7 1
     6    2    3 2
     7    3    4 1
     8    3   35 1
     9    4    5 1
    10    4    6 1
    11    6   11 ar
    12    6    7 ar
    13    7    8 ar
    14    8    9 ar
    15    8   12 1
    16    9   10 ar
    17   10   11 ar
    18   10   36 1
    19   12   18 1
    20   12   13 1
    21   13   14 1
    22   13   37 1
    23   13   38 1
    24   14   15 1
    25   14   39 1
    26   14   40 1
    27   15   16 1
    28   15   20 1
    29   16   17 1
    30   16   18 1
    31   16   19 1
    32   18   41 1
    33   18   42 1
    34   19   43 1
    35   19   44 1
    36   19   45 1
    37   20   21 1
    38   20   24 2
    39   21   22 1
    40   21   50 1
    41   22   23 3
    42   24   25 1
    43   25   30 ar
    44   25   26 ar
    45   26   27 ar
    46   26   46 1
    47   27   28 ar
    48   27   47 1
    49   28   29 ar
    50   28   48 1
    51   29   30 ar
    52   29   31 1
    53   30   49 1
@<TRIPOS>MOLECULE
ZINC45373881
   58    61     0     0     0
SMALL
USER_CHARGES

@<TRIPOS>ATOM
      1 C1          0.1002    1.2567    0.0923 C.ar      1 <0>        -0.1252
      2 C2          1.2934    1.9571    0.0646 C.ar      1 <0>        -0.0680
      3 C3          2.4971    1.2912    0.2113 C.ar      1 <0>        -0.1185
      4 C4          2.5150   -0.0773    0.3866 C.ar      1 <0>        -0.0353
      5 C5          1.3152   -0.7897    0.4160 C.ar      1 <0>        -0.1379
      6 C6          0.1040   -0.1115    0.2672 C.ar      1 <0>        -0.0753
      7 C7          1.3269   -2.2559    0.6028 C.2       1 <0>         0.5599
      8 O1          2.3831   -2.8439    0.7313 O.2       1 <0>        -0.5122
      9 N1          0.1665   -2.9409    0.6308 N.am      1 <0>        -0.6685
     10 C8          0.1805   -4.3371    0.7092 C.ar      1 <0>         0.1396
     11 C9          1.1584   -4.9843    1.4540 C.ar      1 <0>        -0.1159
     12 C10         1.1656   -6.3614    1.5244 C.ar      1 <0>        -0.1022
     13 C11         0.2024   -7.1046    0.8572 C.ar      1 <0>        -0.0791
     14 C12        -0.7720   -6.4656    0.1198 C.ar      1 <0>        -0.0621
     15 C13        -0.7850   -5.0814    0.0484 C.ar      1 <0>        -0.1393
     16 C14        -1.8446   -7.2299   -0.6113 C.3       1 <0>         0.0968
     17 N2         -1.4574   -8.6354   -0.7684 N.3       1 <0>        -0.6854
     18 C15        -1.0818   -9.2092    0.5336 C.3       1 <0>         0.0527
     19 C16         0.2572   -8.6075    0.9609 C.3       1 <0>        -0.0775
     20 C17         3.7916    2.0621    0.1793 C.3       1 <0>         0.1793
     21 N3          4.1408    2.4867    1.5372 N.am      1 <0>        -0.7362
     22 C18         5.2665    3.1957    1.7530 C.2       1 <0>         0.7039
     23 O2          5.9921    3.4830    0.8207 O.2       1 <0>        -0.5639
     24 N4          5.5879    3.5863    3.0023 N.am      1 <0>        -0.6853
     25 C19         6.6933    4.4097    3.2126 C.ar      1 <0>         0.1967
     26 C20         7.0375    5.3657    2.2622 C.ar      1 <0>        -0.1299
     27 C21         8.1282    6.1803    2.4668 C.ar      1 <0>        -0.0346
     28 C22         8.8898    6.0464    3.6309 C.ar      1 <0>        -0.1612
     29 C23         8.5410    5.0854    4.5838 C.ar      1 <0>        -0.0624
     30 C24         7.4462    4.2773    4.3752 C.ar      1 <0>        -0.1578
     31 C25        10.0601    6.9176    3.8534 C.2       1 <0>         0.5649
     32 O3         10.3626    7.7530    3.0233 O.2       1 <0>        -0.5403
     33 N5         10.7935    6.7872    4.9766 N.am      1 <0>        -0.8524
     34 H1         -0.8363    1.7831   -0.0187 H         1 <0>         0.1354
     35 H2          1.2849    3.0283   -0.0727 H         1 <0>         0.1332
     36 H3          3.4554   -0.5960    0.5003 H         1 <0>         0.1407
     37 H4         -0.8279   -0.6569    0.2887 H         1 <0>         0.1282
     38 H5         -0.6783   -2.4655    0.5966 H         1 <0>         0.4095
     39 H6          1.9104   -4.4109    1.9758 H         1 <0>         0.1386
     40 H7          1.9263   -6.8649    2.1025 H         1 <0>         0.1267
     41 H8         -1.5484   -4.5802   -0.5282 H         1 <0>         0.1253
     42 H9         -2.7749   -7.1742   -0.0459 H         1 <0>         0.0460
     43 H10        -1.9953   -6.7862   -1.5954 H         1 <0>         0.0885
     44 H11        -2.1982   -9.1686   -1.1984 H         1 <0>         0.3487
     45 H12        -1.8447   -8.9679    1.2738 H         1 <0>         0.0373
     46 H13        -0.9848  -10.2910    0.4427 H         1 <0>         0.0814
     47 H14         1.0475   -8.9863    0.3129 H         1 <0>         0.0844
     48 H15         0.4691   -8.8916    1.9917 H         1 <0>         0.0783
     49 H16         4.5832    1.4266   -0.2176 H         1 <0>         0.0827
     50 H17         3.6763    2.9394   -0.4573 H         1 <0>         0.0835
     51 H18         3.5619    2.2575    2.2810 H         1 <0>         0.4001
     52 H19         5.0501    3.2946    3.7550 H         1 <0>         0.4098
     53 H20         6.4486    5.4687    1.3628 H         1 <0>         0.1438
     54 H21         8.3953    6.9217    1.7283 H         1 <0>         0.1406
     55 H22         9.1276    4.9791    5.4843 H         1 <0>         0.1308
     56 H23         7.1736    3.5372    5.1130 H         1 <0>         0.1330
     57 H24        10.5522    6.1208    5.6388 H         1 <0>         0.4002
     58 H25        11.5627    7.3598    5.1228 H         1 <0>         0.4057
@<TRIPOS>BOND
     1    1    6 ar
     2    1    2 ar
     3    1   34 1
     4    2    3 ar
     5    2   35 1
     6    3    4 ar
     7    3   20 1
     8    4    5 ar
     9    4   36 1
    10    5    6 ar
    11    5    7 1
    12    6   37 1
    13    7    8 2
    14    7    9 am
    15    9   10 1
    16    9   38 1
    17   10   15 ar
    18   10   11 ar
    19   11   12 ar
    20   11   39 1
    21   12   13 ar
    22   12   40 1
    23   13   19 1
    24   13   14 ar
    25   14   15 ar
    26   14   16 1
    27   15   41 1
    28   16   17 1
    29   16   42 1
    30   16   43 1
    31   17   18 1
    32   17   44 1
    33   18   19 1
    34   18   45 1
    35   18   46 1
    36   19   47 1
    37   19   48 1
    38   20   21 1
    39   20   49 1
    40   20   50 1
    41   21   22 am
    42   21   51 1
    43   22   23 2
    44   22   24 am
    45   24   25 1
    46   24   52 1
    47   25   30 ar
    48   25   26 ar
    49   26   27 ar
    50   26   53 1
    51   27   28 ar
    52   27   54 1
    53   28   29 ar
    54   28   31 1
    55   29   30 ar
    56   29   55 1
    57   30   56 1
    58   31   32 2
    59   31   33 am
    60   33   57 1
    61   33   58 1
@<TRIPOS>MOLECULE
ZINC45373881
   59    62     0     0     0
SMALL
USER_CHARGES

@<TRIPOS>ATOM
      1 C1          0.0986    1.2547    0.0906 C.ar      1 <0>        -0.1238
      2 C2          1.2909    1.9565    0.0615 C.ar      1 <0>        -0.0611
      3 C3          2.4955    1.2922    0.2079 C.ar      1 <0>        -0.1144
      4 C4          2.5153   -0.0761    0.3842 C.ar      1 <0>        -0.0325
      5 C5          1.3164   -0.7900    0.4150 C.ar      1 <0>        -0.1478
      6 C6          0.1042   -0.1134    0.2666 C.ar      1 <0>        -0.0751
      7 C7          1.3300   -2.2561    0.6030 C.2       1 <0>         0.5670
      8 O1          2.3870   -2.8426    0.7312 O.2       1 <0>        -0.5079
      9 N1          0.1705   -2.9425    0.6324 N.am      1 <0>        -0.6749
     10 C8          0.1863   -4.3386    0.7118 C.ar      1 <0>         0.1674
     11 C9          1.1652   -4.9836    1.4570 C.ar      1 <0>        -0.0966
     12 C10         1.1742   -6.3609    1.5292 C.ar      1 <0>        -0.0827
     13 C11         0.2118   -7.1049    0.8631 C.ar      1 <0>        -0.1079
     14 C12        -0.7637   -6.4682    0.1243 C.ar      1 <0>        -0.1159
     15 C13        -0.7788   -5.0843    0.0517 C.ar      1 <0>        -0.1242
     16 C14        -1.8322   -7.2378   -0.6067 C.3       1 <0>         0.0485
     17 N2         -1.4306   -8.6360   -0.7849 N.4       1 <0>        -0.5044
     18 C15        -1.0751   -9.2028    0.5250 C.3       1 <0>        -0.0035
     19 C16         0.2627   -8.6081    0.9666 C.3       1 <0>        -0.1052
     20 C17         3.7890    2.0647    0.1743 C.3       1 <0>         0.1776
     21 N3          4.1388    2.4907    1.5317 N.am      1 <0>        -0.7382
     22 C18         5.2637    3.2013    1.7461 C.2       1 <0>         0.7041
     23 O2          5.9883    3.4887    0.8131 O.2       1 <0>        -0.5621
     24 N4          5.5855    3.5932    2.9948 N.am      1 <0>        -0.6843
     25 C19         6.6900    4.4182    3.2037 C.ar      1 <0>         0.1930
     26 C20         7.0324    5.3739    2.2523 C.ar      1 <0>        -0.1293
     27 C21         8.1223    6.1900    2.4555 C.ar      1 <0>        -0.0346
     28 C22         8.8849    6.0579    3.6192 C.ar      1 <0>        -0.1580
     29 C23         8.5379    5.0972    4.5730 C.ar      1 <0>        -0.0625
     30 C24         7.4439    4.2876    4.3658 C.ar      1 <0>        -0.1569
     31 C25        10.0542    6.9307    3.8401 C.2       1 <0>         0.5638
     32 O3         10.3551    7.7659    3.0092 O.2       1 <0>        -0.5386
     33 N5         10.7886    6.8021    4.9629 N.am      1 <0>        -0.8518
     34 H1         -0.8386    1.7798   -0.0201 H         1 <0>         0.1379
     35 H2          1.2810    3.0276   -0.0766 H         1 <0>         0.1369
     36 H3          3.4564   -0.5936    0.4977 H         1 <0>         0.1415
     37 H4         -0.8270   -0.6600    0.2891 H         1 <0>         0.1266
     38 H5         -0.6749   -2.4682    0.5984 H         1 <0>         0.4156
     39 H6          1.9168   -4.4087    1.9777 H         1 <0>         0.1512
     40 H7          1.9355   -6.8631    2.1076 H         1 <0>         0.1395
     41 H8         -1.5428   -4.5846   -0.5253 H         1 <0>         0.1380
     42 H9         -2.7582   -7.2003   -0.0329 H         1 <0>         0.1408
     43 H10        -1.9971   -6.7839   -1.5838 H         1 <0>         0.1412
     44 H11        -2.1963   -9.1591   -1.1826 H         1 <0>         0.4365
     45 H12        -1.8457   -8.9516    1.2538 H         1 <0>         0.1344
     46 H13        -0.9847  -10.2860    0.4427 H         1 <0>         0.1403
     47 H14         1.0578   -8.9888    0.3255 H         1 <0>         0.1037
     48 H15         0.4631   -8.8937    1.9992 H         1 <0>         0.1230
     49 H16         4.5812    1.4298   -0.2227 H         1 <0>         0.0832
     50 H17         3.6723    2.9413   -0.4629 H         1 <0>         0.0852
     51 H18         3.5607    2.2614    2.2760 H         1 <0>         0.3995
     52 H19         5.0487    3.3015    3.7482 H         1 <0>         0.4094
     53 H20         6.4427    5.4754    1.3533 H         1 <0>         0.1434
     54 H21         8.3879    6.9312    1.7162 H         1 <0>         0.1415
     55 H22         9.1253    4.9923    5.4732 H         1 <0>         0.1316
     56 H23         7.1728    3.5477    5.1044 H         1 <0>         0.1326
     57 H24        10.5486    6.1359    5.6257 H         1 <0>         0.4001
     58 H25        11.5572    7.3758    5.1081 H         1 <0>         0.4067
     59 H26        -0.6326   -8.6822   -1.4006 H         1 <0>         0.4324
@<TRIPOS>BOND
     1    1    6 ar
     2    1    2 ar
     3    1   34 1
     4    2    3 ar
     5    2   35 1
     6    3    4 ar
     7    3   20 1
     8    4    5 ar
     9    4   36 1
    10    5    6 ar
    11    5    7 1
    12    6   37 1
    13    7    8 2
    14    7    9 am
    15    9   10 1
    16    9   38 1
    17   10   15 ar
    18   10   11 ar
    19   11   12 ar
    20   11   39 1
    21   12   13 ar
    22   12   40 1
    23   13   19 1
    24   13   14 ar
    25   14   15 ar
    26   14   16 1
    27   15   41 1
    28   16   17 1
    29   16   42 1
    30   16   43 1
    31   17   18 1
    32   17   44 1
    33   17   59 1
    34   18   19 1
    35   18   45 1
    36   18   46 1
    37   19   47 1
    38   19   48 1
    39   20   21 1
    40   20   49 1
    41   20   50 1
    42   21   22 am
    43   21   51 1
    44   22   23 2
    45   22   24 am
    46   24   25 1
    47   24   52 1
    48   25   30 ar
    49   25   26 ar
    50   26   27 ar
    51   26   53 1
    52   27   28 ar
    53   27   54 1
    54   28   29 ar
    55   28   31 1
    56   29   30 ar
    57   29   55 1
    58   30   56 1
    59   31   32 2
    60   31   33 am
    61   33   57 1
    62   33   58 1
@<TRIPOS>MOLECULE
ZINC45390920
   60    63     0     0     0
SMALL
USER_CHARGES

@<TRIPOS>ATOM
      1 C1         -0.0559    1.4214   -0.0246 C.3       1 <0>         0.0229
      2 O1         -0.0314   -0.0074   -0.0284 O.3       1 <0>        -0.3007
      3 C2          0.5787   -0.6107   -1.0809 C.ar      1 <0>         0.1301
      4 C3          1.1472    0.1593   -2.0865 C.ar      1 <0>        -0.1827
      5 C4          1.7674   -0.4481   -3.1566 C.ar      1 <0>        -0.0778
      6 C5          1.8256   -1.8419   -3.2312 C.ar      1 <0>        -0.1375
      7 C6          1.2539   -2.6172   -2.2190 C.ar      1 <0>        -0.1129
      8 C7          0.6379   -2.0020   -1.1465 C.ar      1 <0>         0.0927
      9 O2          0.0845   -2.7535   -0.1572 O.3       1 <0>        -0.3038
     10 C8          0.1821   -4.1731   -0.2892 C.3       1 <0>         0.0229
     11 C9          2.4891   -2.4942   -4.3771 C.2       1 <0>         0.5649
     12 O3          2.5390   -3.7074   -4.4407 O.2       1 <0>        -0.5345
     13 N1          3.0397   -1.7450   -5.3528 N.am      1 <0>        -0.7240
     14 C10         3.6983   -2.3924   -6.4901 C.3       1 <0>         0.1617
     15 C11         4.2256   -1.3399   -7.4310 C.ar      1 <0>        -0.1172
     16 C12         3.4244   -0.8652   -8.4546 C.ar      1 <0>        -0.0695
     17 C13         3.9008    0.1006   -9.3230 C.ar      1 <0>        -0.1249
     18 C14         5.1795    0.5969   -9.1734 C.ar      1 <0>        -0.0764
     19 C15         5.9926    0.1228   -8.1428 C.ar      1 <0>        -0.1376
     20 C16         5.5036   -0.8478   -7.2665 C.ar      1 <0>        -0.0366
     21 C17         7.3636    0.6497   -7.9768 C.2       1 <0>         0.5600
     22 O4          8.0695    0.2349   -7.0782 O.2       1 <0>        -0.5119
     23 N2          7.8311    1.5900   -8.8217 N.am      1 <0>        -0.6685
     24 C18         9.0904    2.1589   -8.6071 C.ar      1 <0>         0.1401
     25 C19        10.1261    1.3879   -8.0944 C.ar      1 <0>        -0.1161
     26 C20        11.3641    1.9576   -7.8845 C.ar      1 <0>        -0.1019
     27 C21        11.5825    3.2950   -8.1826 C.ar      1 <0>        -0.0796
     28 C22        10.5579    4.0626   -8.6950 C.ar      1 <0>        -0.0623
     29 C23         9.3124    3.4937   -8.9104 C.ar      1 <0>        -0.1398
     30 C24        10.7513    5.5150   -9.0446 C.3       1 <0>         0.0969
     31 N3         11.9540    6.0442   -8.3940 N.3       1 <0>        -0.6854
     32 C25        13.1130    5.1876   -8.6913 C.3       1 <0>         0.0527
     33 C26        12.9520    3.8718   -7.9295 C.3       1 <0>        -0.0774
     34 H1          0.9654    1.8023   -0.0289 H         1 <0>         0.0584
     35 H2         -0.5804    1.7782   -0.9110 H         1 <0>         0.0582
     36 H3         -0.5713    1.7736    0.8689 H         1 <0>         0.1044
     37 H4          1.1030    1.2370   -2.0301 H         1 <0>         0.1434
     38 H5          2.2082    0.1533   -3.9378 H         1 <0>         0.1304
     39 H6          1.2965   -3.6950   -2.2733 H         1 <0>         0.1505
     40 H7         -0.3134   -4.4874   -1.2078 H         1 <0>         0.0579
     41 H8          1.2321   -4.4633   -0.3251 H         1 <0>         0.0581
     42 H9         -0.2981   -4.6512    0.5646 H         1 <0>         0.1041
     43 H10         2.9999   -0.7772   -5.3020 H         1 <0>         0.4016
     44 H11         4.5249   -3.0053   -6.1305 H         1 <0>         0.0828
     45 H12         2.9804   -3.0224   -7.0152 H         1 <0>         0.0833
     46 H13         2.4229   -1.2507   -8.5763 H         1 <0>         0.1330
     47 H14         3.2706    0.4666  -10.1201 H         1 <0>         0.1351
     48 H15         5.5505    1.3504   -9.8524 H         1 <0>         0.1280
     49 H16         6.1262   -1.2160   -6.4645 H         1 <0>         0.1407
     50 H17         7.2941    1.8721   -9.5786 H         1 <0>         0.4095
     51 H18         9.9621    0.3463   -7.8609 H         1 <0>         0.1393
     52 H19        12.1692    1.3588   -7.4849 H         1 <0>         0.1267
     53 H20         8.5097    4.0939   -9.3126 H         1 <0>         0.1251
     54 H21        10.8536    5.6144  -10.1252 H         1 <0>         0.0459
     55 H22         9.8828    6.0837   -8.7123 H         1 <0>         0.0882
     56 H23        12.1274    6.9976   -8.6752 H         1 <0>         0.3485
     57 H24        13.1558    4.9880   -9.7620 H         1 <0>         0.0373
     58 H25        14.0282    5.6860   -8.3720 H         1 <0>         0.0813
     59 H26        13.0763    4.0542   -6.8620 H         1 <0>         0.0842
     60 H27        13.7103    3.1644   -8.2649 H         1 <0>         0.0783
@<TRIPOS>BOND
     1    1    2 1
     2    1   34 1
     3    1   35 1
     4    1   36 1
     5    2    3 1
     6    3    8 ar
     7    3    4 ar
     8    4    5 ar
     9    4   37 1
    10    5    6 ar
    11    5   38 1
    12    6    7 ar
    13    6   11 1
    14    7    8 ar
    15    7   39 1
    16    8    9 1
    17    9   10 1
    18   10   40 1
    19   10   41 1
    20   10   42 1
    21   11   12 2
    22   11   13 am
    23   13   14 1
    24   13   43 1
    25   14   15 1
    26   14   44 1
    27   14   45 1
    28   15   20 ar
    29   15   16 ar
    30   16   17 ar
    31   16   46 1
    32   17   18 ar
    33   17   47 1
    34   18   19 ar
    35   18   48 1
    36   19   20 ar
    37   19   21 1
    38   20   49 1
    39   21   22 2
    40   21   23 am
    41   23   24 1
    42   23   50 1
    43   24   29 ar
    44   24   25 ar
    45   25   26 ar
    46   25   51 1
    47   26   27 ar
    48   26   52 1
    49   27   33 1
    50   27   28 ar
    51   28   29 ar
    52   28   30 1
    53   29   53 1
    54   30   31 1
    55   30   54 1
    56   30   55 1
    57   31   32 1
    58   31   56 1
    59   32   33 1
    60   32   57 1
    61   32   58 1
    62   33   59 1
    63   33   60 1
@<TRIPOS>MOLECULE
ZINC45390920
   61    64     0     0     0
SMALL
USER_CHARGES

@<TRIPOS>ATOM
      1 C1          0.0324    1.4230   -0.0065 C.3       1 <0>         0.0231
      2 O1          0.0456   -0.0059   -0.0120 O.3       1 <0>        -0.2994
      3 C2          0.6616   -0.6208    1.0304 C.ar      1 <0>         0.1314
      4 C3          1.2364    0.1382    2.0408 C.ar      1 <0>        -0.1837
      5 C4          1.8626   -0.4809    3.1006 C.ar      1 <0>        -0.0794
      6 C5          1.9197   -1.8755    3.1604 C.ar      1 <0>        -0.1389
      7 C6          1.3409   -2.6397    2.1438 C.ar      1 <0>        -0.1128
      8 C7          0.7104   -2.0128    1.0865 C.ar      1 <0>         0.0947
      9 O2          0.1418   -2.7536    0.0978 O.3       1 <0>        -0.3028
     10 C8          0.2294   -4.1747    0.2198 C.3       1 <0>         0.0225
     11 C9          2.5906   -2.5403    4.2948 C.2       1 <0>         0.5655
     12 O3          2.6395   -3.7541    4.3455 O.2       1 <0>        -0.5312
     13 N1          3.1488   -1.8018    5.2743 N.am      1 <0>        -0.7260
     14 C10         3.8146   -2.4616    6.4002 C.3       1 <0>         0.1596
     15 C11         4.3496   -1.4195    7.3482 C.ar      1 <0>        -0.1130
     16 C12         5.6291   -0.9213    7.1759 C.ar      1 <0>        -0.0626
     17 C13         6.1281    0.0352    8.0419 C.ar      1 <0>        -0.1235
     18 C14         5.3518    0.4988    9.0841 C.ar      1 <0>        -0.0761
     19 C15         4.0603    0.0009    9.2633 C.ar      1 <0>        -0.1474
     20 C16         3.5608   -0.9601    8.3823 C.ar      1 <0>        -0.0338
     21 C17         3.2231    0.4926   10.3779 C.2       1 <0>         0.5670
     22 O4          2.0986    0.0572   10.5314 O.2       1 <0>        -0.5075
     23 N2          3.7066    1.4238   11.2239 N.am      1 <0>        -0.6749
     24 C18         2.8825    1.9602   12.2183 C.ar      1 <0>         0.1679
     25 C19         1.9332    1.1614   12.8431 C.ar      1 <0>        -0.0969
     26 C20         1.1238    1.6987   13.8220 C.ar      1 <0>        -0.0824
     27 C21         1.2527    3.0306   14.1864 C.ar      1 <0>        -0.1084
     28 C22         2.1960    3.8265   13.5705 C.ar      1 <0>        -0.1161
     29 C23         3.0139    3.2902   12.5886 C.ar      1 <0>        -0.1247
     30 C24         2.3748    5.2749   13.9424 C.3       1 <0>         0.0487
     31 N3          1.1910    5.7770   14.6458 N.4       1 <0>        -0.5044
     32 C25         0.9039    4.8968   15.7887 C.3       1 <0>        -0.0035
     33 C26         0.3438    3.5764   15.2584 C.3       1 <0>        -0.1051
     34 H1          1.0567    1.7959   -0.0103 H         1 <0>         0.0583
     35 H2         -0.4893    1.7850   -0.8925 H         1 <0>         0.1054
     36 H3         -0.4802    1.7782    0.8875 H         1 <0>         0.0575
     37 H4          1.1930    1.2164    1.9958 H         1 <0>         0.1429
     38 H5          2.3095    0.1119    3.8849 H         1 <0>         0.1285
     39 H6          1.3834   -3.7180    2.1863 H         1 <0>         0.1511
     40 H7          1.2774   -4.4734    0.2439 H         1 <0>         0.0585
     41 H8         -0.2598   -4.4911    1.1410 H         1 <0>         0.0582
     42 H9         -0.2625   -4.6436   -0.6324 H         1 <0>         0.1057
     43 H10         3.1097   -0.8334    5.2338 H         1 <0>         0.4008
     44 H11         3.0997   -3.0963    6.9238 H         1 <0>         0.0835
     45 H12         4.6379   -3.0716    6.0286 H         1 <0>         0.0852
     46 H13         6.2410   -1.2811    6.3620 H         1 <0>         0.1366
     47 H14         7.1276    0.4196    7.9021 H         1 <0>         0.1376
     48 H15         5.7427    1.2450    9.7599 H         1 <0>         0.1264
     49 H16         2.5608   -1.3465    8.5130 H         1 <0>         0.1415
     50 H17         4.6261    1.7219   11.1430 H         1 <0>         0.4157
     51 H18         1.8290    0.1235   12.5630 H         1 <0>         0.1519
     52 H19         0.3849    1.0785   14.3076 H         1 <0>         0.1395
     53 H20         3.7538    3.9119   12.1066 H         1 <0>         0.1378
     54 H21         3.2464    5.3748   14.5893 H         1 <0>         0.1408
     55 H22         2.5308    5.8618   13.0372 H         1 <0>         0.1410
     56 H23         1.3671    6.7138   14.9769 H         1 <0>         0.4364
     57 H24         1.8221    4.7079   16.3448 H         1 <0>         0.1344
     58 H25         0.1695    5.3706   16.4400 H         1 <0>         0.1402
     59 H26        -0.6486    3.7454   14.8406 H         1 <0>         0.1036
     60 H27         0.2746    2.8580   16.0752 H         1 <0>         0.1231
     61 H28         0.4018    5.7824   14.0171 H         1 <0>         0.4322
@<TRIPOS>BOND
     1    1    2 1
     2    1   34 1
     3    1   35 1
     4    1   36 1
     5    2    3 1
     6    3    8 ar
     7    3    4 ar
     8    4    5 ar
     9    4   37 1
    10    5    6 ar
    11    5   38 1
    12    6    7 ar
    13    6   11 1
    14    7    8 ar
    15    7   39 1
    16    8    9 1
    17    9   10 1
    18   10   40 1
    19   10   41 1
    20   10   42 1
    21   11   12 2
    22   11   13 am
    23   13   14 1
    24   13   43 1
    25   14   15 1
    26   14   44 1
    27   14   45 1
    28   15   20 ar
    29   15   16 ar
    30   16   17 ar
    31   16   46 1
    32   17   18 ar
    33   17   47 1
    34   18   19 ar
    35   18   48 1
    36   19   20 ar
    37   19   21 1
    38   20   49 1
    39   21   22 2
    40   21   23 am
    41   23   24 1
    42   23   50 1
    43   24   29 ar
    44   24   25 ar
    45   25   26 ar
    46   25   51 1
    47   26   27 ar
    48   26   52 1
    49   27   33 1
    50   27   28 ar
    51   28   29 ar
    52   28   30 1
    53   29   53 1
    54   30   31 1
    55   30   54 1
    56   30   55 1
    57   31   32 1
    58   31   56 1
    59   31   61 1
    60   32   33 1
    61   32   57 1
    62   32   58 1
    63   33   59 1
    64   33   60 1
