@<TRIPOS>MOLECULE
ZINC00009689
   49    50     0     0     0
SMALL
USER_CHARGES

@<TRIPOS>ATOM
      1 C1         -0.0187    1.5258    0.0104 C.3       1 <0>        -0.1496
      2 C2          0.0021   -0.0041    0.0020 C.3       1 <0>        -0.0921
      3 C3          0.7421   -0.5109    1.2415 C.3       1 <0>        -0.1489
      4 C4         -1.4333   -0.5336    0.0129 C.3       1 <0>        -0.0829
      5 C5         -2.1733   -0.0268   -1.2266 C.3       1 <0>        -0.1146
      6 C6         -3.6087   -0.5564   -1.2158 C.3       1 <0>        -0.0969
      7 C7         -3.5879   -2.0862   -1.2242 C.3       1 <0>        -0.1037
      8 C8         -2.8479   -2.5931    0.0153 C.3       1 <0>        -0.1065
      9 C9         -1.4126   -2.0635    0.0045 C.3       1 <0>        -0.1123
     10 C10        -5.0017   -2.6079   -1.2135 C.2       1 <0>         0.5184
     11 O1         -5.9341   -1.8324   -1.2004 O.2       1 <0>        -0.5510
     12 N1         -5.2300   -3.9361   -1.2185 N.am      1 <0>        -0.6920
     13 C11        -6.6044   -4.4432   -1.2081 C.3       1 <0>         0.0850
     14 H1         -7.2310   -3.7824   -0.6090 H         1 <0>         0.0819
     15 C12        -6.6246   -5.8495   -0.6058 C.3       1 <0>        -0.0772
     16 C13        -6.2137   -5.7817    0.8426 C.ar      1 <0>        -0.0629
     17 C14        -4.8805   -5.8973    1.1889 C.ar      1 <0>        -0.1164
     18 C15        -4.5036   -5.8350    2.5174 C.ar      1 <0>        -0.1195
     19 C16        -5.4599   -5.6567    3.4996 C.ar      1 <0>        -0.1350
     20 C17        -6.7931   -5.5402    3.1531 C.ar      1 <0>        -0.1189
     21 C18        -7.1695   -5.5981    1.8243 C.ar      1 <0>        -0.1168
     22 C19        -7.1321   -4.4933   -2.6188 C.2       1 <0>         0.4914
     23 O2         -6.3764   -4.3153   -3.5589 O.co2     1 <0>        -0.6860
     24 O3         -8.3145   -4.7118   -2.8200 O.co2     1 <0>        -0.6970
     25 H2          1.0039    1.9031    0.0027 H         1 <0>         0.0496
     26 H3         -0.5459    1.8868   -0.8726 H         1 <0>         0.0584
     27 H4         -0.5289    1.8773    0.9072 H         1 <0>         0.0526
     28 H5          0.5123   -0.3556   -0.8948 H         1 <0>         0.0682
     29 H6          0.7568   -1.6008    1.2356 H         1 <0>         0.0574
     30 H7          1.7647   -0.1336    1.2338 H         1 <0>         0.0496
     31 H8          0.2319   -0.1594    2.1383 H         1 <0>         0.0525
     32 H9         -1.9435   -0.1821    0.9097 H         1 <0>         0.0692
     33 H10        -2.1881    1.0631   -1.2207 H         1 <0>         0.0648
     34 H11        -1.6631   -0.3783   -2.1234 H         1 <0>         0.0610
     35 H12        -4.1189   -0.2049   -0.3190 H         1 <0>         0.0661
     36 H13        -4.1359   -0.1953   -2.0988 H         1 <0>         0.0689
     37 H14        -3.0777   -2.4378   -2.1210 H         1 <0>         0.0925
     38 H15        -3.3581   -2.2415    0.9121 H         1 <0>         0.0649
     39 H16        -2.8332   -3.6829    0.0093 H         1 <0>         0.0642
     40 H17        -0.9024   -2.4150   -0.8923 H         1 <0>         0.0627
     41 H18        -0.8854   -2.4246    0.8875 H         1 <0>         0.0649
     42 H19        -4.4843   -4.5564   -1.2289 H         1 <0>         0.3873
     43 H20        -7.6310   -6.2617   -0.6790 H         1 <0>         0.0904
     44 H21        -5.9298   -6.4883   -1.1510 H         1 <0>         0.0716
     45 H22        -4.1334   -6.0366    0.4216 H         1 <0>         0.1165
     46 H23        -3.4620   -5.9260    2.7881 H         1 <0>         0.1164
     47 H24        -5.1655   -5.6087    4.5376 H         1 <0>         0.1148
     48 H25        -7.5402   -5.4012    3.9205 H         1 <0>         0.1171
     49 H26        -8.2107   -5.5034    1.5533 H         1 <0>         0.1223
@<TRIPOS>BOND
     1    1    2 1
     2    1   25 1
     3    1   26 1
     4    1   27 1
     5    2    3 1
     6    2    4 1
     7    2   28 1
     8    3   29 1
     9    3   30 1
    10    3   31 1
    11    4    9 1
    12    4    5 1
    13    4   32 1
    14    5    6 1
    15    5   33 1
    16    5   34 1
    17    6    7 1
    18    6   35 1
    19    6   36 1
    20    7    8 1
    21    7   10 1
    22    7   37 1
    23    8    9 1
    24    8   38 1
    25    8   39 1
    26    9   40 1
    27    9   41 1
    28   10   11 2
    29   10   12 am
    30   12   13 1
    31   12   42 1
    32   13   14 1
    33   13   15 1
    34   13   22 1
    35   15   16 1
    36   15   43 1
    37   15   44 1
    38   16   21 ar
    39   16   17 ar
    40   17   18 ar
    41   17   45 1
    42   18   19 ar
    43   18   46 1
    44   19   20 ar
    45   19   47 1
    46   20   21 ar
    47   20   48 1
    48   21   49 1
    49   22   23 2
    50   22   24 1
