@<TRIPOS>MOLECULE
ZINC00000071
   34    36     0     0     0
SMALL
USER_CHARGES
(2-ethylbenzofuran-3-yl)-(4-hydroxyphenyl)-methanone
@<TRIPOS>ATOM
      1 C1          2.3808    7.2299   -1.4530 C.3       1 <0>        -0.1536
      2 C2          2.1746    6.7760   -0.0065 C.3       1 <0>        -0.0568
      3 C3          1.5220    5.4177    0.0055 C.2       1 <0>         0.0916
      4 C4          2.1875    4.2289    0.0035 C.2       1 <0>        -0.2485
      5 C5          1.1422    3.1859    0.0183 C.ar      1 <0>        -0.0976
      6 C6          1.1589    1.7950    0.0241 C.ar      1 <0>        -0.0748
      7 C7         -0.0310    1.0992    0.0393 C.ar      1 <0>        -0.1255
      8 C8         -1.2381    1.7818    0.0431 C.ar      1 <0>        -0.0923
      9 C9         -1.2662    3.1600    0.0424 C.ar      1 <0>        -0.1014
     10 C10        -0.0769    3.8787    0.0279 C.ar      1 <0>         0.0515
     11 O1          0.2023    5.1986    0.0198 O.3       1 <0>        -0.1801
     12 C11         3.6434    4.0266   -0.0097 C.2       1 <0>         0.4777
     13 O2          4.2241    3.8534   -1.0651 O.2       1 <0>        -0.4338
     14 C12         4.4012    4.0334    1.2572 C.ar      1 <0>        -0.1767
     15 C13         3.7254    4.1242    2.4774 C.ar      1 <0>        -0.0453
     16 C14         4.4356    4.1245    3.6570 C.ar      1 <0>        -0.1593
     17 C15         5.8233    4.0458    3.6351 C.ar      1 <0>         0.1440
     18 C16         6.4995    3.9616    2.4235 C.ar      1 <0>        -0.1589
     19 C17         5.7966    3.9549    1.2396 C.ar      1 <0>        -0.0411
     20 O3          6.5199    4.0516    4.7998 O.3       1 <0>        -0.4973
     21 H1          1.4161    7.2859   -1.9573 H         1 <0>         0.0638
     22 H2          2.8529    8.2124   -1.4617 H         1 <0>         0.0738
     23 H3          3.0204    6.5149   -1.9705 H         1 <0>         0.0639
     24 H4          1.5350    7.4910    0.5110 H         1 <0>         0.0952
     25 H5          3.1393    6.7201    0.4978 H         1 <0>         0.0982
     26 H6          2.0989    1.2633    0.0170 H         1 <0>         0.1271
     27 H7         -0.0232    0.0192    0.0439 H         1 <0>         0.1339
     28 H8         -2.1654    1.2281    0.0502 H         1 <0>         0.1391
     29 H9         -2.2122    3.6811    0.0496 H         1 <0>         0.1357
     30 H10         2.6476    4.1896    2.4950 H         1 <0>         0.1339
     31 H11         3.9140    4.1898    4.6004 H         1 <0>         0.1370
     32 H12         7.5778    3.9009    2.4107 H         1 <0>         0.1383
     33 H13         6.3226    3.8887    0.2987 H         1 <0>         0.1404
     34 H14         6.7709    4.9347    5.1036 H         1 <0>         0.3981
@<TRIPOS>BOND
     1    1    2 1
     2    1   21 1
     3    1   22 1
     4    1   23 1
     5    2    3 1
     6    2   24 1
     7    2   25 1
     8    3   11 1
     9    3    4 2
    10    4    5 1
    11    4   12 1
    12    5   10 ar
    13    5    6 ar
    14    6    7 ar
    15    6   26 1
    16    7    8 ar
    17    7   27 1
    18    8    9 ar
    19    8   28 1
    20    9   10 ar
    21    9   29 1
    22   10   11 1
    23   12   13 2
    24   12   14 1
    25   14   19 ar
    26   14   15 ar
    27   15   16 ar
    28   15   30 1
    29   16   17 ar
    30   16   31 1
    31   17   18 ar
    32   17   20 1
    33   18   19 ar
    34   18   32 1
    35   19   33 1
    36   20   34 1
@<TRIPOS>MOLECULE
ZINC03881558
   32    34     0     0     0
SMALL
USER_CHARGES

@<TRIPOS>ATOM
      1 C1          0.9052   -0.1467    1.0522 C.ar      1 <0>        -0.1565
      2 C2          2.0886    0.5573    1.0482 C.ar      1 <0>        -0.0345
      3 C3          2.3852    1.4179   -0.0128 C.ar      1 <0>        -0.0868
      4 C4          1.4728    1.5594   -1.0699 C.ar      1 <0>         0.1612
      5 C5          0.2873    0.8465   -1.0541 C.ar      1 <0>        -0.1813
      6 C6          0.0026   -0.0050    0.0040 C.ar      1 <0>         0.1466
      7 O1         -1.1619   -0.7032    0.0155 O.3       1 <0>        -0.4954
      8 O2          1.7525    2.3931   -2.1040 O.3       1 <0>        -0.4874
      9 C7          3.6493    2.1731   -0.0211 C.2       1 <0>         0.1454
     10 C8          4.8251    1.4870    0.0631 C.2       1 <0>        -0.0495
     11 C9          6.0501    2.1994    0.0564 C.2       1 <0>         0.4010
     12 O3          7.1217    1.6189    0.1298 O.2       1 <0>        -0.4511
     13 C10         5.9806    3.6663   -0.0431 C.ar      1 <0>        -0.2700
     14 C11         7.1423    4.4494   -0.0571 C.ar      1 <0>         0.2234
     15 C12         7.0356    5.8242   -0.1521 C.ar      1 <0>        -0.2092
     16 C13         5.7833    6.4240   -0.2326 C.ar      1 <0>         0.1991
     17 C14         4.6299    5.6558   -0.2193 C.ar      1 <0>        -0.1847
     18 C15         4.7163    4.2750   -0.1251 C.ar      1 <0>         0.1884
     19 O4          3.6024    3.5130   -0.1169 O.3       1 <0>        -0.1881
     20 O5          5.6898    7.7753   -0.3247 O.3       1 <0>        -0.4870
     21 O6          8.3634    3.8623    0.0225 O.3       1 <0>        -0.4729
     22 O7          4.8218    0.1287    0.1534 O.3       1 <0>        -0.4506
     23 H1          0.6792   -0.8146    1.8703 H         1 <0>         0.1411
     24 H2          2.7870    0.4450    1.8643 H         1 <0>         0.1397
     25 H3         -0.4172    0.9528   -1.8658 H         1 <0>         0.1429
     26 H4         -1.8932   -0.2412    0.4478 H         1 <0>         0.3984
     27 H5          2.1585    1.9544   -2.8642 H         1 <0>         0.3964
     28 H6          7.9268    6.4342   -0.1635 H         1 <0>         0.1509
     29 H7          3.6630    6.1329   -0.2825 H         1 <0>         0.1552
     30 H8          5.6916    8.1087   -1.2324 H         1 <0>         0.4047
     31 H9          8.7464    3.6333   -0.8354 H         1 <0>         0.4032
     32 H10         5.7038   -0.2639    0.2085 H         1 <0>         0.4076
@<TRIPOS>BOND
     1    1    6 ar
     2    1    2 ar
     3    1   23 1
     4    2    3 ar
     5    2   24 1
     6    3    4 ar
     7    3    9 1
     8    4    5 ar
     9    4    8 1
    10    5    6 ar
    11    5   25 1
    12    6    7 1
    13    7   26 1
    14    8   27 1
    15    9   19 1
    16    9   10 2
    17   10   11 1
    18   10   22 1
    19   11   12 2
    20   11   13 1
    21   13   18 ar
    22   13   14 ar
    23   14   15 ar
    24   14   21 1
    25   15   16 ar
    26   15   28 1
    27   16   17 ar
    28   16   20 1
    29   17   18 ar
    30   17   29 1
    31   18   19 1
    32   20   30 1
    33   21   31 1
    34   22   32 1
@<TRIPOS>MOLECULE
ZINC03881558
   31    33     0     0     0
SMALL
USER_CHARGES

@<TRIPOS>ATOM
      1 C1          0.9066   -0.1484    1.0516 C.ar      1 <0>        -0.1572
      2 C2          2.0894    0.5549    1.0479 C.ar      1 <0>        -0.0408
      3 C3          2.3856    1.4179   -0.0130 C.ar      1 <0>        -0.0626
      4 C4          1.4712    1.5611   -1.0698 C.ar      1 <0>         0.1560
      5 C5          0.2858    0.8482   -1.0534 C.ar      1 <0>        -0.1811
      6 C6          0.0026   -0.0049    0.0039 C.ar      1 <0>         0.1305
      7 O1         -1.1617   -0.7029    0.0156 O.3       1 <0>        -0.4978
      8 O2          1.7495    2.3961   -2.1027 O.3       1 <0>        -0.4833
      9 C7          3.6479    2.1718   -0.0213 C.2       1 <0>         0.1128
     10 C8          4.8478    1.4863    0.0634 C.2       1 <0>        -0.0129
     11 C9          6.0531    2.1961    0.0561 C.2       1 <0>         0.3353
     12 C10         6.0031    3.6049   -0.0388 C.2       1 <0>        -0.3332
     13 C11         7.1882    4.3693   -0.0509 C.2       1 <0>         0.2654
     14 C12         7.1183    5.7295   -0.1436 C.2       1 <0>        -0.3752
     15 C13         5.8717    6.3701   -0.2268 C.2       1 <0>         0.3642
     16 O3          5.8143    7.7005   -0.3175 O.2       1 <0>        -0.6621
     17 C14         4.6896    5.6225   -0.2157 C.2       1 <0>        -0.3147
     18 C15         4.7470    4.2452   -0.1223 C.2       1 <0>         0.2123
     19 O4          3.6137    3.5122   -0.1166 O.3       1 <0>        -0.1923
     20 O5          8.3951    3.7542    0.0298 O.3       1 <0>        -0.4485
     21 O6          7.2380    1.5494    0.1382 O.3       1 <0>        -0.5774
     22 O7          4.8545    0.1285    0.1539 O.3       1 <0>        -0.4664
     23 H1          0.6811   -0.8175    1.8688 H         1 <0>         0.1360
     24 H2          2.7885    0.4410    1.8632 H         1 <0>         0.1386
     25 H3         -0.4199    0.9559   -1.8638 H         1 <0>         0.1385
     26 H4         -1.8925   -0.2415    0.4494 H         1 <0>         0.3926
     27 H5          2.1547    1.9586   -2.8640 H         1 <0>         0.3945
     28 H6          8.0256    6.3153   -0.1526 H         1 <0>         0.1174
     29 H7          3.7337    6.1210   -0.2796 H         1 <0>         0.1223
     30 H8          9.1477    4.3612    0.0139 H         1 <0>         0.3841
     31 H9          5.7394   -0.2577    0.2084 H         1 <0>         0.4052
@<TRIPOS>BOND
     1    1    6 ar
     2    1    2 ar
     3    1   23 1
     4    2    3 ar
     5    2   24 1
     6    3    4 ar
     7    3    9 1
     8    4    5 ar
     9    4    8 1
    10    5    6 ar
    11    5   25 1
    12    6    7 1
    13    7   26 1
    14    8   27 1
    15    9   19 1
    16    9   10 2
    17   10   11 1
    18   10   22 1
    19   11   12 2
    20   11   21 1
    21   12   18 1
    22   12   13 1
    23   13   14 2
    24   13   20 1
    25   14   15 1
    26   14   28 1
    27   15   16 2
    28   15   17 1
    29   17   18 2
    30   17   29 1
    31   18   19 1
    32   20   30 1
    33   22   31 1
@<TRIPOS>MOLECULE
ZINC00608205
   33    35     0     0     0
SMALL
USER_CHARGES

@<TRIPOS>ATOM
      1 C1          0.0013    1.5540    0.0149 C.3       1 <0>        -0.1498
      2 C2          0.0087    0.0240    0.0139 C.3       1 <0>        -0.0544
      3 C3          0.7037   -0.4743   -1.2269 C.2       1 <0>         0.0747
      4 C4          2.0374   -0.7340   -1.3268 C.2       1 <0>        -0.2231
      5 C5          2.2519   -1.1942   -2.7135 C.ar      1 <0>        -0.0957
      6 C6          3.3654   -1.6063   -3.4381 C.ar      1 <0>        -0.0678
      7 C7          3.2197   -1.9832   -4.7561 C.ar      1 <0>        -0.1331
      8 C8          1.9701   -1.9517   -5.3565 C.ar      1 <0>        -0.0979
      9 C9          0.8599   -1.5449   -4.6477 C.ar      1 <0>        -0.1064
     10 C10         0.9871   -1.1613   -3.3181 C.ar      1 <0>         0.0500
     11 O1          0.1025   -0.7332   -2.3937 O.3       1 <0>        -0.1854
     12 C11         3.0520   -0.5864   -0.2735 C.2       1 <0>         0.4838
     13 O2          3.7030    0.4388   -0.1950 O.2       1 <0>        -0.4766
     14 C12         3.2812   -1.6817    0.6893 C.ar      1 <0>        -0.3045
     15 C13         2.6215   -2.9037    0.5304 C.ar      1 <0>         0.0258
     16 C14         2.8384   -3.9238    1.4308 C.ar      1 <0>        -0.2251
     17 C15         3.7123   -3.7389    2.4965 C.ar      1 <0>         0.3304
     18 C16         4.3701   -2.5244    2.6583 C.ar      1 <0>        -0.2272
     19 C17         4.1628   -1.5015    1.7588 C.ar      1 <0>         0.0328
     20 Br1         5.5567   -2.2793    4.1101 Br        1 <0>        -0.0777
     21 O3          3.9234   -4.7462    3.3815 O.3       1 <0>        -0.6374
     22 Br2         1.9461   -5.5773    1.2173 Br        1 <0>        -0.0788
     23 H1          1.0271    1.9222    0.0003 H         1 <0>         0.0645
     24 H2         -0.5270    1.9153   -0.8674 H         1 <0>         0.0583
     25 H3         -0.5014    1.9144    0.9124 H         1 <0>         0.0696
     26 H4          0.5370   -0.3373    0.8962 H         1 <0>         0.1036
     27 H5         -1.0171   -0.3443    0.0285 H         1 <0>         0.0898
     28 H6          4.3388   -1.6306   -2.9708 H         1 <0>         0.1283
     29 H7          4.0814   -2.3036   -5.3229 H         1 <0>         0.1300
     30 H8          1.8656   -2.2484   -6.3896 H         1 <0>         0.1338
     31 H9         -0.1084   -1.5240   -5.1257 H         1 <0>         0.1308
     32 H10         1.9424   -3.0479   -0.2969 H         1 <0>         0.1136
     33 H11         4.6777   -0.5602    1.8823 H         1 <0>         0.1213
@<TRIPOS>BOND
     1    1    2 1
     2    1   23 1
     3    1   24 1
     4    1   25 1
     5    2    3 1
     6    2   26 1
     7    2   27 1
     8    3   11 1
     9    3    4 2
    10    4    5 1
    11    4   12 1
    12    5   10 ar
    13    5    6 ar
    14    6    7 ar
    15    6   28 1
    16    7    8 ar
    17    7   29 1
    18    8    9 ar
    19    8   30 1
    20    9   10 ar
    21    9   31 1
    22   10   11 1
    23   12   13 2
    24   12   14 1
    25   14   19 ar
    26   14   15 ar
    27   15   16 ar
    28   15   32 1
    29   16   17 ar
    30   16   22 1
    31   17   18 ar
    32   17   21 1
    33   18   19 ar
    34   18   20 1
    35   19   33 1
@<TRIPOS>MOLECULE
ZINC00608205
   34    36     0     0     0
SMALL
USER_CHARGES

@<TRIPOS>ATOM
      1 C1         -0.0255    1.5538   -0.0092 C.3       1 <0>        -0.1535
      2 C2          0.0084    0.0241   -0.0098 C.3       1 <0>        -0.0596
      3 C3         -1.4008   -0.5096    0.0105 C.2       1 <0>         0.0993
      4 C4         -2.1472   -0.7920   -1.0938 C.2       1 <0>        -0.2565
      5 C5         -3.4435   -1.2831   -0.5846 C.ar      1 <0>        -0.0966
      6 C6         -4.6170   -1.7270   -1.1853 C.ar      1 <0>        -0.0761
      7 C7         -5.6759   -2.1278   -0.3988 C.ar      1 <0>        -0.1238
      8 C8         -5.5720   -2.0888    0.9835 C.ar      1 <0>        -0.0916
      9 C9         -4.4137   -1.6507    1.5892 C.ar      1 <0>        -0.0999
     10 C10        -3.3358   -1.2427    0.8129 C.ar      1 <0>         0.0522
     11 O1         -2.1041   -0.7825    1.1153 O.3       1 <0>        -0.1780
     12 C11        -1.7459   -0.6392   -2.4996 C.2       1 <0>         0.4828
     13 O2         -2.0291    0.3771   -3.1061 O.2       1 <0>        -0.4225
     14 C12        -0.9994   -1.7185   -3.1756 C.ar      1 <0>        -0.1641
     15 C13        -0.7767   -2.9330   -2.5206 C.ar      1 <0>        -0.0068
     16 C14        -0.0799   -3.9382   -3.1550 C.ar      1 <0>        -0.1316
     17 C15         0.4016   -3.7456   -4.4453 C.ar      1 <0>         0.1999
     18 C16         0.1824   -2.5386   -5.1001 C.ar      1 <0>        -0.1315
     19 C17        -0.5185   -1.5307   -4.4744 C.ar      1 <0>        -0.0027
     20 Br1         0.8403   -2.2829   -6.8544 Br        1 <0>        -0.0091
     21 O3          1.0876   -4.7382   -5.0670 O.3       1 <0>        -0.4704
     22 Br2         0.2227   -5.5815   -2.2697 Br        1 <0>        -0.0103
     23 H1          0.9937    1.9398   -0.0238 H         1 <0>         0.0749
     24 H2         -0.5600    1.9056   -0.8916 H         1 <0>         0.0641
     25 H3         -0.5345    1.9056    0.8882 H         1 <0>         0.0646
     26 H4          0.5173   -0.3277   -0.9071 H         1 <0>         0.0979
     27 H5          0.5429   -0.3277    0.8726 H         1 <0>         0.0974
     28 H6         -4.6982   -1.7571   -2.2618 H         1 <0>         0.1271
     29 H7         -6.5892   -2.4729   -0.8606 H         1 <0>         0.1343
     30 H8         -6.4069   -2.4045    1.5915 H         1 <0>         0.1396
     31 H9         -4.3442   -1.6243    2.6666 H         1 <0>         0.1364
     32 H10        -1.1499   -3.0832   -1.5183 H         1 <0>         0.1510
     33 H11        -0.6925   -0.5953   -4.9854 H         1 <0>         0.1572
     34 H12         0.5302   -5.3422   -5.5766 H         1 <0>         0.4058
@<TRIPOS>BOND
     1    1    2 1
     2    1   23 1
     3    1   24 1
     4    1   25 1
     5    2    3 1
     6    2   26 1
     7    2   27 1
     8    3   11 1
     9    3    4 2
    10    4    5 1
    11    4   12 1
    12    5   10 ar
    13    5    6 ar
    14    6    7 ar
    15    6   28 1
    16    7    8 ar
    17    7   29 1
    18    8    9 ar
    19    8   30 1
    20    9   10 ar
    21    9   31 1
    22   10   11 1
    23   12   13 2
    24   12   14 1
    25   14   19 ar
    26   14   15 ar
    27   15   16 ar
    28   15   32 1
    29   16   17 ar
    30   16   22 1
    31   17   18 ar
    32   17   21 1
    33   18   19 ar
    34   18   20 1
    35   19   33 1
    36   21   34 1
