@<TRIPOS>MOLECULE
ZINC00119344
   23    23     0     0     0
SMALL
USER_CHARGES

@<TRIPOS>ATOM
      1 C1         -0.0169    1.3937    0.0097 C.ar      1 <0>        -0.0129
      2 C2          1.1662    2.0965    0.0022 C.ar      1 <0>        -0.2119
      3 C3          2.3811    1.4169   -0.0131 C.ar      1 <0>         0.2319
      4 C4          2.4034    0.0249   -0.0208 C.ar      1 <0>        -0.2070
      5 C5          1.2237   -0.6836   -0.0138 C.ar      1 <0>        -0.0340
      6 C6          0.0021   -0.0041    0.0020 C.ar      1 <0>        -0.1855
      7 C7         -1.2644   -0.7605    0.0105 C.2       1 <0>         0.5487
      8 O1         -2.3263   -0.1682    0.0243 O.2       1 <0>        -0.5655
      9 N1         -1.2445   -2.1081    0.0031 N.am      1 <0>        -0.6967
     10 C8         -2.5022   -2.8593    0.0116 C.3       1 <0>         0.0506
     11 C9         -2.2050   -4.3367    0.0007 C.2       1 <0>         0.4907
     12 O2         -1.0497   -4.7260   -0.0129 O.co2     1 <0>        -0.6930
     13 O3         -3.1199   -5.1426    0.0055 O.co2     1 <0>        -0.6890
     14 N2          3.5749    2.1299   -0.0211 N.pl3     1 <0>        -0.8739
     15 H1         -0.9590    1.9215    0.0260 H         1 <0>         0.1336
     16 H2          1.1522    3.1764    0.0078 H         1 <0>         0.1228
     17 H3          3.3474   -0.4995   -0.0326 H         1 <0>         0.1245
     18 H4          1.2416   -1.7634   -0.0204 H         1 <0>         0.1319
     19 H5         -0.3974   -2.5806   -0.0078 H         1 <0>         0.4061
     20 H6         -3.0688   -2.6092    0.9086 H         1 <0>         0.0662
     21 H7         -3.0864   -2.5997   -0.8713 H         1 <0>         0.0662
     22 H8          3.5606    3.0997   -0.0161 H         1 <0>         0.3976
     23 H9          4.4220    1.6574   -0.0317 H         1 <0>         0.3983
@<TRIPOS>BOND
     1    1    6 ar
     2    1    2 ar
     3    1   15 1
     4    2    3 ar
     5    2   16 1
     6    3    4 ar
     7    3   14 1
     8    4    5 ar
     9    4   17 1
    10    5    6 ar
    11    5   18 1
    12    6    7 1
    13    7    8 2
    14    7    9 am
    15    9   10 1
    16    9   19 1
    17   10   11 1
    18   10   20 1
    19   10   21 1
    20   11   12 2
    21   11   13 1
    22   14   22 1
    23   14   23 1
