@<TRIPOS>MOLECULE
ZINC13544393
   31    33     0     0     0
SMALL
USER_CHARGES
(2R,3R,4S,5S)-2-(6-aminopurin-9-yl)-5-(difluoromethyl)tetrahydrofuran-3,4-diol
@<TRIPOS>ATOM
      1 C1         -3.5701    4.4200    4.3028 C.ar      1 <0>         0.3488
      2 N1         -4.7256    3.9576    4.7449 N.ar      1 <0>        -0.5727
      3 C2         -5.3506    2.9618    4.1255 C.ar      1 <0>         0.4488
      4 C3         -4.7537    2.4052    2.9812 C.ar      1 <0>        -0.0671
      5 C4         -3.5218    2.9287    2.5546 C.ar      1 <0>         0.3029
      6 N2         -2.9745    3.9300    3.2363 N.ar      1 <0>        -0.5270
      7 N3         -3.1759    2.2166    1.4341 N.pl3     1 <0>        -0.4752
      8 C5         -4.1611    1.3012    1.2114 C.2       1 <0>         0.2711
      9 N4         -5.0859    1.4136    2.1202 N.2       1 <0>        -0.4507
     10 C6         -1.9664    2.4018    0.6283 C.3       1 <0>         0.3181
     11 H1         -1.7164    3.4604    0.5584 H         1 <0>         0.1292
     12 C7         -0.7881    1.6100    1.2374 C.3       1 <0>         0.0803
     13 H2         -1.1566    0.7792    1.8392 H         1 <0>         0.0905
     14 C8         -0.0127    1.0858    0.0080 C.3       1 <0>         0.0506
     15 H3          0.0021   -0.0041    0.0020 H         1 <0>         0.0929
     16 C9         -0.8112    1.6230   -1.2004 C.3       1 <0>        -0.0024
     17 H4         -0.3828    2.5619   -1.5512 H         1 <0>         0.1189
     18 O1         -2.1485    1.8377   -0.6887 O.3       1 <0>        -0.3439
     19 C10        -0.8291    0.5898   -2.3287 C.3       1 <0>         0.2754
     20 F1         -1.4571    1.1374   -3.4525 F         1 <0>        -0.1881
     21 F2          0.4837    0.2334   -2.6555 F         1 <0>        -0.1912
     22 O2          1.3192    1.6034   -0.0019 O.3       1 <0>        -0.5360
     23 O3          0.0403    2.4698    2.0225 O.3       1 <0>        -0.5244
     24 N5         -6.5613    2.4843    4.5959 N.pl3     1 <0>        -0.7432
     25 H5         -3.0965    5.2308    4.8363 H         1 <0>         0.2082
     26 H6         -4.1726    0.5880    0.4005 H         1 <0>         0.2273
     27 H7         -1.3753   -0.2952   -2.0024 H         1 <0>         0.1265
     28 H8          1.8419    1.3296   -0.7680 H         1 <0>         0.3930
     29 H9          0.8283    2.0380    2.3799 H         1 <0>         0.3942
     30 H10        -7.2604    2.5949    3.8894 H         1 <0>         0.3705
     31 H11        -6.9632    2.8767    5.3867 H         1 <0>         0.3746
@<TRIPOS>BOND
     1    1    6 ar
     2    1    2 ar
     3    1   25 1
     4    2    3 ar
     5    3    4 ar
     6    3   24 1
     7    4    9 1
     8    4    5 ar
     9    5    6 ar
    10    5    7 1
    11    7    8 1
    12    7   10 1
    13    8    9 2
    14    8   26 1
    15   10   11 1
    16   10   18 1
    17   10   12 1
    18   12   13 1
    19   12   14 1
    20   12   23 1
    21   14   15 1
    22   14   16 1
    23   14   22 1
    24   16   17 1
    25   16   18 1
    26   16   19 1
    27   19   20 1
    28   19   21 1
    29   19   27 1
    30   22   28 1
    31   23   29 1
    32   24   30 1
    33   24   31 1
