@<TRIPOS>MOLECULE
ZINC04083066
   52    55     0     0     0
SMALL
USER_CHARGES

@<TRIPOS>ATOM
      1 C1         -0.0167    1.3781    0.0096 C.ar      1 <0>        -0.0902
      2 C2          1.1709    2.0855    0.0021 C.ar      1 <0>        -0.1123
      3 C3          2.3773    1.4107   -0.0130 C.ar      1 <0>        -0.0876
      4 C4          2.3960    0.0285   -0.0201 C.ar      1 <0>        -0.1469
      5 C5          1.2084   -0.6789   -0.0117 C.ar      1 <0>        -0.1006
      6 C6          0.0021   -0.0041    0.0020 C.ar      1 <0>        -0.1139
      7 C7          3.7112   -0.7071   -0.0376 C.3       1 <0>         0.1381
      8 N1          4.1518   -0.9524    1.3379 N.pl3     1 <0>        -0.4270
      9 C8          4.9251   -0.1117    2.0743 C.ar      1 <0>         0.0638
     10 C9          5.5059    1.1323    1.8156 C.ar      1 <0>        -0.0791
     11 C10         6.2570    1.7520    2.7890 C.ar      1 <0>        -0.0838
     12 C11         6.4416    1.1505    4.0251 C.ar      1 <0>        -0.0745
     13 C12         5.8752   -0.0780    4.2960 C.ar      1 <0>        -0.0824
     14 C13         5.1153   -0.7163    3.3276 C.ar      1 <0>         0.0954
     15 N2          4.4307   -1.9198    3.2826 N.pl3     1 <0>        -0.4630
     16 C14         3.8559   -2.0127    2.0475 C.cat     1 <0>         0.6387
     17 N3          3.0821   -3.0674    1.6111 N.pl3     1 <0>        -0.7998
     18 C15         4.3364   -2.9066    4.3613 C.3       1 <0>         0.0724
     19 C16         3.1183   -2.5945    5.2330 C.3       1 <0>         0.0915
     20 H1          2.2266   -2.5473    4.6079 H         1 <0>         0.1178
     21 C17         2.9474   -3.6940    6.2831 C.3       1 <0>         0.0291
     22 O1          1.7455   -3.4650    7.0213 O.3       1 <0>        -0.3022
     23 C18         1.4432   -4.3578    8.0003 C.ar      1 <0>         0.1184
     24 C19         2.2890   -5.4289    8.2493 C.ar      1 <0>        -0.2100
     25 C20         1.9797   -6.3347    9.2454 C.ar      1 <0>        -0.0797
     26 C21         0.8280   -6.1748    9.9936 C.ar      1 <0>        -0.1495
     27 C22        -0.0168   -5.1084    9.7471 C.ar      1 <0>        -0.0769
     28 C23         0.2912   -4.1963    8.7563 C.ar      1 <0>        -0.1463
     29 O2          3.3093   -1.3378    5.8859 O.3       1 <0>        -0.5336
     30 H2         -0.9591    1.9053    0.0259 H         1 <0>         0.1341
     31 H3          1.1563    3.1654    0.0076 H         1 <0>         0.1346
     32 H4          3.3051    1.9634   -0.0196 H         1 <0>         0.1274
     33 H5          1.2231   -1.7588   -0.0176 H         1 <0>         0.1179
     34 H6         -0.9258   -0.5567    0.0082 H         1 <0>         0.1331
     35 H7          3.5884   -1.6586   -0.5549 H         1 <0>         0.1169
     36 H8          4.4573   -0.1052   -0.5563 H         1 <0>         0.1321
     37 H9          5.3664    1.6062    0.8552 H         1 <0>         0.1451
     38 H10         6.7061    2.7136    2.5885 H         1 <0>         0.1529
     39 H11         7.0330    1.6469    4.7803 H         1 <0>         0.1530
     40 H12         6.0233   -0.5414    5.2602 H         1 <0>         0.1432
     41 H13         2.7112   -3.0585    0.7149 H         1 <0>         0.4369
     42 H14         2.9086   -3.8181    2.2004 H         1 <0>         0.4373
     43 H15         4.2311   -3.9036    3.9335 H         1 <0>         0.1203
     44 H16         5.2392   -2.8662    4.9707 H         1 <0>         0.1293
     45 H17         2.8907   -4.6635    5.7881 H         1 <0>         0.0771
     46 H18         3.7992   -3.6826    6.9631 H         1 <0>         0.0755
     47 H19         3.1883   -5.5546    7.6647 H         1 <0>         0.1238
     48 H20         2.6378   -7.1687    9.4396 H         1 <0>         0.1280
     49 H21         0.5878   -6.8842   10.7717 H         1 <0>         0.1288
     50 H22        -0.9160   -4.9858   10.3327 H         1 <0>         0.1342
     51 H23        -0.3668   -3.3611    8.5671 H         1 <0>         0.1320
     52 H24         4.0866   -1.3071    6.4603 H         1 <0>         0.3809
@<TRIPOS>BOND
     1    1    6 ar
     2    1    2 ar
     3    1   30 1
     4    2    3 ar
     5    2   31 1
     6    3    4 ar
     7    3   32 1
     8    4    5 ar
     9    4    7 1
    10    5    6 ar
    11    5   33 1
    12    6   34 1
    13    7    8 1
    14    7   35 1
    15    7   36 1
    16    8   16 2
    17    8    9 1
    18    9   14 ar
    19    9   10 ar
    20   10   11 ar
    21   10   37 1
    22   11   12 ar
    23   11   38 1
    24   12   13 ar
    25   12   39 1
    26   13   14 ar
    27   13   40 1
    28   14   15 1
    29   15   16 1
    30   15   18 1
    31   16   17 1
    32   17   41 1
    33   17   42 1
    34   18   19 1
    35   18   43 1
    36   18   44 1
    37   19   20 1
    38   19   21 1
    39   19   29 1
    40   21   22 1
    41   21   45 1
    42   21   46 1
    43   22   23 1
    44   23   28 ar
    45   23   24 ar
    46   24   25 ar
    47   24   47 1
    48   25   26 ar
    49   25   48 1
    50   26   27 ar
    51   26   49 1
    52   27   28 ar
    53   27   50 1
    54   28   51 1
    55   29   52 1
@<TRIPOS>MOLECULE
ZINC04083068
   52    55     0     0     0
SMALL
USER_CHARGES

@<TRIPOS>ATOM
      1 C1         -0.0167    1.3781    0.0096 C.ar      1 <0>        -0.0904
      2 C2          1.1709    2.0855    0.0021 C.ar      1 <0>        -0.1131
      3 C3          2.3773    1.4107   -0.0130 C.ar      1 <0>        -0.0885
      4 C4          2.3960    0.0285   -0.0201 C.ar      1 <0>        -0.1469
      5 C5          1.2084   -0.6789   -0.0117 C.ar      1 <0>        -0.0977
      6 C6          0.0021   -0.0041    0.0020 C.ar      1 <0>        -0.1130
      7 C7          3.7112   -0.7071   -0.0376 C.3       1 <0>         0.1386
      8 N1          4.1518   -0.9524    1.3379 N.pl3     1 <0>        -0.4295
      9 C8          4.9251   -0.1117    2.0743 C.ar      1 <0>         0.0671
     10 C9          5.5059    1.1323    1.8156 C.ar      1 <0>        -0.0789
     11 C10         6.2570    1.7520    2.7890 C.ar      1 <0>        -0.0832
     12 C11         6.4416    1.1505    4.0251 C.ar      1 <0>        -0.0745
     13 C12         5.8752   -0.0780    4.2960 C.ar      1 <0>        -0.0889
     14 C13         5.1153   -0.7163    3.3276 C.ar      1 <0>         0.0847
     15 N2          4.4307   -1.9198    3.2826 N.pl3     1 <0>        -0.4654
     16 C14         3.8559   -2.0127    2.0475 C.cat     1 <0>         0.6503
     17 N3          3.0821   -3.0674    1.6111 N.pl3     1 <0>        -0.7946
     18 C15         4.3364   -2.9066    4.3613 C.3       1 <0>         0.0746
     19 C16         3.1183   -2.5945    5.2330 C.3       1 <0>         0.0886
     20 H1          3.1802   -1.5661    5.5889 H         1 <0>         0.1275
     21 C17         3.0898   -3.5475    6.4296 C.3       1 <0>         0.0304
     22 O1          2.0205   -3.1820    7.3043 O.3       1 <0>        -0.3022
     23 C18         1.8553   -3.9336    8.4244 C.ar      1 <0>         0.1186
     24 C19         2.7084   -4.9975    8.6793 C.ar      1 <0>        -0.2101
     25 C20         2.5387   -5.7598    9.8188 C.ar      1 <0>        -0.0797
     26 C21         1.5193   -5.4635   10.7047 C.ar      1 <0>        -0.1496
     27 C22         0.6674   -4.4040   10.4527 C.ar      1 <0>        -0.0769
     28 C23         0.8368   -3.6348    9.3177 C.ar      1 <0>        -0.1463
     29 O2          1.9262   -2.7611    4.4629 O.3       1 <0>        -0.5373
     30 H2         -0.9591    1.9053    0.0259 H         1 <0>         0.1337
     31 H3          1.1563    3.1654    0.0076 H         1 <0>         0.1341
     32 H4          3.3051    1.9634   -0.0196 H         1 <0>         0.1268
     33 H5          1.2231   -1.7588   -0.0176 H         1 <0>         0.1179
     34 H6         -0.9258   -0.5567    0.0082 H         1 <0>         0.1329
     35 H7          3.5884   -1.6586   -0.5549 H         1 <0>         0.1166
     36 H8          4.4573   -0.1052   -0.5563 H         1 <0>         0.1315
     37 H9          5.3664    1.6062    0.8552 H         1 <0>         0.1458
     38 H10         6.7061    2.7136    2.5885 H         1 <0>         0.1535
     39 H11         7.0330    1.6469    4.7803 H         1 <0>         0.1536
     40 H12         6.0233   -0.5414    5.2602 H         1 <0>         0.1459
     41 H13         2.7112   -3.0585    0.7149 H         1 <0>         0.4366
     42 H14         4.2311   -3.9036    3.9335 H         1 <0>         0.1145
     43 H15         5.2392   -2.8662    4.9707 H         1 <0>         0.1350
     44 H16         2.9388   -4.5680    6.0778 H         1 <0>         0.0734
     45 H17         4.0362   -3.4847    6.9667 H         1 <0>         0.0800
     46 H18         3.5044   -5.2298    7.9873 H         1 <0>         0.1238
     47 H19         3.2026   -6.5881   10.0177 H         1 <0>         0.1280
     48 H20         1.3880   -6.0608   11.5948 H         1 <0>         0.1288
     49 H21        -0.1283   -4.1747   11.1460 H         1 <0>         0.1342
     50 H22         0.1739   -2.8046    9.1235 H         1 <0>         0.1321
     51 H23         1.8054   -3.6546    4.1133 H         1 <0>         0.3735
     52 H24         2.9086   -3.8181    2.2004 H         1 <0>         0.4340
@<TRIPOS>BOND
     1    1    6 ar
     2    1    2 ar
     3    1   30 1
     4    2    3 ar
     5    2   31 1
     6    3    4 ar
     7    3   32 1
     8    4    5 ar
     9    4    7 1
    10    5    6 ar
    11    5   33 1
    12    6   34 1
    13    7    8 1
    14    7   35 1
    15    7   36 1
    16    8   16 2
    17    8    9 1
    18    9   14 ar
    19    9   10 ar
    20   10   11 ar
    21   10   37 1
    22   11   12 ar
    23   11   38 1
    24   12   13 ar
    25   12   39 1
    26   13   14 ar
    27   13   40 1
    28   14   15 1
    29   15   16 1
    30   15   18 1
    31   16   17 1
    32   17   41 1
    33   17   52 1
    34   18   19 1
    35   18   42 1
    36   18   43 1
    37   19   20 1
    38   19   21 1
    39   19   29 1
    40   21   22 1
    41   21   44 1
    42   21   45 1
    43   22   23 1
    44   23   28 ar
    45   23   24 ar
    46   24   25 ar
    47   24   46 1
    48   25   26 ar
    49   25   47 1
    50   26   27 ar
    51   26   48 1
    52   27   28 ar
    53   27   49 1
    54   28   50 1
    55   29   51 1
@<TRIPOS>MOLECULE
ZINC01039775
   47    50     0     0     0
SMALL
USER_CHARGES
4-[[5-[(4-chlorophenyl)methylsulfanyl]-4-methyl-1,2,4-triazol-3-yl]methyl]-6-(trifluoromethyl)-1,4-benzothiazin-3-one
@<TRIPOS>ATOM
      1 C1         -0.0899    5.1176   -2.5629 C.3       1 <0>         0.0763
      2 N1         -1.5237    5.1992   -2.8521 N.pl3     1 <0>        -0.4466
      3 C2         -2.5472    5.2506   -1.9465 C.2       1 <0>         0.1504
      4 N2         -3.6593    5.3215   -2.6217 N.2       1 <0>        -0.2643
      5 N3         -3.4112    5.3137   -3.8828 N.2       1 <0>        -0.2836
      6 C3         -2.1158    5.2366   -4.0819 C.2       1 <0>         0.1587
      7 S1         -1.2961    5.1960   -5.6411 S.3       1 <0>         0.0166
      8 C4         -2.7240    5.2891   -6.7494 C.3       1 <0>        -0.0625
      9 C5         -2.2515    5.2687   -8.1803 C.ar      1 <0>        -0.0814
     10 C6         -1.9677    6.4549   -8.8311 C.ar      1 <0>        -0.0847
     11 C7         -1.5289    6.4365  -10.1416 C.ar      1 <0>        -0.1095
     12 C8         -1.3844    5.2314  -10.8056 C.ar      1 <0>        -0.0254
     13 C9         -1.6740    4.0450  -10.1555 C.ar      1 <0>        -0.1096
     14 C10        -2.1074    4.0643   -8.8432 C.ar      1 <0>        -0.0850
     15 Cl1        -0.8395    5.2079  -12.4537 Cl        1 <0>        -0.0636
     16 C11        -2.4131    5.2349   -0.4456 C.3       1 <0>         0.1850
     17 N4         -2.4527    3.8511    0.0337 N.am      1 <0>        -0.5367
     18 C12        -3.7042    3.3318    0.3537 C.ar      1 <0>         0.1502
     19 C13        -4.8452    3.9135   -0.1881 C.ar      1 <0>        -0.0837
     20 C14        -6.0949    3.4149    0.1228 C.ar      1 <0>        -0.1471
     21 C15        -6.2263    2.3347    0.9764 C.ar      1 <0>        -0.0738
     22 C16        -5.1003    1.7458    1.5221 C.ar      1 <0>        -0.0623
     23 C17        -3.8449    2.2435    1.2160 C.ar      1 <0>        -0.1023
     24 S2         -2.3992    1.4909    1.8926 S.3       1 <0>        -0.0589
     25 C18        -1.1529    1.7934    0.6034 C.3       1 <0>        -0.1307
     26 C19        -1.2893    3.2119    0.1216 C.2       1 <0>         0.5247
     27 O1         -0.2832    3.8055   -0.2052 O.2       1 <0>        -0.5079
     28 C20        -7.3241    4.0526   -0.4717 C.3       1 <0>         0.5099
     29 F1         -8.4642    3.3823   -0.0155 F         1 <0>        -0.1749
     30 F2         -7.3864    5.3955   -0.0846 F         1 <0>        -0.1724
     31 F3         -7.2628    3.9719   -1.8671 F         1 <0>        -0.1677
     32 H1          0.2086    4.0713   -2.4974 H         1 <0>         0.0896
     33 H2          0.4700    5.6059   -3.3605 H         1 <0>         0.0905
     34 H3          0.1185    5.6149   -1.6156 H         1 <0>         0.1038
     35 H4         -3.3788    4.4362   -6.5708 H         1 <0>         0.1103
     36 H5         -3.2710    6.2128   -6.5605 H         1 <0>         0.1110
     37 H6         -2.0847    7.3958   -8.3140 H         1 <0>         0.1374
     38 H7         -1.3030    7.3630  -10.6486 H         1 <0>         0.1386
     39 H8         -1.5612    3.1039  -10.6733 H         1 <0>         0.1384
     40 H9         -2.3331    3.1382   -8.3355 H         1 <0>         0.1368
     41 H10        -3.2347    5.7968   -0.0015 H         1 <0>         0.1280
     42 H11        -1.4651    5.6911   -0.1607 H         1 <0>         0.1243
     43 H12        -4.7536    4.7582   -0.8549 H         1 <0>         0.1644
     44 H13        -7.2071    1.9514    1.2163 H         1 <0>         0.1521
     45 H14        -5.2001    0.9023    2.1891 H         1 <0>         0.1524
     46 H15        -1.3139    1.1078   -0.2285 H         1 <0>         0.1286
     47 H16        -0.1556    1.6421    1.0166 H         1 <0>         0.1567
@<TRIPOS>BOND
     1    1    2 1
     2    1   32 1
     3    1   33 1
     4    1   34 1
     5    2    6 1
     6    2    3 1
     7    3    4 2
     8    3   16 1
     9    4    5 1
    10    5    6 2
    11    6    7 1
    12    7    8 1
    13    8    9 1
    14    8   35 1
    15    8   36 1
    16    9   14 ar
    17    9   10 ar
    18   10   11 ar
    19   10   37 1
    20   11   12 ar
    21   11   38 1
    22   12   13 ar
    23   12   15 1
    24   13   14 ar
    25   13   39 1
    26   14   40 1
    27   16   17 1
    28   16   41 1
    29   16   42 1
    30   17   26 am
    31   17   18 1
    32   18   23 ar
    33   18   19 ar
    34   19   20 ar
    35   19   43 1
    36   20   21 ar
    37   20   28 1
    38   21   22 ar
    39   21   44 1
    40   22   23 ar
    41   22   45 1
    42   23   24 1
    43   24   25 1
    44   25   26 1
    45   25   46 1
    46   25   47 1
    47   26   27 2
    48   28   29 1
    49   28   30 1
    50   28   31 1
@<TRIPOS>MOLECULE
ZINC04639051
   50    52     0     0     0
SMALL
USER_CHARGES

@<TRIPOS>ATOM
      1 C1         -0.0187    1.5258    0.0104 C.3       1 <0>        -0.1550
      2 C2          0.0021   -0.0041    0.0020 C.3       1 <0>        -0.0952
      3 C3          0.7421   -0.5109    1.2415 C.3       1 <0>        -0.1593
      4 C4         -1.4333   -0.5336    0.0129 C.3       1 <0>        -0.1410
      5 C5          0.7182   -0.4975   -1.2568 C.3       1 <0>         0.1012
      6 H1          0.1910   -0.1364   -2.1398 H         1 <0>         0.1081
      7 C6          2.1536    0.0321   -1.2676 C.3       1 <0>         0.0475
      8 N1          2.8018   -0.3398   -2.5277 N.pl3     1 <0>        -0.4263
      9 C7          3.4966   -1.4880   -2.7420 C.ar      1 <0>         0.0709
     10 C8          3.8046   -2.5878   -1.9375 C.ar      1 <0>        -0.0740
     11 C9          4.5478   -3.6257   -2.4535 C.ar      1 <0>        -0.0847
     12 C10         4.9934   -3.5877   -3.7665 C.ar      1 <0>        -0.0756
     13 C11         4.6981   -2.5085   -4.5737 C.ar      1 <0>        -0.0879
     14 C12         3.9503   -1.4547   -4.0708 C.ar      1 <0>         0.0881
     15 N2          3.4952   -0.2595   -4.6034 N.pl3     1 <0>        -0.4623
     16 C13         2.7953    0.3809   -3.6213 C.cat     1 <0>         0.6354
     17 N3          2.1768    1.6056   -3.7593 N.pl3     1 <0>        -0.8010
     18 C14         3.7187    0.2247   -5.9679 C.3       1 <0>         0.1507
     19 C15         2.6015   -0.2527   -6.8595 C.ar      1 <0>        -0.1442
     20 C16         2.7096   -1.4656   -7.5138 C.ar      1 <0>        -0.0888
     21 C17         1.6848   -1.9034   -8.3317 C.ar      1 <0>        -0.1128
     22 C18         0.5517   -1.1286   -8.4950 C.ar      1 <0>        -0.0925
     23 C19         0.4432    0.0839   -7.8400 C.ar      1 <0>        -0.1148
     24 C20         1.4662    0.5198   -7.0187 C.ar      1 <0>        -0.1013
     25 O1          0.7376   -1.9263   -1.2646 O.3       1 <0>        -0.5409
     26 H2          1.0039    1.9031    0.0027 H         1 <0>         0.0554
     27 H3         -0.5459    1.8868   -0.8726 H         1 <0>         0.0622
     28 H4         -0.5289    1.8773    0.9072 H         1 <0>         0.0749
     29 H5          0.2319   -0.1594    2.1383 H         1 <0>         0.0752
     30 H6          0.7568   -1.6008    1.2356 H         1 <0>         0.0634
     31 H7          1.7647   -0.1336    1.2338 H         1 <0>         0.0571
     32 H8         -1.9605   -0.1726   -0.8702 H         1 <0>         0.0579
     33 H9         -1.4185   -1.6235    0.0069 H         1 <0>         0.0671
     34 H10        -1.9435   -0.1821    0.9097 H         1 <0>         0.0658
     35 H11         2.1410    1.1178   -1.1721 H         1 <0>         0.1210
     36 H12         2.7065   -0.3997   -0.4334 H         1 <0>         0.1287
     37 H13         3.4611   -2.6237   -0.9142 H         1 <0>         0.1416
     38 H14         4.7860   -4.4756   -1.8311 H         1 <0>         0.1522
     39 H15         5.5756   -4.4081   -4.1594 H         1 <0>         0.1524
     40 H16         5.0485   -2.4846   -5.5950 H         1 <0>         0.1445
     41 H17         1.6998    1.9953   -3.0099 H         1 <0>         0.4363
     42 H18         3.7428    1.3144   -5.9674 H         1 <0>         0.1137
     43 H19         4.6689   -0.1596   -6.3387 H         1 <0>         0.1282
     44 H20         3.5948   -2.0709   -7.3862 H         1 <0>         0.1265
     45 H21         1.7695   -2.8507   -8.8434 H         1 <0>         0.1337
     46 H22        -0.2487   -1.4704   -9.1345 H         1 <0>         0.1331
     47 H23        -0.4419    0.6894   -7.9678 H         1 <0>         0.1320
     48 H24         1.3798    1.4653   -6.5041 H         1 <0>         0.1174
     49 H25         1.1919   -2.3177   -0.5060 H         1 <0>         0.3786
     50 H26         2.2186    2.0775   -4.6057 H         1 <0>         0.4366
@<TRIPOS>BOND
     1    1    2 1
     2    1   26 1
     3    1   27 1
     4    1   28 1
     5    2    3 1
     6    2    4 1
     7    2    5 1
     8    3   29 1
     9    3   30 1
    10    3   31 1
    11    4   32 1
    12    4   33 1
    13    4   34 1
    14    5    6 1
    15    5    7 1
    16    5   25 1
    17    7    8 1
    18    7   35 1
    19    7   36 1
    20    8   16 2
    21    8    9 1
    22    9   14 ar
    23    9   10 ar
    24   10   11 ar
    25   10   37 1
    26   11   12 ar
    27   11   38 1
    28   12   13 ar
    29   12   39 1
    30   13   14 ar
    31   13   40 1
    32   14   15 1
    33   15   16 1
    34   15   18 1
    35   16   17 1
    36   17   41 1
    37   17   50 1
    38   18   19 1
    39   18   42 1
    40   18   43 1
    41   19   24 ar
    42   19   20 ar
    43   20   21 ar
    44   20   44 1
    45   21   22 ar
    46   21   45 1
    47   22   23 ar
    48   22   46 1
    49   23   24 ar
    50   23   47 1
    51   24   48 1
    52   25   49 1
@<TRIPOS>MOLECULE
ZINC04639054
   50    52     0     0     0
SMALL
USER_CHARGES

@<TRIPOS>ATOM
      1 C1         -0.0187    1.5258    0.0104 C.3       1 <0>        -0.1602
      2 C2          0.0021   -0.0041    0.0020 C.3       1 <0>        -0.0938
      3 C3          0.7421   -0.5109    1.2415 C.3       1 <0>        -0.1540
      4 C4         -1.4333   -0.5336    0.0129 C.3       1 <0>        -0.1410
      5 C5          0.7182   -0.4975   -1.2568 C.3       1 <0>         0.0981
      6 H1          0.7330   -1.5874   -1.2628 H         1 <0>         0.1182
      7 C6          2.1536    0.0321   -1.2676 C.3       1 <0>         0.0498
      8 N1          2.8751   -0.5361   -2.4091 N.pl3     1 <0>        -0.4292
      9 C7          3.5773   -1.6995   -2.3913 C.ar      1 <0>         0.0604
     10 C8          3.8322   -2.6517   -1.4014 C.ar      1 <0>        -0.0812
     11 C9          4.6013   -3.7552   -1.6958 C.ar      1 <0>        -0.0845
     12 C10         5.1252   -3.9288   -2.9683 C.ar      1 <0>        -0.0753
     13 C11         4.8831   -2.9973   -3.9568 C.ar      1 <0>        -0.0875
     14 C12         4.1103   -1.8803   -3.6782 C.ar      1 <0>         0.0909
     15 N2          3.6926   -0.7906   -4.4247 N.pl3     1 <0>        -0.4644
     16 C13         2.9372   -0.0031   -3.6039 C.cat     1 <0>         0.6472
     17 N3          2.3326    1.1789   -3.9764 N.pl3     1 <0>        -0.7955
     18 C14         3.9995   -0.5338   -5.8339 C.3       1 <0>         0.1511
     19 C15         2.9363   -1.1569   -6.7013 C.ar      1 <0>        -0.1442
     20 C16         3.0791   -2.4594   -7.1415 C.ar      1 <0>        -0.0897
     21 C17         2.1038   -3.0310   -7.9371 C.ar      1 <0>        -0.1137
     22 C18         0.9854   -2.3001   -8.2922 C.ar      1 <0>        -0.0926
     23 C19         0.8422   -0.9978   -7.8512 C.ar      1 <0>        -0.1139
     24 C20         1.8155   -0.4277   -7.0521 C.ar      1 <0>        -0.0983
     25 O1          0.0271   -0.0241   -2.4145 O.3       1 <0>        -0.5447
     26 H2          1.0039    1.9031    0.0027 H         1 <0>         0.0563
     27 H3         -0.5459    1.8868   -0.8726 H         1 <0>         0.0611
     28 H4         -0.5289    1.8773    0.9072 H         1 <0>         0.0766
     29 H5          0.2319   -0.1594    2.1383 H         1 <0>         0.0734
     30 H6          0.7568   -1.6008    1.2356 H         1 <0>         0.0647
     31 H7          1.7647   -0.1336    1.2338 H         1 <0>         0.0567
     32 H8         -1.9605   -0.1726   -0.8702 H         1 <0>         0.0655
     33 H9         -1.4185   -1.6235    0.0069 H         1 <0>         0.0596
     34 H10        -1.9435   -0.1821    0.9097 H         1 <0>         0.0658
     35 H11         2.1393    1.1188   -1.3512 H         1 <0>         0.1133
     36 H12         2.6537   -0.2546   -0.3425 H         1 <0>         0.1363
     37 H13         3.4277   -2.5226   -0.4084 H         1 <0>         0.1450
     38 H14         4.7984   -4.4909   -0.9301 H         1 <0>         0.1528
     39 H15         5.7270   -4.7986   -3.1866 H         1 <0>         0.1530
     40 H16         5.2945   -3.1379   -4.9454 H         1 <0>         0.1452
     41 H17         1.8128    1.6824   -3.3305 H         1 <0>         0.4327
     42 H18         4.0276    0.5416   -6.0096 H         1 <0>         0.1134
     43 H19         4.9689   -0.9674   -6.0795 H         1 <0>         0.1277
     44 H20         3.9528   -3.0305   -6.8641 H         1 <0>         0.1259
     45 H21         2.2156   -4.0484   -8.2816 H         1 <0>         0.1331
     46 H22         0.2238   -2.7464   -8.9143 H         1 <0>         0.1327
     47 H23        -0.0313   -0.4267   -8.1289 H         1 <0>         0.1319
     48 H24         1.7018    0.5885   -6.7045 H         1 <0>         0.1174
     49 H25        -0.0248    0.9396   -2.4749 H         1 <0>         0.3712
     50 H26         2.4270    1.5069   -4.8844 H         1 <0>         0.4363
@<TRIPOS>BOND
     1    1    2 1
     2    1   26 1
     3    1   27 1
     4    1   28 1
     5    2    3 1
     6    2    4 1
     7    2    5 1
     8    3   29 1
     9    3   30 1
    10    3   31 1
    11    4   32 1
    12    4   33 1
    13    4   34 1
    14    5    6 1
    15    5    7 1
    16    5   25 1
    17    7    8 1
    18    7   35 1
    19    7   36 1
    20    8   16 2
    21    8    9 1
    22    9   14 ar
    23    9   10 ar
    24   10   11 ar
    25   10   37 1
    26   11   12 ar
    27   11   38 1
    28   12   13 ar
    29   12   39 1
    30   13   14 ar
    31   13   40 1
    32   14   15 1
    33   15   16 1
    34   15   18 1
    35   16   17 1
    36   17   41 1
    37   17   50 1
    38   18   19 1
    39   18   42 1
    40   18   43 1
    41   19   24 ar
    42   19   20 ar
    43   20   21 ar
    44   20   44 1
    45   21   22 ar
    46   21   45 1
    47   22   23 ar
    48   22   46 1
    49   23   24 ar
    50   23   47 1
    51   24   48 1
    52   25   49 1
@<TRIPOS>MOLECULE
ZINC04164730
   61    64     0     0     0
SMALL
USER_CHARGES
2-methyl-7-[(6-methyl-2-pyridyl)amino-(3,4,5-trimethoxyphenyl)-methyl]-quinolin-8-ol
@<TRIPOS>ATOM
      1 C1          7.6446    2.2612   -5.2123 C.3       1 <0>        -0.1478
      2 C2          6.6162    3.0229   -4.4165 C.ar      1 <0>         0.1906
      3 C3          5.6884    3.8057   -5.0743 C.ar      1 <0>        -0.1729
      4 C4          4.7435    4.5056   -4.3361 C.ar      1 <0>         0.0520
      5 C5          4.7665    4.3923   -2.9576 C.ar      1 <0>        -0.2035
      6 C6          5.7299    3.5855   -2.3611 C.ar      1 <0>         0.4607
      7 N1          5.7647    3.4629   -0.9769 N.pl3     1 <0>        -0.6959
      8 C7          4.7497    4.1287   -0.1568 C.3       1 <0>         0.2403
      9 H1          4.4957    5.0903   -0.6027 H         1 <0>         0.1265
     10 C8          3.5159    3.2662   -0.0863 C.ar      1 <0>        -0.1324
     11 C9          3.6318    1.8887   -0.2535 C.ar      1 <0>        -0.1057
     12 C10         2.5365    1.0818   -0.1955 C.ar      1 <0>        -0.0860
     13 C11         1.2699    1.6424    0.0370 C.ar      1 <0>        -0.0935
     14 C12         0.1147    0.8406    0.1040 C.ar      1 <0>        -0.0573
     15 C13        -1.0842    1.4553    0.3270 C.ar      1 <0>        -0.1562
     16 C14        -1.1365    2.8380    0.4913 C.ar      1 <0>         0.1708
     17 N2         -0.0584    3.5810    0.4286 N.ar      1 <0>        -0.4634
     18 C15         1.1443    3.0427    0.2080 C.ar      1 <0>         0.1130
     19 C16         2.3012    3.8474    0.1410 C.ar      1 <0>         0.1633
     20 O1          2.2073    5.1931    0.3013 O.3       1 <0>        -0.4789
     21 C17        -2.4682    3.4972    0.7424 C.3       1 <0>        -0.1138
     22 C18         5.2904    4.3465    1.2329 C.ar      1 <0>        -0.0363
     23 C19         5.9418    3.3183    1.8881 C.ar      1 <0>        -0.2265
     24 C20         6.4457    3.5164    3.1646 C.ar      1 <0>         0.1589
     25 C21         6.2848    4.7471    3.7900 C.ar      1 <0>         0.0453
     26 C22         5.6243    5.7765    3.1300 C.ar      1 <0>         0.1614
     27 C23         5.1286    5.5722    1.8512 C.ar      1 <0>        -0.2174
     28 O2          5.4638    6.9825    3.7379 O.3       1 <0>        -0.2945
     29 C24         4.7747    7.9940    3.0004 C.3       1 <0>         0.0209
     30 O3          6.7723    4.9435    5.0453 O.3       1 <0>        -0.3114
     31 C25         5.8984    4.6423    6.1351 C.3       1 <0>         0.0351
     32 O4          7.0914    2.5059    3.8062 O.3       1 <0>        -0.2944
     33 C26         7.1428    1.2427    3.1401 C.3       1 <0>         0.0234
     34 H2          8.5308    2.8810   -5.3484 H         1 <0>         0.1124
     35 H3          7.9164    1.3510   -4.6778 H         1 <0>         0.0927
     36 H4          7.2303    2.0007   -6.1863 H         1 <0>         0.1151
     37 H5          5.6977    3.8731   -6.1522 H         1 <0>         0.1823
     38 H6          4.0075    5.1250   -4.8271 H         1 <0>         0.1750
     39 H7          4.0464    4.9233   -2.3527 H         1 <0>         0.1804
     40 H8          6.4611    2.9365   -0.5540 H         1 <0>         0.4179
     41 H9          4.6042    1.4542   -0.4324 H         1 <0>         0.1203
     42 H10         2.6415    0.0149   -0.3266 H         1 <0>         0.1366
     43 H11         0.1744   -0.2304   -0.0218 H         1 <0>         0.1464
     44 H12        -1.9904    0.8701    0.3793 H         1 <0>         0.1463
     45 H13         2.2969    5.4872    1.2182 H         1 <0>         0.3968
     46 H14        -2.9250    3.7676   -0.2096 H         1 <0>         0.0874
     47 H15        -3.1211    2.8059    1.2753 H         1 <0>         0.0829
     48 H16        -2.3217    4.3949    1.3431 H         1 <0>         0.0834
     49 H17         6.0623    2.3607    1.4033 H         1 <0>         0.1308
     50 H18         4.6152    6.3716    1.3377 H         1 <0>         0.1447
     51 H19         5.3143    8.2013    2.0763 H         1 <0>         0.0607
     52 H20         3.7681    7.6491    2.7638 H         1 <0>         0.0605
     53 H21         4.7159    8.9033    3.5986 H         1 <0>         0.1104
     54 H22         5.0054    5.2636    6.0672 H         1 <0>         0.0478
     55 H23         5.6137    3.5910    6.0927 H         1 <0>         0.0463
     56 H24         6.4096    4.8425    7.0768 H         1 <0>         0.0997
     57 H25         7.7254    1.3386    2.2238 H         1 <0>         0.0545
     58 H26         7.6114    0.5064    3.7931 H         1 <0>         0.1098
     59 H27         6.1310    0.9196    2.8952 H         1 <0>         0.0582
     60 N3          6.6719    2.8926   -3.0643 N.ar      1 <0>        -0.5374
     61 H28         7.3787    2.3092   -2.6012 H         1 <0>         0.4635
@<TRIPOS>BOND
     1    1    2 1
     2    1   34 1
     3    1   35 1
     4    1   36 1
     5    2    3 ar
     6    2   60 ar
     7    3    4 ar
     8    3   37 1
     9    4    5 ar
    10    4   38 1
    11    5    6 ar
    12    5   39 1
    13    6    7 1
    14    6   60 ar
    15    7    8 1
    16    7   40 1
    17    8    9 1
    18    8   10 1
    19    8   22 1
    20   10   19 ar
    21   10   11 ar
    22   11   12 ar
    23   11   41 1
    24   12   13 ar
    25   12   42 1
    26   13   18 ar
    27   13   14 ar
    28   14   15 ar
    29   14   43 1
    30   15   16 ar
    31   15   44 1
    32   16   17 ar
    33   16   21 1
    34   17   18 ar
    35   18   19 ar
    36   19   20 1
    37   20   45 1
    38   21   46 1
    39   21   47 1
    40   21   48 1
    41   22   27 ar
    42   22   23 ar
    43   23   24 ar
    44   23   49 1
    45   24   25 ar
    46   24   32 1
    47   25   26 ar
    48   25   30 1
    49   26   27 ar
    50   26   28 1
    51   27   50 1
    52   28   29 1
    53   29   51 1
    54   29   52 1
    55   29   53 1
    56   30   31 1
    57   31   54 1
    58   31   55 1
    59   31   56 1
    60   32   33 1
    61   33   57 1
    62   33   58 1
    63   33   59 1
    64   60   61 1
@<TRIPOS>MOLECULE
ZINC04164735
   61    64     0     0     0
SMALL
USER_CHARGES
2-methyl-7-[(6-methyl-2-pyridyl)amino-(3,4,5-trimethoxyphenyl)-methyl]-quinolin-8-ol
@<TRIPOS>ATOM
      1 C1         -2.6835    1.2236    5.4168 C.3       1 <0>        -0.1478
      2 C2         -1.6710    0.8100    4.3800 C.ar      1 <0>         0.1903
      3 C3         -0.7209   -0.1404    4.6965 C.ar      1 <0>        -0.1724
      4 C4          0.2097   -0.5173    3.7376 C.ar      1 <0>         0.0519
      5 C5          0.1505    0.0779    2.4902 C.ar      1 <0>        -0.2023
      6 C6         -0.8338    1.0285    2.2403 C.ar      1 <0>         0.4597
      7 N1         -0.9046    1.6349    0.9915 N.pl3     1 <0>        -0.6963
      8 C7         -0.0238    1.1883   -0.0906 C.3       1 <0>         0.2409
      9 H1          0.1262    0.1113   -0.0159 H         1 <0>         0.1265
     10 C8          1.3053    1.8896    0.0216 C.ar      1 <0>        -0.1336
     11 C9          1.3748    3.1308    0.6489 C.ar      1 <0>        -0.1050
     12 C10         2.5603    3.7904    0.7666 C.ar      1 <0>        -0.0855
     13 C11         3.7321    3.2143    0.2494 C.ar      1 <0>        -0.0932
     14 C12         4.9759    3.8656    0.3525 C.ar      1 <0>        -0.0572
     15 C13         6.0734    3.2456   -0.1729 C.ar      1 <0>        -0.1560
     16 C14         5.9412    2.0030   -0.7893 C.ar      1 <0>         0.1707
     17 N2          4.7811    1.3998   -0.8831 N.ar      1 <0>        -0.4633
     18 C15         3.6692    1.9521   -0.3899 C.ar      1 <0>         0.1131
     19 C16         2.4242    1.2956   -0.4885 C.ar      1 <0>         0.1633
     20 O1          2.3382    0.0816   -1.0918 O.3       1 <0>        -0.4795
     21 C17         7.1641    1.3345   -1.3626 C.3       1 <0>        -0.1137
     22 C18        -0.6544    1.5167   -1.4194 C.ar      1 <0>        -0.0363
     23 C19        -1.1952    2.7704   -1.6347 C.ar      1 <0>        -0.2265
     24 C20        -1.7713    3.0784   -2.8578 C.ar      1 <0>         0.1589
     25 C21        -1.8142    2.1209   -3.8643 C.ar      1 <0>         0.0452
     26 C22        -1.2744    0.8597   -3.6419 C.ar      1 <0>         0.1613
     27 C23        -0.6955    0.5614   -2.4176 C.ar      1 <0>        -0.2174
     28 O2         -1.3143   -0.0808   -4.6234 O.3       1 <0>        -0.2945
     29 C24        -0.7409   -1.3552   -4.3245 C.3       1 <0>         0.0210
     30 O3         -2.3836    2.4174   -5.0643 O.3       1 <0>        -0.3106
     31 C25        -3.7813    2.1534   -5.2020 C.3       1 <0>         0.0355
     32 O4         -2.2981    4.3140   -3.0706 O.3       1 <0>        -0.2943
     33 C26        -2.3208    5.2100   -1.9576 C.3       1 <0>         0.0237
     34 H2         -2.2936    2.0647    5.9901 H         1 <0>         0.1120
     35 H3         -3.6094    1.5184    4.9230 H         1 <0>         0.0928
     36 H4         -2.8797    0.3867    6.0871 H         1 <0>         0.1153
     37 H5         -0.7016   -0.5860    5.6801 H         1 <0>         0.1824
     38 H6          0.9631   -1.2583    3.9606 H         1 <0>         0.1749
     39 H7          0.8586   -0.1920    1.7207 H         1 <0>         0.1803
     40 H8         -1.5371    2.3538    0.8366 H         1 <0>         0.4173
     41 H9          0.4756    3.5769    1.0474 H         1 <0>         0.1204
     42 H10         2.5993    4.7523    1.2559 H         1 <0>         0.1366
     43 H11         5.0599    4.8287    0.8341 H         1 <0>         0.1464
     44 H12         7.0427    3.7180   -0.1112 H         1 <0>         0.1463
     45 H13         2.1696    0.1262   -2.0430 H         1 <0>         0.3975
     46 H14         7.6273    0.7086   -0.5999 H         1 <0>         0.0872
     47 H15         6.8756    0.7171   -2.2133 H         1 <0>         0.0834
     48 H16         7.8740    2.0944   -1.6894 H         1 <0>         0.0829
     49 H17        -1.1650    3.5126   -0.8506 H         1 <0>         0.1310
     50 H18        -0.2758   -0.4185   -2.2440 H         1 <0>         0.1446
     51 H19         0.3142   -1.2307   -4.0809 H         1 <0>         0.0618
     52 H20        -1.2605   -1.7970   -3.4742 H         1 <0>         0.0593
     53 H21        -0.8391   -2.0099   -5.1905 H         1 <0>         0.1104
     54 H22        -4.3351    2.7333   -4.4637 H         1 <0>         0.0455
     55 H23        -4.1071    2.4343   -6.2035 H         1 <0>         0.0996
     56 H24        -3.9677    1.0911   -5.0439 H         1 <0>         0.0473
     57 H25        -2.8416    4.7400   -1.1234 H         1 <0>         0.0532
     58 H26        -1.2990    5.4469   -1.6610 H         1 <0>         0.0591
     59 H27        -2.8390    6.1265   -2.2396 H         1 <0>         0.1098
     60 N3         -1.7555    1.4195    3.1676 N.ar      1 <0>        -0.5372
     61 H28        -2.4682    2.1297    2.9625 H         1 <0>         0.4634
@<TRIPOS>BOND
     1    1    2 1
     2    1   34 1
     3    1   35 1
     4    1   36 1
     5    2    3 ar
     6    2   60 ar
     7    3    4 ar
     8    3   37 1
     9    4    5 ar
    10    4   38 1
    11    5    6 ar
    12    5   39 1
    13    6    7 1
    14    6   60 ar
    15    7    8 1
    16    7   40 1
    17    8    9 1
    18    8   10 1
    19    8   22 1
    20   10   19 ar
    21   10   11 ar
    22   11   12 ar
    23   11   41 1
    24   12   13 ar
    25   12   42 1
    26   13   18 ar
    27   13   14 ar
    28   14   15 ar
    29   14   43 1
    30   15   16 ar
    31   15   44 1
    32   16   17 ar
    33   16   21 1
    34   17   18 ar
    35   18   19 ar
    36   19   20 1
    37   20   45 1
    38   21   46 1
    39   21   47 1
    40   21   48 1
    41   22   27 ar
    42   22   23 ar
    43   23   24 ar
    44   23   49 1
    45   24   25 ar
    46   24   32 1
    47   25   26 ar
    48   25   30 1
    49   26   27 ar
    50   26   28 1
    51   27   50 1
    52   28   29 1
    53   29   51 1
    54   29   52 1
    55   29   53 1
    56   30   31 1
    57   31   54 1
    58   31   55 1
    59   31   56 1
    60   32   33 1
    61   33   57 1
    62   33   58 1
    63   33   59 1
    64   60   61 1
@<TRIPOS>MOLECULE
ZINC00642562
   45    47     0     0     0
SMALL
USER_CHARGES
3-[(2-amino-5-phenyl-3-thienyl)carbonylamino]-1-(4-methoxyphenyl)-thiourea
@<TRIPOS>ATOM
      1 C1         11.9255   -3.0678    1.4598 C.3       1 <0>         0.0254
      2 O1         11.2518   -3.5337    0.2889 O.3       1 <0>        -0.3142
      3 C2          9.9191   -3.2787    0.2008 C.ar      1 <0>         0.1401
      4 C3          9.2039   -3.7032   -0.9094 C.ar      1 <0>        -0.1445
      5 C4          7.8504   -3.4446   -0.9995 C.ar      1 <0>        -0.0271
      6 C5          7.2053   -2.7598    0.0217 C.ar      1 <0>         0.0760
      7 C6          7.9228   -2.3306    1.1302 C.ar      1 <0>        -0.0765
      8 C7          9.2752   -2.5945    1.2214 C.ar      1 <0>        -0.2059
      9 N1          5.8322   -2.4971   -0.0690 N.pl3     1 <0>        -0.6265
     10 C8          4.9838   -3.4708   -0.4544 C.2       1 <0>         0.5539
     11 S1          5.5938   -4.9955   -0.9385 S.2       1 <0>        -0.5686
     12 N2          3.6552   -3.2443   -0.4588 N.pl3     1 <0>        -0.4611
     13 N3          3.1560   -1.9966   -0.0627 N.am      1 <0>        -0.5495
     14 C9          1.8275   -1.7701   -0.0670 C.2       1 <0>         0.6010
     15 O2          1.0612   -2.6495   -0.4151 O.2       1 <0>        -0.5451
     16 C10         1.3053   -0.4650    0.3474 C.2       1 <0>        -0.3110
     17 C11         2.1611    0.5612    0.7513 C.2       1 <0>        -0.0702
     18 C12         1.5999    1.7436    1.1208 C.2       1 <0>        -0.1625
     19 S2         -0.1430    1.4365    0.9078 S.3       1 <0>         0.1543
     20 C13        -0.0645   -0.2032    0.3520 C.2       1 <0>         0.2073
     21 N4         -1.1019   -1.0426   -0.0000 N.pl3     1 <0>        -0.7835
     22 C14         2.2690    2.9770    1.5844 C.ar      1 <0>         0.0065
     23 C15         3.6602    3.0220    1.6915 C.ar      1 <0>        -0.1085
     24 C16         4.2788    4.1786    2.1190 C.ar      1 <0>        -0.1105
     25 C17         3.5229    5.2883    2.4531 C.ar      1 <0>        -0.1195
     26 C18         2.1434    5.2485    2.3547 C.ar      1 <0>        -0.1090
     27 C19         1.5124    4.1004    1.9226 C.ar      1 <0>        -0.1150
     28 H1         11.8296   -1.9841    1.5272 H         1 <0>         0.0565
     29 H2         11.4804   -3.5274    2.3423 H         1 <0>         0.0570
     30 H3         12.9804   -3.3363    1.4032 H         1 <0>         0.1018
     31 H4          9.7058   -4.2358   -1.7036 H         1 <0>         0.1386
     32 H5          7.2937   -3.7752   -1.8639 H         1 <0>         0.1551
     33 H6          7.4226   -1.7940    1.9228 H         1 <0>         0.1267
     34 H7          9.8327   -2.2643    2.0855 H         1 <0>         0.1340
     35 H8          5.4920   -1.6144    0.1456 H         1 <0>         0.3985
     36 H9          3.0446   -3.9451   -0.7362 H         1 <0>         0.4608
     37 H10         3.7666   -1.2958    0.2148 H         1 <0>         0.4184
     38 H11         3.2318    0.4210    0.7700 H         1 <0>         0.1319
     39 H12        -2.0183   -0.7287    0.0504 H         1 <0>         0.4137
     40 H13        -0.9146   -1.9466   -0.2978 H         1 <0>         0.4280
     41 H14         4.2511    2.1550    1.4356 H         1 <0>         0.1219
     42 H15         5.3553    4.2162    2.1980 H         1 <0>         0.1270
     43 H16         4.0119    6.1896    2.7919 H         1 <0>         0.1252
     44 H17         1.5592    6.1184    2.6163 H         1 <0>         0.1272
     45 H18         0.4355    4.0707    1.8459 H         1 <0>         0.1221
@<TRIPOS>BOND
     1    1    2 1
     2    1   28 1
     3    1   29 1
     4    1   30 1
     5    2    3 1
     6    3    8 ar
     7    3    4 ar
     8    4    5 ar
     9    4   31 1
    10    5    6 ar
    11    5   32 1
    12    6    7 ar
    13    6    9 1
    14    7    8 ar
    15    7   33 1
    16    8   34 1
    17    9   10 1
    18    9   35 1
    19   10   11 2
    20   10   12 1
    21   12   13 1
    22   12   36 1
    23   13   14 am
    24   13   37 1
    25   14   15 2
    26   14   16 1
    27   16   20 2
    28   16   17 1
    29   17   18 2
    30   17   38 1
    31   18   19 1
    32   18   22 1
    33   19   20 1
    34   20   21 1
    35   21   39 1
    36   21   40 1
    37   22   27 ar
    38   22   23 ar
    39   23   24 ar
    40   23   41 1
    41   24   25 ar
    42   24   42 1
    43   25   26 ar
    44   25   43 1
    45   26   27 ar
    46   26   44 1
    47   27   45 1
@<TRIPOS>MOLECULE
ZINC59047505
   61    64     0     0     0
SMALL
USER_CHARGES

@<TRIPOS>ATOM
      1 C1         -0.0167    1.3784    0.0096 C.ar      1 <0>        -0.0722
      2 C2          1.1695    2.0865    0.0021 C.ar      1 <0>        -0.1500
      3 C3          2.3802    1.4093   -0.0131 C.ar      1 <0>         0.1309
      4 C4          2.3963    0.0221   -0.0206 C.ar      1 <0>        -0.2094
      5 C5          1.2074   -0.6814   -0.0130 C.ar      1 <0>        -0.0701
      6 C6          0.0021   -0.0041    0.0020 C.ar      1 <0>        -0.1181
      7 C7         -1.2934   -0.7740    0.0107 C.3       1 <0>        -0.0393
      8 C8         -1.7392   -1.0230   -1.4071 C.ar      1 <0>        -0.0667
      9 C9         -1.5145   -2.2530   -1.9966 C.ar      1 <0>        -0.0745
     10 C10        -1.9234   -2.4816   -3.2970 C.ar      1 <0>        -0.0675
     11 C11        -2.5574   -1.4802   -4.0090 C.ar      1 <0>        -0.0849
     12 C12        -2.7827   -0.2502   -3.4208 C.ar      1 <0>        -0.1101
     13 C13        -2.3787   -0.0226   -2.1171 C.ar      1 <0>        -0.0233
     14 Cl1        -2.6672    1.5201   -1.3752 Cl        1 <0>        -0.0637
     15 C14        -1.6776   -3.8226   -3.9392 C.3       1 <0>         0.1396
     16 H1         -0.8864   -4.3441   -3.4004 H         1 <0>         0.0821
     17 C15        -2.9618   -4.6545   -3.8916 C.3       1 <0>         0.0968
     18 H2         -3.7641   -4.1151   -4.3951 H         1 <0>         0.0748
     19 C16        -2.7213   -5.9916   -4.5991 C.3       1 <0>         0.0383
     20 H3         -1.9534   -6.5529   -4.0667 H         1 <0>         0.0787
     21 C17        -2.2565   -5.7213   -6.0335 C.3       1 <0>         0.0488
     22 H4         -3.0445   -5.2035   -6.5802 H         1 <0>         0.0796
     23 C18        -0.9995   -4.8482   -5.9983 C.3       1 <0>         0.0988
     24 H5         -0.1994   -5.3832   -5.4866 H         1 <0>         0.0804
     25 O1         -1.2834   -3.6343   -5.2998 O.3       1 <0>        -0.3417
     26 C19        -0.5632   -4.5241   -7.4285 C.3       1 <0>         0.0898
     27 O2          0.6732   -3.8082   -7.3987 O.3       1 <0>        -0.5654
     28 O3         -1.9608   -6.9604   -6.6811 O.3       1 <0>        -0.5523
     29 O4         -3.9350   -6.7454   -4.6221 O.3       1 <0>        -0.5571
     30 O5         -3.3268   -4.8919   -2.5305 O.3       1 <0>        -0.5475
     31 O6          3.5484    2.1036   -0.0209 O.3       1 <0>        -0.3069
     32 C20         4.7565    1.3405   -0.0365 C.3       1 <0>         0.0611
     33 C21         5.9580    2.2878   -0.0434 C.3       1 <0>         0.0650
     34 O7          5.9914    3.0237    1.1811 O.3       1 <0>        -0.3494
     35 C22         7.0815    3.9426    1.2773 C.3       1 <0>         0.0133
     36 C23         7.7662    4.0864    2.6380 C.3       1 <0>        -0.1887
     37 C24         6.8679    5.2073    2.1114 C.3       1 <0>        -0.1820
     38 H6         -0.9594    1.9052    0.0259 H         1 <0>         0.1330
     39 H7          1.1543    3.1664    0.0076 H         1 <0>         0.1295
     40 H8          3.3375   -0.5074   -0.0328 H         1 <0>         0.1263
     41 H9          1.2194   -1.7613   -0.0189 H         1 <0>         0.1232
     42 H10        -1.1460   -1.7274    0.5180 H         1 <0>         0.0861
     43 H11        -2.0553   -0.1973    0.5352 H         1 <0>         0.0883
     44 H12        -1.0189   -3.0355   -1.4410 H         1 <0>         0.1324
     45 H13        -2.8764   -1.6593   -5.0252 H         1 <0>         0.1336
     46 H14        -3.2777    0.5320   -3.9772 H         1 <0>         0.1352
     47 H15        -0.4331   -5.4507   -7.9875 H         1 <0>         0.0737
     48 H16        -1.3256   -3.9126   -7.9112 H         1 <0>         0.0550
     49 H17         1.0104   -3.5691   -8.2729 H         1 <0>         0.3839
     50 H18        -2.7131   -7.5655   -6.7347 H         1 <0>         0.3831
     51 H19        -3.8555   -7.6058   -5.0564 H         1 <0>         0.3833
     52 H20        -4.1336   -5.4146   -2.4251 H         1 <0>         0.3906
     53 H21         4.7979    0.7076    0.8500 H         1 <0>         0.0721
     54 H22         4.7806    0.7165   -0.9299 H         1 <0>         0.0798
     55 H23         6.8762    1.7093   -0.1448 H         1 <0>         0.0747
     56 H24         5.8702    2.9798   -0.8810 H         1 <0>         0.0644
     57 H25         7.7062    4.0259    0.3879 H         1 <0>         0.1112
     58 H26         7.3852    3.4800    3.4597 H         1 <0>         0.1002
     59 H27         8.8416    4.2641    2.6440 H         1 <0>         0.1006
     60 H28         7.3522    6.1225    1.7710 H         1 <0>         0.1014
     61 H29         5.8957    5.3385    2.5868 H         1 <0>         0.1013
@<TRIPOS>BOND
     1    1    6 ar
     2    1    2 ar
     3    1   38 1
     4    2    3 ar
     5    2   39 1
     6    3    4 ar
     7    3   31 1
     8    4    5 ar
     9    4   40 1
    10    5    6 ar
    11    5   41 1
    12    6    7 1
    13    7    8 1
    14    7   42 1
    15    7   43 1
    16    8   13 ar
    17    8    9 ar
    18    9   10 ar
    19    9   44 1
    20   10   11 ar
    21   10   15 1
    22   11   12 ar
    23   11   45 1
    24   12   13 ar
    25   12   46 1
    26   13   14 1
    27   15   16 1
    28   15   25 1
    29   15   17 1
    30   17   18 1
    31   17   19 1
    32   17   30 1
    33   19   20 1
    34   19   21 1
    35   19   29 1
    36   21   22 1
    37   21   23 1
    38   21   28 1
    39   23   24 1
    40   23   25 1
    41   23   26 1
    42   26   27 1
    43   26   47 1
    44   26   48 1
    45   27   49 1
    46   28   50 1
    47   29   51 1
    48   30   52 1
    49   31   32 1
    50   32   33 1
    51   32   53 1
    52   32   54 1
    53   33   34 1
    54   33   55 1
    55   33   56 1
    56   34   35 1
    57   35   37 1
    58   35   36 1
    59   35   57 1
    60   36   37 1
    61   36   58 1
    62   36   59 1
    63   37   60 1
    64   37   61 1
@<TRIPOS>MOLECULE
ZINC02008850
   59    61     0     0     0
SMALL
USER_CHARGES
2-(2,4-dihydroxyphenyl)-5,7-dihydroxy-8-(2-isopropenyl-5-methyl-hex-4-enyl)-chroman-4-one
@<TRIPOS>ATOM
      1 C1          3.3436    4.6466    3.6562 C.3       1 <0>        -0.1182
      2 C2          3.5136    3.9445    4.9788 C.2       1 <0>        -0.1383
      3 C3          3.7221    2.6516    5.0120 C.2       1 <0>        -0.1573
      4 C4          3.6491    1.8438    3.7420 C.3       1 <0>        -0.0857
      5 C5          4.9925    1.1529    3.4990 C.3       1 <0>        -0.0365
      6 H1          5.7885    1.8974    3.4954 H         1 <0>         0.0700
      7 C6          4.9597    0.4346    2.1485 C.3       1 <0>        -0.0611
      8 C7          4.8632    1.4518    1.0408 C.ar      1 <0>        -0.1554
      9 C8          6.0152    2.0565    0.5536 C.ar      1 <0>         0.1972
     10 C9          5.9454    2.9947   -0.4685 C.ar      1 <0>        -0.2193
     11 C10         4.7198    3.3392   -1.0107 C.ar      1 <0>         0.2183
     12 C11         3.5521    2.7360   -0.5184 C.ar      1 <0>        -0.2896
     13 C12         3.6278    1.7805    0.5122 C.ar      1 <0>         0.2151
     14 O1          2.5097    1.1796    0.9829 O.3       1 <0>        -0.2938
     15 C13         1.2534    1.8327    0.8021 C.3       1 <0>         0.1539
     16 H2          1.2256    2.7416    1.4032 H         1 <0>         0.0895
     17 C14         1.0764    2.1931   -0.6802 C.3       1 <0>        -0.1818
     18 C15         2.2382    3.0910   -1.0660 C.2       1 <0>         0.4039
     19 O2          2.0876    4.0534   -1.7901 O.2       1 <0>        -0.4294
     20 C16         0.1411    0.9113    1.2319 C.ar      1 <0>        -0.1268
     21 C17         0.3335   -0.4571    1.2168 C.ar      1 <0>        -0.0587
     22 C18        -0.6843   -1.3045    1.6102 C.ar      1 <0>        -0.1524
     23 C19        -1.9030   -0.7830    2.0217 C.ar      1 <0>         0.1337
     24 C20        -2.0984    0.5892    2.0378 C.ar      1 <0>        -0.1717
     25 C21        -1.0754    1.4375    1.6424 C.ar      1 <0>         0.1411
     26 O3         -1.2641    2.7832    1.6566 O.3       1 <0>        -0.4932
     27 O4         -2.9039   -1.6170    2.4082 O.3       1 <0>        -0.4966
     28 O5          4.6476    4.2525   -2.0105 O.3       1 <0>        -0.4787
     29 O6          7.2209    1.7270    1.0812 O.3       1 <0>        -0.4845
     30 C22         5.2472    0.1505    4.5951 C.2       1 <0>        -0.1117
     31 C23         6.3145    0.2591    5.3469 C.2       1 <0>        -0.1970
     32 C24         4.2743   -0.9769    4.8262 C.3       1 <0>        -0.1220
     33 C25         3.4438    4.7297    6.2632 C.3       1 <0>        -0.1170
     34 H3          2.3025    4.5796    3.3404 H         1 <0>         0.0610
     35 H4          3.6243    5.6945    3.7624 H         1 <0>         0.0611
     36 H5          3.9811    4.1736    2.9092 H         1 <0>         0.0625
     37 H6          3.9463    2.1647    5.9496 H         1 <0>         0.1082
     38 H7          3.4231    2.5034    2.9042 H         1 <0>         0.0709
     39 H8          2.8653    1.0919    3.8341 H         1 <0>         0.0766
     40 H9          4.0948   -0.2276    2.1101 H         1 <0>         0.0830
     41 H10         5.8711   -0.1506    2.0260 H         1 <0>         0.0831
     42 H11         6.8486    3.4555   -0.8406 H         1 <0>         0.1454
     43 H12         1.0757    1.3570   -1.2287 H         1 <0>         0.1023
     44 H13         0.1345    2.7228   -0.8235 H         1 <0>         0.1171
     45 H14         1.2811   -0.8648    0.8972 H         1 <0>         0.1410
     46 H15        -0.5314   -2.3735    1.5979 H         1 <0>         0.1364
     47 H16        -3.0475    0.9967    2.3534 H         1 <0>         0.1400
     48 H17        -1.0242    3.2053    2.4929 H         1 <0>         0.3952
     49 H18        -3.4880   -1.8907    1.6878 H         1 <0>         0.3967
     50 H19         4.5442    5.1638   -1.7041 H         1 <0>         0.4024
     51 H20         7.5207    2.3239    1.7804 H         1 <0>         0.3994
     52 H21         7.0118    1.0671    5.1813 H         1 <0>         0.0948
     53 H22         6.4971   -0.4593    6.1324 H         1 <0>         0.0963
     54 H23         4.6137   -1.8648    4.2928 H         1 <0>         0.0671
     55 H24         4.2162   -1.1938    5.8928 H         1 <0>         0.0619
     56 H25         3.2892   -0.6875    4.4601 H         1 <0>         0.0648
     57 H26         3.5883    4.0571    7.1086 H         1 <0>         0.0599
     58 H27         4.2242    5.4906    6.2667 H         1 <0>         0.0624
     59 H28         2.4683    5.2094    6.3432 H         1 <0>         0.0646
@<TRIPOS>BOND
     1    1    2 1
     2    1   34 1
     3    1   35 1
     4    1   36 1
     5    2    3 2
     6    2   33 1
     7    3    4 1
     8    3   37 1
     9    4    5 1
    10    4   38 1
    11    4   39 1
    12    5    6 1
    13    5    7 1
    14    5   30 1
    15    7    8 1
    16    7   40 1
    17    7   41 1
    18    8   13 ar
    19    8    9 ar
    20    9   10 ar
    21    9   29 1
    22   10   11 ar
    23   10   42 1
    24   11   12 ar
    25   11   28 1
    26   12   18 1
    27   12   13 ar
    28   13   14 1
    29   14   15 1
    30   15   16 1
    31   15   17 1
    32   15   20 1
    33   17   18 1
    34   17   43 1
    35   17   44 1
    36   18   19 2
    37   20   25 ar
    38   20   21 ar
    39   21   22 ar
    40   21   45 1
    41   22   23 ar
    42   22   46 1
    43   23   24 ar
    44   23   27 1
    45   24   25 ar
    46   24   47 1
    47   25   26 1
    48   26   48 1
    49   27   49 1
    50   28   50 1
    51   29   51 1
    52   30   31 2
    53   30   32 1
    54   31   52 1
    55   31   53 1
    56   32   54 1
    57   32   55 1
    58   32   56 1
    59   33   57 1
    60   33   58 1
    61   33   59 1
@<TRIPOS>MOLECULE
ZINC14711629
   62    64     0     0     0
SMALL
USER_CHARGES
(2S)-2-(2,4-dihydroxyphenyl)-7-hydroxy-8-[(2R)-2-isopropenyl-5-methyl-hex-4-enyl]-5-methoxy-chroman-4-one
@<TRIPOS>ATOM
      1 C1          6.6800    4.2333    3.4176 C.3       1 <0>        -0.1174
      2 C2          7.4033    3.5596    2.2801 C.2       1 <0>        -0.1366
      3 C3          7.2441    2.2762    2.0712 C.2       1 <0>        -0.1589
      4 C4          6.2523    1.4960    2.8952 C.3       1 <0>        -0.0856
      5 C5          5.2804    0.7654    1.9664 C.3       1 <0>        -0.0382
      6 H1          4.8150    1.4829    1.2905 H         1 <0>         0.0736
      7 C6          4.1994    0.0751    2.8005 C.3       1 <0>        -0.0520
      8 C7          3.1601   -0.5178    1.8843 C.ar      1 <0>        -0.1829
      9 C8          3.2453   -1.8540    1.5133 C.ar      1 <0>         0.2289
     10 C9          2.2962   -2.4174    0.6698 C.ar      1 <0>        -0.2820
     11 C10         1.2529   -1.6468    0.1876 C.ar      1 <0>         0.2319
     12 C11         1.1641   -0.2953    0.5555 C.ar      1 <0>        -0.2939
     13 C12         2.1246    0.2703    1.4149 C.ar      1 <0>         0.2346
     14 O1          2.0417    1.5693    1.7867 O.3       1 <0>        -0.2927
     15 C13         1.3021    2.4716    0.9643 C.3       1 <0>         0.1493
     16 H2          1.8153    2.5989    0.0111 H         1 <0>         0.0973
     17 C14        -0.1020    1.9002    0.7180 C.3       1 <0>        -0.1816
     18 C15         0.0746    0.5478    0.0512 C.2       1 <0>         0.4029
     19 O2         -0.6484    0.1829   -0.8530 O.2       1 <0>        -0.4277
     20 C16         1.1880    3.8051    1.6569 C.ar      1 <0>        -0.1268
     21 C17         1.2570    3.8753    3.0353 C.ar      1 <0>        -0.0581
     22 C18         1.1584    5.0970    3.6729 C.ar      1 <0>        -0.1536
     23 C19         0.9785    6.2559    2.9306 C.ar      1 <0>         0.1331
     24 C20         0.9034    6.1875    1.5482 C.ar      1 <0>        -0.1712
     25 C21         1.0083    4.9608    0.9104 C.ar      1 <0>         0.1415
     26 O3          0.9355    4.8906   -0.4448 O.3       1 <0>        -0.4929
     27 O4          0.8756    7.4567    3.5586 O.3       1 <0>        -0.4959
     28 O5          0.3230   -2.1936   -0.6342 O.3       1 <0>        -0.2858
     29 C22         0.4804   -3.5751   -0.9638 C.3       1 <0>         0.0209
     30 O6          4.2662   -2.6163    1.9794 O.3       1 <0>        -0.4813
     31 C23         6.0314   -0.2661    1.1645 C.2       1 <0>        -0.0949
     32 C24         5.9490   -0.2665   -0.1429 C.2       1 <0>        -0.2047
     33 C25         6.8771   -1.2970    1.8666 C.3       1 <0>        -0.1119
     34 C26         8.3098    4.3622    1.3829 C.3       1 <0>        -0.1170
     35 H3          7.0354    3.8281    4.3650 H         1 <0>         0.0645
     36 H4          6.8724    5.3057    3.3861 H         1 <0>         0.0576
     37 H5          5.6090    4.0535    3.3245 H         1 <0>         0.0664
     38 H6          7.8235    1.7772    1.3086 H         1 <0>         0.1067
     39 H7          5.6967    2.1791    3.5378 H         1 <0>         0.0730
     40 H8          6.7829    0.7692    3.5102 H         1 <0>         0.0715
     41 H9          3.7288    0.8039    3.4603 H         1 <0>         0.0770
     42 H10         4.6516   -0.7168    3.3976 H         1 <0>         0.0759
     43 H11         2.3724   -3.4578    0.3904 H         1 <0>         0.1429
     44 H12        -0.6166    2.5230    0.1286 H         1 <0>         0.0972
     45 H13        -0.6258    1.7810    1.6664 H         1 <0>         0.1139
     46 H14         1.3925    2.9741    3.6149 H         1 <0>         0.1406
     47 H15         1.2166    5.1498    4.7500 H         1 <0>         0.1361
     48 H16         0.7631    7.0881    0.9689 H         1 <0>         0.1402
     49 H17         0.0385    4.7678   -0.7847 H         1 <0>         0.3953
     50 H18        -0.0300    7.7016    3.7931 H         1 <0>         0.3957
     51 H19         0.4523   -4.1716   -0.0520 H         1 <0>         0.0598
     52 H20        -0.3282   -3.8851   -1.6258 H         1 <0>         0.1064
     53 H21         1.4370   -3.7223   -1.4650 H         1 <0>         0.0609
     54 H22         4.0738   -3.0630    2.8152 H         1 <0>         0.3966
     55 H23         6.4872   -1.0058   -0.7176 H         1 <0>         0.0918
     56 H24         5.3429    0.4723   -0.6461 H         1 <0>         0.0881
     57 H25         6.7517   -1.1968    2.9447 H         1 <0>         0.0577
     58 H26         6.5665   -2.2946    1.5558 H         1 <0>         0.0720
     59 H27         7.9249   -1.1454    1.6070 H         1 <0>         0.0565
     60 H28         8.7410    3.7092    0.6241 H         1 <0>         0.0588
     61 H29         7.7354    5.1519    0.8987 H         1 <0>         0.0645
     62 H30         9.1088    4.8060    1.9768 H         1 <0>         0.0624
@<TRIPOS>BOND
     1    1    2 1
     2    1   35 1
     3    1   36 1
     4    1   37 1
     5    2    3 2
     6    2   34 1
     7    3    4 1
     8    3   38 1
     9    4    5 1
    10    4   39 1
    11    4   40 1
    12    5    6 1
    13    5    7 1
    14    5   31 1
    15    7    8 1
    16    7   41 1
    17    7   42 1
    18    8   13 ar
    19    8    9 ar
    20    9   10 ar
    21    9   30 1
    22   10   11 ar
    23   10   43 1
    24   11   12 ar
    25   11   28 1
    26   12   18 1
    27   12   13 ar
    28   13   14 1
    29   14   15 1
    30   15   16 1
    31   15   17 1
    32   15   20 1
    33   17   18 1
    34   17   44 1
    35   17   45 1
    36   18   19 2
    37   20   25 ar
    38   20   21 ar
    39   21   22 ar
    40   21   46 1
    41   22   23 ar
    42   22   47 1
    43   23   24 ar
    44   23   27 1
    45   24   25 ar
    46   24   48 1
    47   25   26 1
    48   26   49 1
    49   27   50 1
    50   28   29 1
    51   29   51 1
    52   29   52 1
    53   29   53 1
    54   30   54 1
    55   31   32 2
    56   31   33 1
    57   32   55 1
    58   32   56 1
    59   33   57 1
    60   33   58 1
    61   33   59 1
    62   34   60 1
    63   34   61 1
    64   34   62 1
@<TRIPOS>MOLECULE
ZINC14711632
   62    64     0     0     0
SMALL
USER_CHARGES
(2S)-2-(2,4-dihydroxyphenyl)-7-hydroxy-8-[(2S)-2-isopropenyl-5-methyl-hex-4-enyl]-5-methoxy-chroman-4-one
@<TRIPOS>ATOM
      1 C1          9.9905    1.1899    2.6220 C.3       1 <0>        -0.1193
      2 C2          9.5228    1.9402    1.4016 C.2       1 <0>        -0.1380
      3 C3          8.2449    2.0013    1.1201 C.2       1 <0>        -0.1580
      4 C4          7.2510    1.2423    1.9610 C.3       1 <0>        -0.0858
      5 C5          6.3843    0.3632    1.0571 C.3       1 <0>        -0.0379
      6 H1          7.0248   -0.2805    0.4541 H         1 <0>         0.0775
      7 C6          5.4604   -0.4996    1.9189 C.3       1 <0>        -0.0519
      8 C7          4.7037   -1.4601    1.0379 C.ar      1 <0>        -0.1812
      9 C8          5.2672   -2.6857    0.7056 C.ar      1 <0>         0.2193
     10 C9          4.5844   -3.5834   -0.1054 C.ar      1 <0>        -0.2857
     11 C10         3.3304   -3.2610   -0.5935 C.ar      1 <0>         0.2320
     12 C11         2.7578   -2.0225   -0.2646 C.ar      1 <0>        -0.2934
     13 C12         3.4505   -1.1183    0.5623 C.ar      1 <0>         0.2442
     14 O1          2.9014    0.0726    0.8985 O.3       1 <0>        -0.2863
     15 C13         1.8808    0.6170    0.0622 C.3       1 <0>         0.1497
     16 H2          2.3086    0.8916   -0.9019 H         1 <0>         0.0974
     17 C14         0.7802   -0.4336   -0.1460 C.3       1 <0>        -0.1827
     18 C15         1.4343   -1.6501   -0.7762 C.2       1 <0>         0.4035
     19 O2          0.8904   -2.2819   -1.6584 O.2       1 <0>        -0.4282
     20 C16         1.2917    1.8391    0.7183 C.ar      1 <0>        -0.1243
     21 C17         1.3483    1.9804    2.0918 C.ar      1 <0>        -0.0582
     22 C18         0.8142    3.1024    2.6957 C.ar      1 <0>        -0.1532
     23 C19         0.2093    4.0853    1.9248 C.ar      1 <0>         0.1327
     24 C20         0.1463    3.9432    0.5474 C.ar      1 <0>        -0.1711
     25 C21         0.6881    2.8190   -0.0568 C.ar      1 <0>         0.1405
     26 O3          0.6283    2.6771   -1.4070 O.3       1 <0>        -0.4929
     27 O4         -0.3212    5.1859    2.5199 O.3       1 <0>        -0.4961
     28 O5          2.6593   -4.1355   -1.3835 O.3       1 <0>        -0.2857
     29 C22         3.3069   -5.3757   -1.6744 C.3       1 <0>         0.0208
     30 O6          6.4974   -3.0092    1.1777 O.3       1 <0>        -0.4869
     31 C23         5.5553    1.2372    0.1515 C.2       1 <0>        -0.0964
     32 C24         5.5644    1.0343   -1.1426 C.2       1 <0>        -0.2078
     33 C25         4.7159    2.3446    0.7348 C.3       1 <0>        -0.1112
     34 C26        10.5252    2.6203    0.5051 C.3       1 <0>        -0.1174
     35 H3         10.0902    0.1314    2.3816 H         1 <0>         0.0655
     36 H4         10.9558    1.5823    2.9420 H         1 <0>         0.0594
     37 H5          9.2639    1.3133    3.4250 H         1 <0>         0.0651
     38 H6          7.9036    2.5956    0.2854 H         1 <0>         0.1068
     39 H7          6.6167    1.9472    2.4986 H         1 <0>         0.0710
     40 H8          7.7837    0.6149    2.6755 H         1 <0>         0.0734
     41 H9          4.7548    0.1405    2.4485 H         1 <0>         0.0794
     42 H10         6.0550   -1.0599    2.6405 H         1 <0>         0.0741
     43 H11         5.0324   -4.5339   -0.3547 H         1 <0>         0.1429
     44 H12         0.0720   -0.0602   -0.7451 H         1 <0>         0.0965
     45 H13         0.3392   -0.7044    0.8133 H         1 <0>         0.1135
     46 H14         1.8146    1.2145    2.6938 H         1 <0>         0.1405
     47 H15         0.8632    3.2124    3.7690 H         1 <0>         0.1356
     48 H16        -0.3243    4.7068   -0.0541 H         1 <0>         0.1396
     49 H17        -0.1645    2.2201   -1.7197 H         1 <0>         0.3950
     50 H18        -1.2500    5.0883    2.7705 H         1 <0>         0.3955
     51 H19         3.5017   -5.9106   -0.7449 H         1 <0>         0.0597
     52 H20         2.6635   -5.9803   -2.3136 H         1 <0>         0.1065
     53 H21         4.2494   -5.1821   -2.1866 H         1 <0>         0.0608
     54 H22         6.4815   -3.5336    1.9900 H         1 <0>         0.3994
     55 H23         6.1660    0.2407   -1.5606 H         1 <0>         0.0909
     56 H24         4.9703    1.6606   -1.7916 H         1 <0>         0.0917
     57 H25         5.2757    3.2793    0.7045 H         1 <0>         0.0593
     58 H26         3.7999    2.4507    0.1537 H         1 <0>         0.0600
     59 H27         4.4651    2.1046    1.7680 H         1 <0>         0.0638
     60 H28        10.6848    3.6425    0.8481 H         1 <0>         0.0639
     61 H29        11.4687    2.0753    0.5359 H         1 <0>         0.0616
     62 H30        10.1473    2.6349   -0.5172 H         1 <0>         0.0605
@<TRIPOS>BOND
     1    1    2 1
     2    1   35 1
     3    1   36 1
     4    1   37 1
     5    2    3 2
     6    2   34 1
     7    3    4 1
     8    3   38 1
     9    4    5 1
    10    4   39 1
    11    4   40 1
    12    5    6 1
    13    5    7 1
    14    5   31 1
    15    7    8 1
    16    7   41 1
    17    7   42 1
    18    8   13 ar
    19    8    9 ar
    20    9   10 ar
    21    9   30 1
    22   10   11 ar
    23   10   43 1
    24   11   12 ar
    25   11   28 1
    26   12   18 1
    27   12   13 ar
    28   13   14 1
    29   14   15 1
    30   15   16 1
    31   15   17 1
    32   15   20 1
    33   17   18 1
    34   17   44 1
    35   17   45 1
    36   18   19 2
    37   20   25 ar
    38   20   21 ar
    39   21   22 ar
    40   21   46 1
    41   22   23 ar
    42   22   47 1
    43   23   24 ar
    44   23   27 1
    45   24   25 ar
    46   24   48 1
    47   25   26 1
    48   26   49 1
    49   27   50 1
    50   28   29 1
    51   29   51 1
    52   29   52 1
    53   29   53 1
    54   30   54 1
    55   31   32 2
    56   31   33 1
    57   32   55 1
    58   32   56 1
    59   33   57 1
    60   33   58 1
    61   33   59 1
    62   34   60 1
    63   34   61 1
    64   34   62 1
@<TRIPOS>MOLECULE
ZINC03875408
   55    57     0     0     0
SMALL
USER_CHARGES

@<TRIPOS>ATOM
      1 C1         -0.0167    1.3784    0.0096 C.ar      1 <0>        -0.0985
      2 C2          1.1695    2.0865    0.0021 C.ar      1 <0>        -0.1418
      3 C3          2.3802    1.4093   -0.0131 C.ar      1 <0>         0.0997
      4 C4          2.3963    0.0221   -0.0206 C.ar      1 <0>        -0.1429
      5 C5          1.2074   -0.6814   -0.0130 C.ar      1 <0>        -0.1009
      6 C6          0.0021   -0.0041    0.0020 C.ar      1 <0>        -0.0890
      7 C7         -1.2934   -0.7740    0.0107 C.3       1 <0>        -0.0740
      8 C8         -1.7461   -1.0268   -1.4288 C.3       1 <0>        -0.1470
      9 C9         -3.0415   -1.7967   -1.4201 C.2       1 <0>         0.4003
     10 O1         -3.5528   -2.1124   -0.3655 O.2       1 <0>        -0.4431
     11 C10        -3.6821   -2.1633   -2.6814 C.ar      1 <0>        -0.2419
     12 C11        -3.0901   -1.8044   -3.9072 C.ar      1 <0>         0.2081
     13 C12        -3.7036   -2.1555   -5.0944 C.ar      1 <0>        -0.2186
     14 C13        -4.9010   -2.8605   -5.0811 C.ar      1 <0>         0.2000
     15 C14        -5.4934   -3.2188   -3.8767 C.ar      1 <0>        -0.2385
     16 C15        -4.8920   -2.8823   -2.6785 C.ar      1 <0>         0.2154
     17 O2         -5.4688   -3.2388   -1.5041 O.3       1 <0>        -0.2615
     18 C16        -6.6959   -3.9672   -1.5787 C.3       1 <0>         0.2189
     19 H1         -6.5547   -4.8552   -2.1948 H         1 <0>         0.0786
     20 C17        -7.1276   -4.3858   -0.1708 C.3       1 <0>         0.0637
     21 H2         -7.2296   -3.5008    0.4572 H         1 <0>         0.0891
     22 C18        -8.4731   -5.1132   -0.2529 C.3       1 <0>         0.0865
     23 H3         -8.3597   -6.0246   -0.8399 H         1 <0>         0.0785
     24 C19        -9.4975   -4.1944   -0.9258 C.3       1 <0>         0.0894
     25 H4         -9.6474   -3.3055   -0.3131 H         1 <0>         0.0819
     26 C20        -8.9743   -3.7831   -2.3046 C.3       1 <0>         0.1090
     27 H5         -8.8631   -4.6688   -2.9302 H         1 <0>         0.0835
     28 O3         -7.7064   -3.1402   -2.1593 O.3       1 <0>        -0.3707
     29 C21        -9.9645   -2.8174   -2.9587 C.3       1 <0>         0.0899
     30 O4         -9.5355   -2.5248   -4.2900 O.3       1 <0>        -0.5644
     31 O5        -10.7381   -4.8885   -1.0720 O.3       1 <0>        -0.5491
     32 O6         -8.9183   -5.4449    1.0639 O.3       1 <0>        -0.5531
     33 O7         -6.1450   -5.2587    0.3901 O.3       1 <0>        -0.5542
     34 O8         -5.4958   -3.2007   -6.2521 O.3       1 <0>        -0.4888
     35 O9         -1.9217   -1.1160   -3.9227 O.3       1 <0>        -0.4825
     36 O10         3.5484    2.1036   -0.0209 O.3       1 <0>        -0.5007
     37 H6         -0.9594    1.9052    0.0259 H         1 <0>         0.1267
     38 H7          1.1543    3.1664    0.0076 H         1 <0>         0.1284
     39 H8          3.3375   -0.5074   -0.0328 H         1 <0>         0.1280
     40 H9          1.2194   -1.7613   -0.0189 H         1 <0>         0.1261
     41 H10        -1.1460   -1.7274    0.5180 H         1 <0>         0.0778
     42 H11        -2.0553   -0.1973    0.5352 H         1 <0>         0.0786
     43 H12        -1.8934   -0.0734   -1.9361 H         1 <0>         0.1101
     44 H13        -0.9842   -1.6035   -1.9533 H         1 <0>         0.0946
     45 H14        -3.2512   -1.8809   -6.0358 H         1 <0>         0.1457
     46 H15        -6.4243   -3.7663   -3.8766 H         1 <0>         0.1474
     47 H16       -10.9532   -3.2753   -2.9880 H         1 <0>         0.0792
     48 H17       -10.0084   -1.8948   -2.3801 H         1 <0>         0.0575
     49 H18       -10.1175   -1.9168   -4.7661 H         1 <0>         0.3856
     50 H19       -11.1251   -5.1826   -0.2361 H         1 <0>         0.3959
     51 H20        -8.3127   -6.0207    1.5504 H         1 <0>         0.3964
     52 H21        -5.2659   -4.8633    0.4675 H         1 <0>         0.3987
     53 H22        -5.2201   -4.0606   -6.5980 H         1 <0>         0.4002
     54 H23        -1.1345   -1.6775   -3.9334 H         1 <0>         0.4007
     55 H24         3.8951    2.3001    0.8601 H         1 <0>         0.3908
@<TRIPOS>BOND
     1    1    6 ar
     2    1    2 ar
     3    1   37 1
     4    2    3 ar
     5    2   38 1
     6    3    4 ar
     7    3   36 1
     8    4    5 ar
     9    4   39 1
    10    5    6 ar
    11    5   40 1
    12    6    7 1
    13    7    8 1
    14    7   41 1
    15    7   42 1
    16    8    9 1
    17    8   43 1
    18    8   44 1
    19    9   10 2
    20    9   11 1
    21   11   16 ar
    22   11   12 ar
    23   12   13 ar
    24   12   35 1
    25   13   14 ar
    26   13   45 1
    27   14   15 ar
    28   14   34 1
    29   15   16 ar
    30   15   46 1
    31   16   17 1
    32   17   18 1
    33   18   19 1
    34   18   28 1
    35   18   20 1
    36   20   21 1
    37   20   22 1
    38   20   33 1
    39   22   23 1
    40   22   24 1
    41   22   32 1
    42   24   25 1
    43   24   26 1
    44   24   31 1
    45   26   27 1
    46   26   28 1
    47   26   29 1
    48   29   30 1
    49   29   47 1
    50   29   48 1
    51   30   49 1
    52   31   50 1
    53   32   51 1
    54   33   52 1
    55   34   53 1
    56   35   54 1
    57   36   55 1
@<TRIPOS>MOLECULE
ZINC03819138
   53    55     0     0     0
SMALL
USER_CHARGES
2-[4-chloro-3-[(4-ethoxyphenyl)methyl]phenyl]-6-(hydroxymethyl)tetrahydropyran-3,4,5-triol
@<TRIPOS>ATOM
      1 C1         -0.0187    1.5258    0.0104 C.3       1 <0>        -0.1531
      2 C2          0.0021   -0.0041    0.0020 C.3       1 <0>         0.0543
      3 O1          0.6709   -0.4649   -1.1737 O.3       1 <0>        -0.3170
      4 C3          0.7768   -1.8100   -1.3361 C.ar      1 <0>         0.1297
      5 C4          0.2527   -2.6686   -0.3807 C.ar      1 <0>        -0.2083
      6 C5          0.3569   -4.0356   -0.5508 C.ar      1 <0>        -0.0705
      7 C6          0.9921   -4.5482   -1.6669 C.ar      1 <0>        -0.1179
      8 C7          1.5202   -3.6945   -2.6177 C.ar      1 <0>        -0.0727
      9 C8          1.4140   -2.3268   -2.4548 C.ar      1 <0>        -0.1515
     10 C9          1.1094   -6.0397   -1.8470 C.3       1 <0>        -0.0392
     11 C10         2.3855   -6.5241   -1.2084 C.ar      1 <0>        -0.0671
     12 C11         2.3541   -7.1035    0.0463 C.ar      1 <0>        -0.0744
     13 C12         3.5239   -7.5521    0.6302 C.ar      1 <0>        -0.0675
     14 C13         4.7274   -7.4120   -0.0357 C.ar      1 <0>        -0.0847
     15 C14         4.7608   -6.8282   -1.2878 C.ar      1 <0>        -0.1101
     16 C15         3.5894   -6.3837   -1.8751 C.ar      1 <0>        -0.0231
     17 Cl1         3.6305   -5.6507   -3.4482 Cl        1 <0>        -0.0639
     18 C16         3.4882   -8.1884    1.9958 C.3       1 <0>         0.1396
     19 H1          2.5674   -7.9044    2.5052 H         1 <0>         0.0821
     20 C17         3.5429   -9.7114    1.8509 C.3       1 <0>         0.0969
     21 H2          4.4437   -9.9934    1.3058 H         1 <0>         0.0749
     22 C18         3.5670  -10.3485    3.2438 C.3       1 <0>         0.0383
     23 H3          2.6439  -10.1076    3.7709 H         1 <0>         0.0787
     24 C19         4.7627   -9.7955    4.0254 C.3       1 <0>         0.0486
     25 H4          5.6882  -10.0792    3.5242 H         1 <0>         0.0797
     26 C20         4.6609   -8.2692    4.0862 C.3       1 <0>         0.0987
     27 H5          3.7554   -7.9864    4.6231 H         1 <0>         0.0804
     28 O2          4.6116   -7.7431    2.7585 O.3       1 <0>        -0.3417
     29 C21         5.8828   -7.7047    4.8138 C.3       1 <0>         0.0898
     30 O3          5.7325   -6.2925    4.9722 O.3       1 <0>        -0.5653
     31 O4          4.7539  -10.3280    5.3514 O.3       1 <0>        -0.5522
     32 O5          3.6910  -11.7667    3.1206 O.3       1 <0>        -0.5572
     33 O6          2.3903  -10.1651    1.1383 O.3       1 <0>        -0.5476
     34 H6          1.0039    1.9031    0.0027 H         1 <0>         0.0666
     35 H7         -0.5459    1.8868   -0.8726 H         1 <0>         0.0665
     36 H8         -0.5289    1.8773    0.9072 H         1 <0>         0.0788
     37 H9          0.5293   -0.3651    0.8851 H         1 <0>         0.0617
     38 H10        -1.0205   -0.3814    0.0098 H         1 <0>         0.0617
     39 H11        -0.2399   -2.2687    0.4932 H         1 <0>         0.1267
     40 H12        -0.0548   -4.7045    0.1905 H         1 <0>         0.1233
     41 H13         2.0159   -4.0973   -3.4886 H         1 <0>         0.1332
     42 H14         1.8270   -1.6604   -3.1976 H         1 <0>         0.1294
     43 H15         0.2580   -6.5307   -1.3756 H         1 <0>         0.0862
     44 H16         1.1225   -6.2773   -2.9108 H         1 <0>         0.0883
     45 H17         1.4148   -7.2091    0.5688 H         1 <0>         0.1324
     46 H18         5.6416   -7.7593    0.4226 H         1 <0>         0.1338
     47 H19         5.7011   -6.7186   -1.8077 H         1 <0>         0.1353
     48 H20         5.9704   -8.1730    5.7941 H         1 <0>         0.0737
     49 H21         6.7803   -7.9115    4.2308 H         1 <0>         0.0550
     50 H22         6.4722   -5.8668    5.4267 H         1 <0>         0.3840
     51 H23         4.8157  -11.2923    5.3885 H         1 <0>         0.3831
     52 H24         3.7187  -12.2341    3.9667 H         1 <0>         0.3833
     53 H25         2.3592  -11.1230    1.0096 H         1 <0>         0.3906
@<TRIPOS>BOND
     1    1    2 1
     2    1   34 1
     3    1   35 1
     4    1   36 1
     5    2    3 1
     6    2   37 1
     7    2   38 1
     8    3    4 1
     9    4    9 ar
    10    4    5 ar
    11    5    6 ar
    12    5   39 1
    13    6    7 ar
    14    6   40 1
    15    7    8 ar
    16    7   10 1
    17    8    9 ar
    18    8   41 1
    19    9   42 1
    20   10   11 1
    21   10   43 1
    22   10   44 1
    23   11   16 ar
    24   11   12 ar
    25   12   13 ar
    26   12   45 1
    27   13   14 ar
    28   13   18 1
    29   14   15 ar
    30   14   46 1
    31   15   16 ar
    32   15   47 1
    33   16   17 1
    34   18   19 1
    35   18   28 1
    36   18   20 1
    37   20   21 1
    38   20   22 1
    39   20   33 1
    40   22   23 1
    41   22   24 1
    42   22   32 1
    43   24   25 1
    44   24   26 1
    45   24   31 1
    46   26   27 1
    47   26   28 1
    48   26   29 1
    49   29   30 1
    50   29   48 1
    51   29   49 1
    52   30   50 1
    53   31   51 1
    54   32   52 1
    55   33   53 1
