@<TRIPOS>MOLECULE
ZINC02022527
   54    55     0     0     0
SMALL
USER_CHARGES

@<TRIPOS>ATOM
      1 C1         -3.0730    2.2881   -4.2693 C.3       1 <0>        -0.1569
      2 C2         -2.3049    1.5870   -3.1471 C.3       1 <0>        -0.1270
      3 C3         -2.8110    2.0874   -1.7927 C.3       1 <0>        -0.1231
      4 C4         -2.0429    1.3862   -0.6705 C.3       1 <0>        -0.1174
      5 C5         -2.5490    1.8867    0.6839 C.3       1 <0>        -0.1006
      6 C6         -2.2117    3.3722    0.8391 C.3       1 <0>        -0.1451
      7 C7         -2.6658    3.8518    2.2196 C.3       1 <0>        -0.0114
      8 C8         -2.3347    1.6429    3.1595 C.3       1 <0>        -0.0001
      9 C9         -1.8707    1.0973    1.8070 C.3       1 <0>        -0.1442
     10 C10        -2.2939    3.5901    4.5974 C.3       1 <0>        -0.0052
     11 C11        -2.1583    5.1140    4.5919 C.3       1 <0>        -0.1459
     12 C12        -2.4764    5.6593    5.9856 C.3       1 <0>        -0.1543
     13 C13        -2.3428    7.1604    5.9803 C.2       1 <0>         0.3987
     14 O1         -2.0245    7.7371    4.9623 O.2       1 <0>        -0.4456
     15 C14        -2.5986    7.9263    7.2106 C.ar      1 <0>        -0.1885
     16 C15        -3.0878    7.2813    8.3513 C.ar      1 <0>        -0.0705
     17 C16        -3.3195    8.0047    9.5018 C.ar      1 <0>        -0.1389
     18 C17        -3.0801    9.3679    9.5265 C.ar      1 <0>        -0.0729
     19 C18        -2.6016   10.0143    8.4004 C.ar      1 <0>        -0.1345
     20 C19        -2.3594    9.3036    7.2436 C.ar      1 <0>        -0.0178
     21 C20        -1.8387   10.0095    6.0182 C.3       1 <0>        -0.1264
     22 H1         -4.1363    2.0676   -4.1746 H         1 <0>         0.0549
     23 H2         -2.9175    3.3647   -4.1985 H         1 <0>         0.0540
     24 H3         -2.7125    1.9316   -5.2342 H         1 <0>         0.0581
     25 H4         -1.2417    1.8075   -3.2417 H         1 <0>         0.0621
     26 H5         -2.4605    0.5104   -3.2179 H         1 <0>         0.0631
     27 H6         -3.8743    1.8669   -1.6981 H         1 <0>         0.0644
     28 H7         -2.6555    3.1639   -1.7219 H         1 <0>         0.0632
     29 H8         -2.1984    0.3097   -0.7413 H         1 <0>         0.0733
     30 H9         -0.9796    1.6067   -0.7651 H         1 <0>         0.0688
     31 H10        -3.6287    1.7492    0.7427 H         1 <0>         0.0884
     32 H11        -1.1354    3.5132    0.7407 H         1 <0>         0.0881
     33 H12        -2.7264    3.9447    0.0675 H         1 <0>         0.1133
     34 H13        -3.7442    3.7233    2.3122 H         1 <0>         0.1295
     35 H14        -2.4142    4.9057    2.3388 H         1 <0>         0.1342
     36 H15        -3.4146    1.5248    3.2476 H         1 <0>         0.1293
     37 H16        -1.8426    1.0924    3.9613 H         1 <0>         0.1282
     38 H17        -2.1418    0.0446    1.7270 H         1 <0>         0.1118
     39 H18        -0.7890    1.2025    1.7239 H         1 <0>         0.0880
     40 H19        -3.3133    3.3170    4.8704 H         1 <0>         0.1315
     41 H20        -1.5979    3.1659    5.3211 H         1 <0>         0.1302
     42 H21        -1.1389    5.3871    4.3190 H         1 <0>         0.0944
     43 H22        -2.8542    5.5382    3.8682 H         1 <0>         0.0968
     44 H23        -3.4115    5.4088    6.2361 H         1 <0>         0.0981
     45 H24        -1.7805    5.2352    6.7093 H         1 <0>         0.1100
     46 H25        -3.2793    6.2186    8.3321 H         1 <0>         0.1290
     47 H26        -3.6933    7.5074   10.3846 H         1 <0>         0.1322
     48 H27        -3.2682    9.9300   10.4293 H         1 <0>         0.1326
     49 H28        -2.4176   11.0782    8.4274 H         1 <0>         0.1332
     50 H29        -2.6709   10.2515    5.3572 H         1 <0>         0.0784
     51 H30        -1.3321   10.9277    6.3156 H         1 <0>         0.0652
     52 H31        -1.1365    9.3600    5.4956 H         1 <0>         0.0893
     53 N1         -1.9588    3.0696    3.2558 N.4       1 <0>        -0.3931
     54 H32        -0.9467    3.1581    3.1071 H         1 <0>         0.4272
@<TRIPOS>BOND
     1    1    2 1
     2    1   22 1
     3    1   23 1
     4    1   24 1
     5    2    3 1
     6    2   25 1
     7    2   26 1
     8    3    4 1
     9    3   27 1
    10    3   28 1
    11    4    5 1
    12    4   29 1
    13    4   30 1
    14    5    9 1
    15    5    6 1
    16    5   31 1
    17    6    7 1
    18    6   32 1
    19    6   33 1
    20    7   34 1
    21    7   35 1
    22    7   53 1
    23    8    9 1
    24    8   36 1
    25    8   37 1
    26    8   53 1
    27    9   38 1
    28    9   39 1
    29   10   11 1
    30   10   40 1
    31   10   41 1
    32   10   53 1
    33   11   12 1
    34   11   42 1
    35   11   43 1
    36   12   13 1
    37   12   44 1
    38   12   45 1
    39   13   14 2
    40   13   15 1
    41   15   20 ar
    42   15   16 ar
    43   16   17 ar
    44   16   46 1
    45   17   18 ar
    46   17   47 1
    47   18   19 ar
    48   18   48 1
    49   19   20 ar
    50   19   49 1
    51   20   21 1
    52   21   50 1
    53   21   51 1
    54   21   52 1
    55   53   54 1
