@<TRIPOS>MOLECULE
ZINC05328341
   40    41     0     0     0
SMALL
USER_CHARGES
2-[2-(dimethylaminomethyl)phenyl]sulfanyl-5-(trifluoromethyl)aniline
@<TRIPOS>ATOM
      1 C1          6.2989    5.3211    0.9501 C.3       1 <0>        -0.0456
      2 C2          5.0266    7.1147    1.9637 C.3       1 <0>        -0.0455
      3 C3          4.5627    6.4387   -0.3146 C.3       1 <0>         0.0437
      4 C4          3.0903    6.7580   -0.2851 C.ar      1 <0>        -0.1405
      5 C5          2.6677    8.0728   -0.2894 C.ar      1 <0>        -0.0726
      6 C6          1.3167    8.3667   -0.2619 C.ar      1 <0>        -0.1117
      7 C7          0.3838    7.3458   -0.2300 C.ar      1 <0>        -0.0689
      8 C8          0.7987    6.0290   -0.2308 C.ar      1 <0>        -0.1111
      9 C9          2.1560    5.7298   -0.2531 C.ar      1 <0>        -0.0986
     10 S1          2.6904    4.0508   -0.2481 S.3       1 <0>        -0.0166
     11 C10         1.1925    3.1265   -0.3287 C.ar      1 <0>        -0.2017
     12 C11         0.7991    2.5417   -1.5237 C.ar      1 <0>        -0.0098
     13 C12        -0.3767    1.8174   -1.5845 C.ar      1 <0>        -0.1339
     14 C13        -1.1610    1.6683   -0.4554 C.ar      1 <0>        -0.0896
     15 C14        -0.7797    2.2524    0.7386 C.ar      1 <0>        -0.1530
     16 C15         0.3981    2.9808    0.8091 C.ar      1 <0>         0.2662
     17 N1          0.7887    3.5684    2.0178 N.pl3     1 <0>        -0.8605
     18 C16        -2.4384    0.8720   -0.5278 C.3       1 <0>         0.5044
     19 F1         -3.4969    1.7190   -0.8733 F         1 <0>        -0.1699
     20 F2         -2.3087   -0.1306   -1.4948 F         1 <0>        -0.1690
     21 F3         -2.6954    0.2885    0.7174 F         1 <0>        -0.1717
     22 H1          7.0432    6.0129    0.5556 H         1 <0>         0.1266
     23 H2          6.5941    5.0006    1.9492 H         1 <0>         0.1246
     24 H3          6.2277    4.4522    0.2960 H         1 <0>         0.1232
     25 H4          4.0153    7.4920    2.1152 H         1 <0>         0.1189
     26 H5          5.4342    6.7751    2.9159 H         1 <0>         0.1237
     27 H6          5.6549    7.9100    1.5625 H         1 <0>         0.1259
     28 H7          4.7485    5.6476   -1.0410 H         1 <0>         0.1390
     29 H8          5.1223    7.3304   -0.5974 H         1 <0>         0.1436
     30 H9          3.3932    8.8724   -0.3146 H         1 <0>         0.1390
     31 H10         0.9891    9.3958   -0.2656 H         1 <0>         0.1400
     32 H11        -0.6705    7.5790   -0.2085 H         1 <0>         0.1383
     33 H12         0.0698    5.2324   -0.2101 H         1 <0>         0.1336
     34 H13         1.4117    2.6521   -2.4063 H         1 <0>         0.1484
     35 H14        -0.6813    1.3625   -2.5154 H         1 <0>         0.1479
     36 H15        -1.3970    2.1376    1.6173 H         1 <0>         0.1475
     37 H16         0.2352    3.4665    2.8079 H         1 <0>         0.4105
     38 H17         1.6129    4.0776    2.0656 H         1 <0>         0.3994
     39 N2          4.9745    5.9730    1.0264 N.4       1 <0>        -0.3991
     40 H18         4.2867    5.2917    1.3685 H         1 <0>         0.4251
@<TRIPOS>BOND
     1    1   22 1
     2    1   23 1
     3    1   24 1
     4    1   39 1
     5    2   25 1
     6    2   26 1
     7    2   27 1
     8    2   39 1
     9    3    4 1
    10    3   28 1
    11    3   29 1
    12    3   39 1
    13    4    9 ar
    14    4    5 ar
    15    5    6 ar
    16    5   30 1
    17    6    7 ar
    18    6   31 1
    19    7    8 ar
    20    7   32 1
    21    8    9 ar
    22    8   33 1
    23    9   10 1
    24   10   11 1
    25   11   16 ar
    26   11   12 ar
    27   12   13 ar
    28   12   34 1
    29   13   14 ar
    30   13   35 1
    31   14   15 ar
    32   14   18 1
    33   15   16 ar
    34   15   36 1
    35   16   17 1
    36   17   37 1
    37   17   38 1
    38   18   19 1
    39   18   20 1
    40   18   21 1
    41   39   40 1
@<TRIPOS>MOLECULE
ZINC49013636
   35    36     0     0     0
SMALL
USER_CHARGES

@<TRIPOS>ATOM
      1 C1          0.9035   -1.5323   -0.7120 C.3       1 <0>        -0.1768
      2 C2         -0.0713   -2.0010    0.3701 C.3       1 <0>         0.0724
      3 N1         -1.3678   -1.3472    0.1759 N.am      1 <0>        -0.5992
      4 C3         -2.0958   -1.5235   -1.0831 C.3       1 <0>         0.1303
      5 H1         -1.4812   -2.0651   -1.8022 H         1 <0>         0.1362
      6 C4         -3.4220   -2.2782   -0.8349 C.3       1 <0>        -0.1565
      7 C5         -4.4595   -1.1318   -0.7351 C.3       1 <0>        -0.0192
      8 N2         -3.9882   -0.1574   -1.7522 N.4       1 <0>        -0.5067
      9 C6         -2.5100   -0.1559   -1.6571 C.3       1 <0>        -0.0124
     10 C7         -1.8908   -0.5834    1.1555 C.2       1 <0>         0.5795
     11 O1         -2.9802   -0.0651    1.0060 O.2       1 <0>        -0.5302
     12 C8         -1.1399   -0.3760    2.4112 C.ar      1 <0>        -0.1321
     13 C9          0.2403   -0.1673    2.3768 C.ar      1 <0>        -0.0818
     14 C10         0.9357    0.0257    3.5518 C.ar      1 <0>        -0.1043
     15 C11         0.2696    0.0130    4.7650 C.ar      1 <0>        -0.0640
     16 C12        -1.0979   -0.1935    4.8086 C.ar      1 <0>        -0.0392
     17 C13        -1.8085   -0.3821    3.6375 C.ar      1 <0>         0.0159
     18 Cl1        -3.5254   -0.6335    3.6918 Cl        1 <0>        -0.0196
     19 Cl2        -1.9239   -0.2087    6.3355 Cl        1 <0>        -0.0246
     20 H2          1.8682   -2.0188   -0.5675 H         1 <0>         0.0845
     21 H3          0.5088   -1.7926   -1.6941 H         1 <0>         0.0633
     22 H4          1.0281   -0.4515   -0.6453 H         1 <0>         0.0639
     23 H5         -0.1958   -3.0818    0.3035 H         1 <0>         0.0851
     24 H6          0.3235   -1.7407    1.3522 H         1 <0>         0.1125
     25 H7         -3.6538   -2.9364   -1.6722 H         1 <0>         0.1074
     26 H8         -3.3772   -2.8402    0.0980 H         1 <0>         0.1168
     27 H9         -5.4575   -1.4936   -0.9825 H         1 <0>         0.1295
     28 H10        -4.4462   -0.6864    0.2596 H         1 <0>         0.1716
     29 H11        -4.2764   -0.4496   -2.6739 H         1 <0>         0.4268
     30 H12        -2.1811    0.6415   -0.9907 H         1 <0>         0.1365
     31 H13        -2.0730   -0.0206   -2.6464 H         1 <0>         0.1398
     32 H14         0.7624   -0.1573    1.4314 H         1 <0>         0.1510
     33 H15         2.0033    0.1867    3.5254 H         1 <0>         0.1529
     34 H16         0.8198    0.1647    5.6819 H         1 <0>         0.1550
     35 H17        -4.3510    0.7617   -1.5479 H         1 <0>         0.4356
@<TRIPOS>BOND
     1    1    2 1
     2    1   20 1
     3    1   21 1
     4    1   22 1
     5    2    3 1
     6    2   23 1
     7    2   24 1
     8    3    4 1
     9    3   10 am
    10    4    5 1
    11    4    9 1
    12    4    6 1
    13    6    7 1
    14    6   25 1
    15    6   26 1
    16    7    8 1
    17    7   27 1
    18    7   28 1
    19    8    9 1
    20    8   29 1
    21    8   35 1
    22    9   30 1
    23    9   31 1
    24   10   11 2
    25   10   12 1
    26   12   17 ar
    27   12   13 ar
    28   13   14 ar
    29   13   32 1
    30   14   15 ar
    31   14   33 1
    32   15   16 ar
    33   15   34 1
    34   16   17 ar
    35   16   19 1
    36   17   18 1
@<TRIPOS>MOLECULE
ZINC49033518
   38    39     0     0     0
SMALL
USER_CHARGES

@<TRIPOS>ATOM
      1 C1          1.6735    0.8834   -3.9630 C.3       1 <0>        -0.1574
      2 C2          0.9633   -0.1794   -3.1222 C.3       1 <0>        -0.1415
      3 C3          1.9737   -1.2408   -2.6824 C.3       1 <0>         0.0749
      4 N1          1.2937   -2.2585   -1.8773 N.am      1 <0>        -0.5988
      5 C4          0.1864   -3.0270   -2.4512 C.3       1 <0>         0.1302
      6 H1         -0.0659   -2.6449   -3.4404 H         1 <0>         0.1362
      7 C5          0.5590   -4.5251   -2.5337 C.3       1 <0>        -0.1564
      8 C6         -0.0834   -5.1129   -1.2521 C.3       1 <0>        -0.0196
      9 N2         -1.3582   -4.3597   -1.1347 N.4       1 <0>        -0.5066
     10 C7         -1.0427   -2.9663   -1.5254 C.3       1 <0>        -0.0126
     11 C8          1.6869   -2.4877   -0.6087 C.2       1 <0>         0.5799
     12 O1          1.1245   -3.3340    0.0584 O.2       1 <0>        -0.5299
     13 C9          2.8016   -1.7101   -0.0288 C.ar      1 <0>        -0.1314
     14 C10         2.8929   -0.3360   -0.2596 C.ar      1 <0>        -0.0814
     15 C11         3.9354    0.3845    0.2842 C.ar      1 <0>        -0.1039
     16 C12         4.8914   -0.2504    1.0580 C.ar      1 <0>        -0.0642
     17 C13         4.8090   -1.6118    1.2915 C.ar      1 <0>        -0.0388
     18 C14         3.7655   -2.3453    0.7575 C.ar      1 <0>         0.0155
     19 Cl1         3.6581   -4.0518    1.0570 Cl        1 <0>        -0.0203
     20 Cl2         6.0138   -2.3989    2.2625 Cl        1 <0>        -0.0246
     21 H2          2.4578    1.3525   -3.3689 H         1 <0>         0.0618
     22 H3          2.1150    0.4154   -4.8429 H         1 <0>         0.0625
     23 H4          0.9537    1.6396   -4.2763 H         1 <0>         0.0670
     24 H5          0.5218    0.2886   -2.2424 H         1 <0>         0.0697
     25 H6          0.1791   -0.6484   -3.7164 H         1 <0>         0.0689
     26 H7          2.4152   -1.7088   -3.5623 H         1 <0>         0.0855
     27 H8          2.7580   -0.7718   -2.0883 H         1 <0>         0.1126
     28 H9          0.1282   -4.9812   -3.4250 H         1 <0>         0.1076
     29 H10         1.6411   -4.6549   -2.5172 H         1 <0>         0.1168
     30 H11        -0.2760   -6.1790   -1.3725 H         1 <0>         0.1295
     31 H12         0.5520   -4.9313   -0.3852 H         1 <0>         0.1720
     32 H13        -2.0499   -4.7471   -1.7589 H         1 <0>         0.4268
     33 H14        -0.8113   -2.3750   -0.6394 H         1 <0>         0.1367
     34 H15        -1.8871   -2.5280   -2.0574 H         1 <0>         0.1398
     35 H16         2.1484    0.1617   -0.8633 H         1 <0>         0.1503
     36 H17         4.0064    1.4472    0.1055 H         1 <0>         0.1528
     37 H18         5.7055    0.3193    1.4811 H         1 <0>         0.1550
     38 H19        -1.6922   -4.3873   -0.1830 H         1 <0>         0.4356
@<TRIPOS>BOND
     1    1    2 1
     2    1   21 1
     3    1   22 1
     4    1   23 1
     5    2    3 1
     6    2   24 1
     7    2   25 1
     8    3    4 1
     9    3   26 1
    10    3   27 1
    11    4    5 1
    12    4   11 am
    13    5    6 1
    14    5   10 1
    15    5    7 1
    16    7    8 1
    17    7   28 1
    18    7   29 1
    19    8    9 1
    20    8   30 1
    21    8   31 1
    22    9   10 1
    23    9   32 1
    24    9   38 1
    25   10   33 1
    26   10   34 1
    27   11   12 2
    28   11   13 1
    29   13   18 ar
    30   13   14 ar
    31   14   15 ar
    32   14   35 1
    33   15   16 ar
    34   15   36 1
    35   16   17 ar
    36   16   37 1
    37   17   18 ar
    38   17   20 1
    39   18   19 1
@<TRIPOS>MOLECULE
ZINC49034914
   46    48     0     0     0
SMALL
USER_CHARGES

@<TRIPOS>ATOM
      1 C1         -0.0178    1.4648    0.0101 C.3       1 <0>        -0.0480
      2 N1          0.0021   -0.0041    0.0020 N.4       1 <0>        -0.5061
      3 C2          0.6897   -0.4778   -1.2066 C.3       1 <0>        -0.0468
      4 C3          0.7104   -2.0077   -1.2150 C.3       1 <0>         0.0851
      5 H1          1.1585   -2.3700   -0.2898 H         1 <0>         0.1291
      6 C4          1.5333   -2.5000   -2.4072 C.3       1 <0>        -0.1823
      7 C5          1.6587   -4.0236   -2.3460 C.3       1 <0>         0.1534
      8 N2          2.4466   -4.4950   -3.4875 N.pl3     1 <0>        -0.9318
      9 C6          1.9886   -4.7750   -4.7921 C.ar      1 <0>         0.0894
     10 C7          0.6695   -4.6515   -5.2419 C.ar      1 <0>        -0.1010
     11 C8          0.3374   -4.9552   -6.5442 C.ar      1 <0>        -0.1029
     12 C9          1.3145   -5.3875   -7.4217 C.ar      1 <0>        -0.1012
     13 C10         2.6172   -5.5133   -6.9911 C.ar      1 <0>        -0.0886
     14 C11         2.9675   -5.2080   -5.6711 C.ar      1 <0>         0.0923
     15 N3          4.2621   -5.2980   -5.1172 N.pl3     1 <0>        -0.8779
     16 S1          4.0833   -4.8116   -3.5322 S.o2      1 <0>         2.7603
     17 O1          4.7649   -3.5740   -3.3807 O.2       1 <0>        -0.9504
     18 O2          4.3249   -5.9433   -2.7075 O.2       1 <0>        -0.9379
     19 C12         5.4377   -5.7014   -5.7580 C.ar      1 <0>         0.0970
     20 C13         6.1878   -4.7821   -6.4795 C.ar      1 <0>        -0.0717
     21 C14         7.3486   -5.1837   -7.1115 C.ar      1 <0>        -0.1221
     22 C15         7.7651   -6.4996   -7.0269 C.ar      1 <0>        -0.0671
     23 C16         7.0217   -7.4191   -6.3097 C.ar      1 <0>        -0.1477
     24 C17         5.8616   -7.0234   -5.6697 C.ar      1 <0>         0.1174
     25 F1          5.1382   -7.9203   -4.9643 F         1 <0>        -0.1208
     26 O3         -0.6262   -2.5016   -1.3223 O.3       1 <0>        -0.5517
     27 H2          1.0047    1.8421    0.0024 H         1 <0>         0.1242
     28 H3         -0.5450    1.8259   -0.8730 H         1 <0>         0.1235
     29 H4         -0.5280    1.8163    0.9069 H         1 <0>         0.1285
     30 H5          0.4901   -0.3383    0.8195 H         1 <0>         0.4318
     31 H6          0.1625   -0.1167   -2.0897 H         1 <0>         0.1378
     32 H7          1.7123   -0.1005   -1.2143 H         1 <0>         0.1445
     33 H8          1.0371   -2.2132   -3.3344 H         1 <0>         0.0929
     34 H9          2.5264   -2.0520   -2.3730 H         1 <0>         0.0968
     35 H10         2.1549   -4.3104   -1.4188 H         1 <0>         0.0925
     36 H11         0.6656   -4.4716   -2.3802 H         1 <0>         0.1047
     37 H12        -0.0974   -4.3146   -4.5602 H         1 <0>         0.1321
     38 H13        -0.6846   -4.8561   -6.8790 H         1 <0>         0.1386
     39 H14         1.0570   -5.6266   -8.4429 H         1 <0>         0.1401
     40 H15         3.3769   -5.8514   -7.6803 H         1 <0>         0.1359
     41 H16         5.8637   -3.7541   -6.5467 H         1 <0>         0.1423
     42 H17         7.9318   -4.4687   -7.6728 H         1 <0>         0.1440
     43 H18         8.6730   -6.8102   -7.5226 H         1 <0>         0.1458
     44 H19         7.3498   -8.4460   -6.2458 H         1 <0>         0.1498
     45 H20        -1.0871   -2.2181   -2.1237 H         1 <0>         0.3914
     46 H21        -0.9445   -0.3533    0.0092 H         1 <0>         0.4345
@<TRIPOS>BOND
     1    1    2 1
     2    1   27 1
     3    1   28 1
     4    1   29 1
     5    2    3 1
     6    2   30 1
     7    2   46 1
     8    3    4 1
     9    3   31 1
    10    3   32 1
    11    4    5 1
    12    4    6 1
    13    4   26 1
    14    6    7 1
    15    6   33 1
    16    6   34 1
    17    7    8 1
    18    7   35 1
    19    7   36 1
    20    8   16 1
    21    8    9 1
    22    9   14 ar
    23    9   10 ar
    24   10   11 ar
    25   10   37 1
    26   11   12 ar
    27   11   38 1
    28   12   13 ar
    29   12   39 1
    30   13   14 ar
    31   13   40 1
    32   14   15 1
    33   15   16 1
    34   15   19 1
    35   16   17 2
    36   16   18 2
    37   19   24 ar
    38   19   20 ar
    39   20   21 ar
    40   20   41 1
    41   21   22 ar
    42   21   42 1
    43   22   23 ar
    44   22   43 1
    45   23   24 ar
    46   23   44 1
    47   24   25 1
    48   26   45 1
@<TRIPOS>MOLECULE
ZINC06019879
   43    46     0     0     0
SMALL
USER_CHARGES
(4-methylsulfanylphenyl)BLAH
@<TRIPOS>ATOM
      1 C1          0.0021   -0.0041    0.0020 C.3       1 <0>        -0.1514
      2 H1          0.5293   -0.3651    0.8851 H         1 <0>         0.0868
      3 H2         -1.0205   -0.3814    0.0098 H         1 <0>         0.1179
      4 H3          0.5123   -0.3556   -0.8948 H         1 <0>         0.0862
      5 S1         -0.0225    1.8097    0.0120 S.3       1 <0>        -0.0886
      6 C2          1.6811    2.2592   -0.0019 C.ar      1 <0>        -0.0705
      7 C3          2.6614    1.2741   -0.0108 C.ar      1 <0>        -0.1215
      8 C4          3.9954    1.6302   -0.0274 C.ar      1 <0>        -0.1067
      9 C5          4.3567    2.9652   -0.0232 C.ar      1 <0>        -0.1112
     10 C6          3.3840    3.9482   -0.0091 C.ar      1 <0>        -0.0775
     11 C7          2.0479    3.5997    0.0018 C.ar      1 <0>        -0.0840
     12 C8          5.8138    3.3496   -0.0346 C.3       1 <0>        -0.0262
     13 H4          5.8936    4.4366   -0.0503 H         1 <0>         0.1343
     14 C9          6.4700    2.7824   -1.2999 C.3       1 <0>         0.0149
     15 C10         7.1618    0.5464   -2.1909 C.3       1 <0>        -0.0051
     16 C11         7.7796   -0.7062   -1.5101 C.3       1 <0>        -0.1519
     17 C12         8.2096   -0.2222   -0.0999 C.3       1 <0>        -0.1449
     18 C13         7.8811    1.2718   -0.1069 C.3       1 <0>         0.0789
     19 H5          8.7316    1.8358   -0.4899 H         1 <0>         0.1481
     20 C14         7.4373    1.8390    1.2019 C.ar      1 <0>        -0.1312
     21 C15         6.4681    2.8294    1.2189 C.ar      1 <0>        -0.0827
     22 C16         6.0747    3.3670    2.4359 C.ar      1 <0>        -0.0946
     23 C17         6.6311    2.9168    3.6155 C.ar      1 <0>        -0.0909
     24 C18         7.5886    1.9202    3.5931 C.ar      1 <0>        -0.1033
     25 C19         7.9897    1.3843    2.3843 C.ar      1 <0>        -0.0865
     26 H6          2.3800    0.2314   -0.0092 H         1 <0>         0.1316
     27 H7          4.7577    0.8652   -0.0388 H         1 <0>         0.1008
     28 H8          3.6697    4.9897   -0.0062 H         1 <0>         0.1388
     29 H9          1.2888    4.3679    0.0129 H         1 <0>         0.1401
     30 H10         5.7932    2.8881   -2.1478 H         1 <0>         0.1434
     31 H11         7.4031    3.3086   -1.5014 H         1 <0>         0.1357
     32 H12         6.3043    0.2676   -2.8033 H         1 <0>         0.1393
     33 H13         7.9096    1.0673   -2.7888 H         1 <0>         0.1372
     34 H14         7.0360   -1.4990   -1.4286 H         1 <0>         0.1006
     35 H15         8.6463   -1.0545   -2.0720 H         1 <0>         0.1145
     36 H16         7.6365   -0.7360    0.6718 H         1 <0>         0.1008
     37 H17         9.2781   -0.3780    0.0485 H         1 <0>         0.1172
     38 H18         5.3260    4.1451    2.4601 H         1 <0>         0.1334
     39 H19         6.3180    3.3431    4.5571 H         1 <0>         0.1369
     40 H20         8.0214    1.5625    4.5156 H         1 <0>         0.1385
     41 H21         8.7382    0.6060    2.3635 H         1 <0>         0.1355
     42 N1          6.7673    1.3448   -1.0033 N.4       1 <0>        -0.4042
     43 H22         5.9360    0.9222   -0.5736 H         1 <0>         0.4214
@<TRIPOS>BOND
     1    1    2 1
     2    1    3 1
     3    1    4 1
     4    1    5 1
     5    5    6 1
     6    6   11 ar
     7    6    7 ar
     8    7    8 ar
     9    7   26 1
    10    8    9 ar
    11    8   27 1
    12    9   10 ar
    13    9   12 1
    14   10   11 ar
    15   10   28 1
    16   11   29 1
    17   12   13 1
    18   12   21 1
    19   12   14 1
    20   14   30 1
    21   14   31 1
    22   14   42 1
    23   15   16 1
    24   15   32 1
    25   15   33 1
    26   15   42 1
    27   16   17 1
    28   16   34 1
    29   16   35 1
    30   17   18 1
    31   17   36 1
    32   17   37 1
    33   18   19 1
    34   18   20 1
    35   18   42 1
    36   20   25 ar
    37   20   21 ar
    38   21   22 ar
    39   22   23 ar
    40   22   38 1
    41   23   24 ar
    42   23   39 1
    43   24   25 ar
    44   24   40 1
    45   25   41 1
    46   42   43 1
@<TRIPOS>MOLECULE
ZINC05370091
   36    37     0     0     0
SMALL
USER_CHARGES
2-(3-chlorophenyl)-3,5,5-trimethyl-morpholin-2-ol
@<TRIPOS>ATOM
      1 C1          2.5454    2.0833    1.1652 C.3       1 <0>        -0.1738
      2 C2          1.8006    2.1760   -0.1621 C.3       1 <0>         0.0225
      3 H1          1.6811    3.2541   -0.3950 H         1 <0>         0.1477
      4 C3          0.3941    1.5901   -0.0312 C.3       1 <0>         0.3337
      5 O1          0.4750    0.1623   -0.0143 O.3       1 <0>        -0.3597
      6 C4          1.0263   -0.3784   -1.2174 C.3       1 <0>         0.0535
      7 C5          2.4670    0.1153   -1.3801 C.3       1 <0>         0.0241
      8 C6          3.3742   -0.5838   -0.3692 C.3       1 <0>        -0.1685
      9 C7          2.9420   -0.2773   -2.7939 C.3       1 <0>        -0.1820
     10 C8         -0.2307    2.0691    1.2538 C.ar      1 <0>        -0.1280
     11 C9         -0.9665    3.2396    1.2704 C.ar      1 <0>        -0.0880
     12 C10        -1.5439    3.6770    2.4475 C.ar      1 <0>        -0.1024
     13 C11        -1.3772    2.9499    3.6113 C.ar      1 <0>        -0.0837
     14 C12        -0.6368    1.7815    3.5965 C.ar      1 <0>        -0.0396
     15 C13        -0.0634    1.3413    2.4166 C.ar      1 <0>        -0.0737
     16 Cl1        -0.4266    0.8681    5.0578 Cl        1 <0>        -0.0476
     17 O2         -0.4082    2.0149   -1.1344 O.3       1 <0>        -0.5644
     18 H2          2.5207    1.0545    1.5246 H         1 <0>         0.0906
     19 H3          3.5806    2.3938    1.0233 H         1 <0>         0.0900
     20 H4          2.0675    2.7352    1.8963 H         1 <0>         0.1109
     21 H5          1.0228   -1.4681   -1.1594 H         1 <0>         0.1408
     22 H6          0.4325   -0.0612   -2.0732 H         1 <0>         0.0909
     23 H7          3.4335   -1.6458   -0.6078 H         1 <0>         0.1078
     24 H8          4.3713   -0.1456   -0.4120 H         1 <0>         0.0817
     25 H9          2.9651   -0.4589    0.6333 H         1 <0>         0.0873
     26 H10         2.2957    0.1896   -3.5370 H         1 <0>         0.0838
     27 H11         3.9676    0.0619   -2.9398 H         1 <0>         0.0872
     28 H12         2.8985   -1.3608   -2.9039 H         1 <0>         0.1090
     29 H13        -1.0932    3.8104    0.3623 H         1 <0>         0.1405
     30 H14        -2.1222    4.5890    2.4589 H         1 <0>         0.1445
     31 H15        -1.8247    3.2941    4.5320 H         1 <0>         0.1441
     32 H16         0.5145    0.4290    2.4044 H         1 <0>         0.1425
     33 H17        -1.3152    1.6803   -1.1130 H         1 <0>         0.4126
     34 N1          2.5610    1.5978   -1.2986 N.4       1 <0>        -0.5072
     35 H18         3.5492    1.8559   -1.1935 H         1 <0>         0.4340
     36 H19         2.1943    1.9956   -2.1712 H         1 <0>         0.4385
@<TRIPOS>BOND
     1    1    2 1
     2    1   18 1
     3    1   19 1
     4    1   20 1
     5    2    3 1
     6    2    4 1
     7    2   34 1
     8    4    5 1
     9    4   10 1
    10    4   17 1
    11    5    6 1
    12    6    7 1
    13    6   21 1
    14    6   22 1
    15    7    8 1
    16    7    9 1
    17    7   34 1
    18    8   23 1
    19    8   24 1
    20    8   25 1
    21    9   26 1
    22    9   27 1
    23    9   28 1
    24   10   15 ar
    25   10   11 ar
    26   11   12 ar
    27   11   29 1
    28   12   13 ar
    29   12   30 1
    30   13   14 ar
    31   13   31 1
    32   14   15 ar
    33   14   16 1
    34   15   32 1
    35   17   33 1
    36   34   35 1
    37   34   36 1
@<TRIPOS>MOLECULE
ZINC01536779
   41    43     0     0     0
SMALL
USER_CHARGES

@<TRIPOS>ATOM
      1 C1         -0.7400    0.9331    0.2776 C.3       1 <0>        -0.0476
      2 N1         -0.4844   -0.5066    0.1362 N.4       1 <0>        -0.5085
      3 C2          0.3213   -0.7448   -1.0688 C.3       1 <0>        -0.0132
      4 C3          0.5875   -2.2442   -1.2161 C.3       1 <0>        -0.1420
      5 C4          1.4267   -2.4924   -2.4711 C.3       1 <0>         0.1856
      6 H1          2.3354   -1.8921   -2.4252 H         1 <0>         0.1031
      7 C5          1.7925   -3.9522   -2.5503 C.2       1 <0>        -0.2178
      8 C6          2.9174   -4.5748   -2.1210 C.2       1 <0>        -0.1229
      9 C7          3.0378   -5.9401   -2.3002 C.2       1 <0>        -0.1690
     10 C8          2.0274   -6.6160   -2.8999 C.2       1 <0>        -0.1537
     11 S1          0.8534   -5.3114   -3.2268 S.3       1 <0>         0.0860
     12 O1          0.6724   -2.1269   -3.6285 O.3       1 <0>        -0.3033
     13 C9          1.3745   -1.7982   -4.7435 C.ar      1 <0>         0.1312
     14 C10         2.7346   -1.9306   -4.7642 C.ar      1 <0>        -0.2054
     15 C11         3.4685   -1.5981   -5.8992 C.ar      1 <0>        -0.0827
     16 C12         2.8540   -1.1319   -7.0215 C.ar      1 <0>        -0.1285
     17 C13         1.4570   -0.9818   -7.0408 C.ar      1 <0>        -0.0223
     18 C14         0.7049   -1.3236   -5.8896 C.ar      1 <0>        -0.0635
     19 C15        -0.6915   -1.1779   -5.9104 C.ar      1 <0>        -0.0959
     20 C16        -1.3040   -0.7161   -7.0351 C.ar      1 <0>        -0.1186
     21 C17        -0.5654   -0.3847   -8.1695 C.ar      1 <0>        -0.1028
     22 C18         0.7904   -0.5031   -8.1819 C.ar      1 <0>        -0.1090
     23 H2          0.2082    1.4637    0.3638 H         1 <0>         0.1241
     24 H3         -1.2800    1.2940   -0.5978 H         1 <0>         0.1247
     25 H4         -1.3378    1.1099    1.1717 H         1 <0>         0.1281
     26 H5          0.0155   -0.8406    0.9465 H         1 <0>         0.4304
     27 H6         -0.2187   -0.3839   -1.9442 H         1 <0>         0.1408
     28 H7          1.2696   -0.2142   -0.9826 H         1 <0>         0.1345
     29 H8          1.1275   -2.6051   -0.3407 H         1 <0>         0.1121
     30 H9         -0.3607   -2.7749   -1.3023 H         1 <0>         0.1048
     31 H10         3.7079   -4.0125   -1.6464 H         1 <0>         0.1341
     32 H11         3.9238   -6.4605   -1.9677 H         1 <0>         0.1404
     33 H12         1.9508   -7.6707   -3.1194 H         1 <0>         0.1916
     34 H13         3.2471   -2.2981   -3.8875 H         1 <0>         0.1267
     35 H14         4.5425   -1.7112   -5.8895 H         1 <0>         0.1280
     36 H15         3.4384   -0.8782   -7.8935 H         1 <0>         0.1327
     37 H16        -1.2767   -1.4311   -5.0388 H         1 <0>         0.1266
     38 H17        -2.3782   -0.6052   -7.0486 H         1 <0>         0.1262
     39 H18        -1.0757   -0.0208   -9.0490 H         1 <0>         0.1287
     40 H19         1.3500   -0.2422   -9.0680 H         1 <0>         0.1339
     41 H20        -1.3622   -0.9977    0.0564 H         1 <0>         0.4321
@<TRIPOS>BOND
     1    1    2 1
     2    1   23 1
     3    1   24 1
     4    1   25 1
     5    2    3 1
     6    2   26 1
     7    2   41 1
     8    3    4 1
     9    3   27 1
    10    3   28 1
    11    4    5 1
    12    4   29 1
    13    4   30 1
    14    5    6 1
    15    5    7 1
    16    5   12 1
    17    7   11 1
    18    7    8 2
    19    8    9 1
    20    8   31 1
    21    9   10 2
    22    9   32 1
    23   10   11 1
    24   10   33 1
    25   12   13 1
    26   13   18 ar
    27   13   14 ar
    28   14   15 ar
    29   14   34 1
    30   15   16 ar
    31   15   35 1
    32   16   17 ar
    33   16   36 1
    34   17   22 ar
    35   17   18 ar
    36   18   19 ar
    37   19   20 ar
    38   19   37 1
    39   20   21 ar
    40   20   38 1
    41   21   22 ar
    42   21   39 1
    43   22   40 1
@<TRIPOS>MOLECULE
ZINC00968360
   49    52     0     0     0
SMALL
USER_CHARGES

@<TRIPOS>ATOM
      1 C1          3.3904   -1.0686    1.3596 C.3       1 <0>        -0.0414
      2 N1          2.2270   -1.8016    0.8426 N.4       1 <0>        -0.3966
      3 C2          1.0087   -0.9500    0.8889 C.3       1 <0>         0.0345
      4 H1          1.1973    0.0598    0.5245 H         1 <0>         0.1466
      5 C3          0.5905   -0.9658    2.3773 C.3       1 <0>        -0.1338
      6 C4          1.1707   -2.2813    2.9369 C.3       1 <0>        -0.1396
      7 C5          1.8867   -2.9409    1.7358 C.3       1 <0>         0.0374
      8 H2          2.7689   -3.5040    2.0404 H         1 <0>         0.1457
      9 C6          0.8579   -3.8095    0.9944 C.3       1 <0>        -0.1626
     10 C7         -0.4211   -2.9937    0.7855 C.3       1 <0>         0.0760
     11 C8         -0.0791   -1.6663    0.0728 C.3       1 <0>        -0.1379
     12 O1         -1.0224   -2.7199    2.0525 O.3       1 <0>        -0.3507
     13 C9         -2.0131   -3.6726    2.4437 C.3       1 <0>         0.1708
     14 C10        -2.1179   -3.6999    3.9468 C.ar      1 <0>        -0.0904
     15 C11        -2.0585   -2.5205    4.6654 C.ar      1 <0>        -0.0943
     16 C12        -2.1546   -2.5456    6.0442 C.ar      1 <0>        -0.1204
     17 C13        -2.3105   -3.7501    6.7043 C.ar      1 <0>        -0.1092
     18 C14        -2.3708   -4.9294    5.9857 C.ar      1 <0>        -0.1151
     19 C15        -2.2790   -4.9039    4.6066 C.ar      1 <0>        -0.1074
     20 C16        -3.3444   -3.2836    1.8544 C.ar      1 <0>        -0.1188
     21 C17        -3.6951   -1.9499    1.7593 C.ar      1 <0>        -0.0957
     22 C18        -4.9163   -1.5931    1.2187 C.ar      1 <0>        -0.1207
     23 C19        -5.7867   -2.5701    0.7728 C.ar      1 <0>        -0.1099
     24 C20        -5.4356   -3.9038    0.8670 C.ar      1 <0>        -0.1159
     25 C21        -4.2126   -4.2604    1.4036 C.ar      1 <0>        -0.1088
     26 H3          4.2470   -1.7403    1.4169 H         1 <0>         0.1198
     27 H4          3.6232   -0.2391    0.6920 H         1 <0>         0.1202
     28 H5          3.1643   -0.6826    2.3536 H         1 <0>         0.1206
     29 H6          1.0175   -0.1101    2.9003 H         1 <0>         0.0864
     30 H7         -0.4958   -0.9622    2.4661 H         1 <0>         0.1317
     31 H8          1.8830   -2.0725    3.7351 H         1 <0>         0.0829
     32 H9          0.3696   -2.9246    3.3009 H         1 <0>         0.1348
     33 H10         1.2621   -4.1087    0.0273 H         1 <0>         0.0958
     34 H11         0.6329   -4.6956    1.5879 H         1 <0>         0.1134
     35 H12        -1.1176   -3.5627    0.1698 H         1 <0>         0.0934
     36 H13        -0.9701   -1.0404    0.0234 H         1 <0>         0.1187
     37 H14         0.2889   -1.8607   -0.9346 H         1 <0>         0.0996
     38 H15        -1.7300   -4.6608    2.0812 H         1 <0>         0.0802
     39 H16        -1.9366   -1.5795    4.1496 H         1 <0>         0.1222
     40 H17        -2.1075   -1.6242    6.6056 H         1 <0>         0.1245
     41 H18        -2.3849   -3.7697    7.7816 H         1 <0>         0.1256
     42 H19        -2.4923   -5.8705    6.5015 H         1 <0>         0.1269
     43 H20        -2.3299   -5.8249    4.0449 H         1 <0>         0.1218
     44 H21        -3.0151   -1.1866    2.1077 H         1 <0>         0.1218
     45 H22        -5.1906   -0.5511    1.1451 H         1 <0>         0.1241
     46 H23        -6.7411   -2.2914    0.3510 H         1 <0>         0.1253
     47 H24        -6.1158   -4.6671    0.5189 H         1 <0>         0.1260
     48 H25        -3.9368   -5.3022    1.4738 H         1 <0>         0.1208
     49 H26         2.4007   -2.1262   -0.0968 H         1 <0>         0.4215
@<TRIPOS>BOND
     1    1    2 1
     2    1   26 1
     3    1   27 1
     4    1   28 1
     5    2    7 1
     6    2    3 1
     7    2   49 1
     8    3    4 1
     9    3   11 1
    10    3    5 1
    11    5    6 1
    12    5   29 1
    13    5   30 1
    14    6    7 1
    15    6   31 1
    16    6   32 1
    17    7    8 1
    18    7    9 1
    19    9   10 1
    20    9   33 1
    21    9   34 1
    22   10   11 1
    23   10   12 1
    24   10   35 1
    25   11   36 1
    26   11   37 1
    27   12   13 1
    28   13   14 1
    29   13   20 1
    30   13   38 1
    31   14   19 ar
    32   14   15 ar
    33   15   16 ar
    34   15   39 1
    35   16   17 ar
    36   16   40 1
    37   17   18 ar
    38   17   41 1
    39   18   19 ar
    40   18   42 1
    41   19   43 1
    42   20   25 ar
    43   20   21 ar
    44   21   22 ar
    45   21   44 1
    46   22   23 ar
    47   22   45 1
    48   23   24 ar
    49   23   46 1
    50   24   25 ar
    51   24   47 1
    52   25   48 1
@<TRIPOS>MOLECULE
ZINC45315721
   70    72     0     0     0
SMALL
USER_CHARGES

@<TRIPOS>ATOM
      1 C1         -0.0187    1.5258    0.0104 C.3       1 <0>        -0.1539
      2 C2          0.0021   -0.0041    0.0020 C.3       1 <0>         0.0597
      3 O1          0.6932   -0.4774    1.1597 O.3       1 <0>        -0.3538
      4 C3          0.8006   -1.8076    1.3039 C.2       1 <0>         0.4586
      5 O2          0.3237   -2.5457    0.4746 O.2       1 <0>        -0.5045
      6 C4          1.5162   -2.3806    2.5000 C.3       1 <0>        -0.1103
      7 C5          1.4962   -3.9085    2.4227 C.3       1 <0>        -0.0706
      8 C6          2.2117   -4.4814    3.6188 C.ar      1 <0>        -0.1103
      9 C7          3.5746   -4.7208    3.5575 C.ar      1 <0>        -0.0414
     10 C8          4.2416   -5.2456    4.6471 C.ar      1 <0>        -0.2057
     11 C9          3.5486   -5.5368    5.8121 C.ar      1 <0>         0.1651
     12 C10         2.1694   -5.2956    5.8786 C.ar      1 <0>        -0.0460
     13 C11         1.5081   -4.7596    4.7708 C.ar      1 <0>        -0.0251
     14 C12         1.4433   -5.5928    7.0766 C.1       1 <0>         0.2514
     15 N1          0.8673   -5.8286    8.0269 N.1       1 <0>        -0.4010
     16 O3          4.2026   -6.0533    6.8832 O.3       1 <0>        -0.2955
     17 C13         5.6076   -6.2725    6.7415 C.3       1 <0>         0.0274
     18 C14         6.1666   -6.8542    8.0415 C.3       1 <0>         0.0864
     19 H1          5.6108   -7.7539    8.3056 H         1 <0>         0.1346
     20 C15         7.6435   -7.2050    7.8497 C.3       1 <0>        -0.0501
     21 N2          8.1489   -7.8727    9.0566 N.4       1 <0>        -0.4982
     22 C16         9.5669   -8.2095    8.8725 C.3       1 <0>         0.0599
     23 C17         9.7170   -9.1451    7.6713 C.3       1 <0>        -0.1809
     24 C18        10.3672   -6.9292    8.6249 C.3       1 <0>        -0.1815
     25 C19        10.0933   -8.9049   10.1295 C.3       1 <0>        -0.0916
     26 C20        11.5480   -9.2504    9.9406 C.ar      1 <0>        -0.0974
     27 C21        11.8948  -10.4813    9.3864 C.ar      1 <0>        -0.1203
     28 C22        13.1988  -10.8245    9.2026 C.ar      1 <0>        -0.0903
     29 C23        14.2135   -9.9266    9.5758 C.ar      1 <0>        -0.0469
     30 C24        15.5710  -10.2454    9.4009 C.ar      1 <0>        -0.1081
     31 C25        16.5263   -9.3507    9.7737 C.ar      1 <0>        -0.1044
     32 C26        16.1794   -8.1197   10.3276 C.ar      1 <0>        -0.1051
     33 C27        14.8754   -7.7766   10.5118 C.ar      1 <0>        -0.1105
     34 C28        13.8608   -8.6748   10.1390 C.ar      1 <0>        -0.0531
     35 C29        12.5032   -8.3536   10.3087 C.ar      1 <0>        -0.0885
     36 O4          6.0381   -5.8904    9.0887 O.3       1 <0>        -0.5412
     37 H2          1.0039    1.9031    0.0027 H         1 <0>         0.0671
     38 H3         -0.5459    1.8868   -0.8726 H         1 <0>         0.0820
     39 H4         -0.5289    1.8773    0.9072 H         1 <0>         0.0675
     40 H5         -1.0205   -0.3814    0.0098 H         1 <0>         0.0693
     41 H6          0.5123   -0.3556   -0.8948 H         1 <0>         0.0690
     42 H7          2.5484   -2.0306    2.5079 H         1 <0>         0.1089
     43 H8          1.0156   -2.0564    3.4125 H         1 <0>         0.1097
     44 H9          0.4639   -4.2584    2.4148 H         1 <0>         0.0898
     45 H10         1.9967   -4.2327    1.5103 H         1 <0>         0.0898
     46 H11         4.1189   -4.4961    2.6522 H         1 <0>         0.1392
     47 H12         5.3043   -5.4298    4.5914 H         1 <0>         0.1369
     48 H13         0.4462   -4.5675    4.8156 H         1 <0>         0.1463
     49 H14         5.7857   -6.9717    5.9245 H         1 <0>         0.0871
     50 H15         6.1029   -5.3261    6.5244 H         1 <0>         0.0828
     51 H16         7.7504   -7.8716    6.9939 H         1 <0>         0.1490
     52 H17         8.2136   -6.2929    7.6733 H         1 <0>         0.1432
     53 H18         8.0499   -7.2556    9.8488 H         1 <0>         0.4323
     54 H19         9.3420   -8.6497    6.7757 H         1 <0>         0.0811
     55 H20        10.7691   -9.3950    7.5346 H         1 <0>         0.1119
     56 H21         9.1469  -10.0572    7.8477 H         1 <0>         0.0839
     57 H22        10.2602   -6.2626    9.4806 H         1 <0>         0.0834
     58 H23        11.4193   -7.1791    8.4882 H         1 <0>         0.1112
     59 H24         9.9921   -6.4338    7.7293 H         1 <0>         0.0812
     60 H25         9.9864   -8.2383   10.9853 H         1 <0>         0.0969
     61 H26         9.5232   -9.8170   10.3060 H         1 <0>         0.0980
     62 H27        11.1170  -11.1732    9.0987 H         1 <0>         0.1244
     63 H28        13.4526  -11.7822    8.7726 H         1 <0>         0.1328
     64 H29        15.8546  -11.1957    8.9733 H         1 <0>         0.1321
     65 H30        17.5688   -9.5983    9.6385 H         1 <0>         0.1300
     66 H31        16.9572   -7.4278   10.6153 H         1 <0>         0.1294
     67 H32        14.6215   -6.8194   10.9426 H         1 <0>         0.1294
     68 H33        12.2195   -7.4016   10.7325 H         1 <0>         0.1281
     69 H34         6.5086   -5.0624    8.9211 H         1 <0>         0.3901
     70 H35         7.6211   -8.7170    9.2200 H         1 <0>         0.4290
@<TRIPOS>BOND
     1    1    2 1
     2    1   37 1
     3    1   38 1
     4    1   39 1
     5    2    3 1
     6    2   40 1
     7    2   41 1
     8    3    4 1
     9    4    5 2
    10    4    6 1
    11    6    7 1
    12    6   42 1
    13    6   43 1
    14    7    8 1
    15    7   44 1
    16    7   45 1
    17    8   13 ar
    18    8    9 ar
    19    9   10 ar
    20    9   46 1
    21   10   11 ar
    22   10   47 1
    23   11   12 ar
    24   11   16 1
    25   12   13 ar
    26   12   14 1
    27   13   48 1
    28   14   15 3
    29   16   17 1
    30   17   18 1
    31   17   49 1
    32   17   50 1
    33   18   19 1
    34   18   20 1
    35   18   36 1
    36   20   21 1
    37   20   51 1
    38   20   52 1
    39   21   22 1
    40   21   53 1
    41   21   70 1
    42   22   23 1
    43   22   24 1
    44   22   25 1
    45   23   54 1
    46   23   55 1
    47   23   56 1
    48   24   57 1
    49   24   58 1
    50   24   59 1
    51   25   26 1
    52   25   60 1
    53   25   61 1
    54   26   35 ar
    55   26   27 ar
    56   27   28 ar
    57   27   62 1
    58   28   29 ar
    59   28   63 1
    60   29   34 ar
    61   29   30 ar
    62   30   31 ar
    63   30   64 1
    64   31   32 ar
    65   31   65 1
    66   32   33 ar
    67   32   66 1
    68   33   34 ar
    69   33   67 1
    70   34   35 ar
    71   35   68 1
    72   36   69 1
@<TRIPOS>MOLECULE
ZINC00000310
   44    46     0     0     0
SMALL
USER_CHARGES
(4-fluorophenyl)-[4-(4-fluorophenyl)-4-hydroxy-1-methyl-3-piperidyl]-methanone
@<TRIPOS>ATOM
      1 C1          0.0589    1.2086    2.4247 C.3       1 <0>        -0.0424
      2 C2         -2.0706    1.0383    1.2868 C.3       1 <0>         0.0000
      3 C3         -2.8718    1.5436    0.0848 C.3       1 <0>        -0.1727
      4 C4         -2.1941    1.0772   -1.2067 C.3       1 <0>         0.1874
      5 C5         -0.7525    1.5926   -1.2322 C.3       1 <0>        -0.1340
      6 H1         -0.7560    2.5926   -1.2351 H         1 <0>         0.1158
      7 C6         -0.0127    1.0858    0.0080 C.3       1 <0>         0.0071
      8 C7         -0.0593    1.0894   -2.4721 C.2       1 <0>         0.4028
      9 O1         -0.4449    0.0748   -3.0129 O.2       1 <0>        -0.3844
     10 C8          1.0844    1.8286   -3.0260 C.ar      1 <0>        -0.1924
     11 C9          1.5284    3.0029   -2.4077 C.ar      1 <0>        -0.0574
     12 C10         2.6042    3.6875   -2.9285 C.ar      1 <0>        -0.1624
     13 C11         3.2400    3.2216   -4.0700 C.ar      1 <0>         0.1457
     14 C12         2.8014    2.0614   -4.6911 C.ar      1 <0>        -0.1585
     15 C13         1.7304    1.3641   -4.1773 C.ar      1 <0>        -0.0223
     16 F1          4.2914    3.9006   -4.5788 F         1 <0>        -0.1234
     17 C14        -2.9447    1.6220   -2.3944 C.ar      1 <0>        -0.1408
     18 C15        -2.6044    2.8542   -2.9207 C.ar      1 <0>        -0.0892
     19 C16        -3.2889    3.3526   -4.0129 C.ar      1 <0>        -0.1457
     20 C17        -4.3229    2.6221   -4.5735 C.ar      1 <0>         0.1180
     21 C18        -4.6663    1.3904   -4.0423 C.ar      1 <0>        -0.1439
     22 C19        -3.9769    0.8916   -2.9534 C.ar      1 <0>        -0.0673
     23 F2         -4.9958    3.1104   -5.6383 F         1 <0>        -0.1288
     24 O2         -2.1916   -0.3510   -1.2558 O.3       1 <0>        -0.5298
     25 H2          1.0458    1.6693    2.3805 H         1 <0>         0.1244
     26 H3         -0.4721    1.5709    3.3050 H         1 <0>         0.1261
     27 H4          0.1659    0.1256    2.4850 H         1 <0>         0.1262
     28 H5         -2.5425    1.3807    2.2077 H         1 <0>         0.1355
     29 H6         -2.0460   -0.0514    1.2747 H         1 <0>         0.1397
     30 H7         -2.9083    2.6328    0.1037 H         1 <0>         0.1025
     31 H8         -3.8852    1.1447    0.1285 H         1 <0>         0.1234
     32 H9          0.0021   -0.0041    0.0020 H         1 <0>         0.1491
     33 H10         1.0099    1.4629    0.0003 H         1 <0>         0.1382
     34 H11         1.0314    3.3690   -1.5215 H         1 <0>         0.1326
     35 H12         2.9506    4.5915   -2.4497 H         1 <0>         0.1478
     36 H13         3.3010    1.7038   -5.5793 H         1 <0>         0.1504
     37 H14         1.3901    0.4608   -4.6616 H         1 <0>         0.1483
     38 H15        -1.8006    3.4257   -2.4806 H         1 <0>         0.1290
     39 H16        -3.0202    4.3135   -4.4264 H         1 <0>         0.1430
     40 H17        -5.4724    0.8195   -4.4791 H         1 <0>         0.1447
     41 H18        -4.2448   -0.0689   -2.5387 H         1 <0>         0.1347
     42 H19        -3.0739   -0.7465   -1.2430 H         1 <0>         0.3897
     43 N1         -0.7005    1.5892    1.2160 N.4       1 <0>        -0.3942
     44 H20        -0.7555    2.6132    1.1654 H         1 <0>         0.4277
@<TRIPOS>BOND
     1    1   25 1
     2    1   26 1
     3    1   27 1
     4    1   43 1
     5    2    3 1
     6    2   28 1
     7    2   29 1
     8    2   43 1
     9    3    4 1
    10    3   30 1
    11    3   31 1
    12    4    5 1
    13    4   17 1
    14    4   24 1
    15    5    6 1
    16    5    7 1
    17    5    8 1
    18    7   32 1
    19    7   33 1
    20    7   43 1
    21    8    9 2
    22    8   10 1
    23   10   15 ar
    24   10   11 ar
    25   11   12 ar
    26   11   34 1
    27   12   13 ar
    28   12   35 1
    29   13   14 ar
    30   13   16 1
    31   14   15 ar
    32   14   36 1
    33   15   37 1
    34   17   22 ar
    35   17   18 ar
    36   18   19 ar
    37   18   38 1
    38   19   20 ar
    39   19   39 1
    40   20   21 ar
    41   20   23 1
    42   21   22 ar
    43   21   40 1
    44   22   41 1
    45   24   42 1
    46   43   44 1
@<TRIPOS>MOLECULE
ZINC04594154
   44    46     0     0     0
SMALL
USER_CHARGES
(4-fluorophenyl)-[4-(4-fluorophenyl)-4-hydroxy-1-methyl-3-piperidyl]-methanone
@<TRIPOS>ATOM
      1 C1         -2.4237    0.8189    3.5680 C.3       1 <0>        -0.0412
      2 C2         -3.2636    0.1000    1.4144 C.3       1 <0>         0.0047
      3 C3         -2.8606   -0.1919   -0.0328 C.3       1 <0>        -0.1825
      4 C4         -2.3905    1.1046   -0.6980 C.3       1 <0>         0.1960
      5 C5         -1.2252    1.6881    0.1058 C.3       1 <0>        -0.1326
      6 H1         -0.9391    2.5547   -0.3031 H         1 <0>         0.1336
      7 C6         -1.6756    1.9255    1.5490 C.3       1 <0>         0.0132
      8 C7         -0.0701    0.7203    0.0920 C.2       1 <0>         0.4275
      9 O1         -0.0387   -0.1979    0.8837 O.2       1 <0>        -0.4643
     10 C8          1.0158    0.8857   -0.8852 C.ar      1 <0>        -0.2016
     11 C9          0.9798    1.9407   -1.8039 C.ar      1 <0>        -0.0278
     12 C10         2.0038    2.0939   -2.7124 C.ar      1 <0>        -0.1660
     13 C11         3.0625    1.1977   -2.7265 C.ar      1 <0>         0.1615
     14 C12         3.1012    0.1461   -1.8226 C.ar      1 <0>        -0.1673
     15 C13         2.0870   -0.0146   -0.9045 C.ar      1 <0>        -0.0150
     16 F1          4.0606    1.3500   -3.6242 F         1 <0>        -0.1201
     17 C14        -1.9358    0.8128   -2.1048 C.ar      1 <0>        -0.1632
     18 C15        -2.1776    1.7276   -3.1126 C.ar      1 <0>        -0.0642
     19 C16        -1.7560    1.4636   -4.4020 C.ar      1 <0>        -0.1492
     20 C17        -1.1009    0.2774   -4.6863 C.ar      1 <0>         0.1251
     21 C18        -0.8643   -0.6407   -3.6772 C.ar      1 <0>        -0.1473
     22 C19        -1.2822   -0.3721   -2.3876 C.ar      1 <0>        -0.0763
     23 F2         -0.6932    0.0157   -5.9475 F         1 <0>        -0.1282
     24 O2         -3.4674    2.0436   -0.7280 O.3       1 <0>        -0.5423
     25 H2         -3.2204    1.5535    3.6855 H         1 <0>         0.1224
     26 H3         -2.7464   -0.1365    3.9817 H         1 <0>         0.1224
     27 H4         -1.5333    1.1611    4.0956 H         1 <0>         0.1203
     28 H5         -3.5853   -0.8239    1.8952 H         1 <0>         0.1319
     29 H6         -4.0826    0.8191    1.4253 H         1 <0>         0.1360
     30 H7         -2.0508   -0.9215   -0.0450 H         1 <0>         0.1029
     31 H8         -3.7176   -0.5903   -0.5759 H         1 <0>         0.1241
     32 H9         -0.8439    2.3275    2.1276 H         1 <0>         0.1330
     33 H10        -2.5020    2.6361    1.5593 H         1 <0>         0.1503
     34 H11         0.1537    2.6363   -1.7971 H         1 <0>         0.1413
     35 H12         1.9799    2.9107   -3.4186 H         1 <0>         0.1498
     36 H13         3.9285   -0.5480   -1.8386 H         1 <0>         0.1515
     37 H14         2.1183   -0.8337   -0.2013 H         1 <0>         0.1487
     38 H15        -2.6925    2.6508   -2.8915 H         1 <0>         0.1459
     39 H16        -1.9414    2.1802   -5.1884 H         1 <0>         0.1450
     40 H17        -0.3537   -1.5664   -3.8979 H         1 <0>         0.1416
     41 H18        -1.0977   -1.0880   -1.6003 H         1 <0>         0.1291
     42 H19        -4.2411    1.7391   -1.2217 H         1 <0>         0.4014
     43 N1         -2.0923    0.6358    2.1399 N.4       1 <0>        -0.4016
     44 H20        -1.3171   -0.0327    2.0606 H         1 <0>         0.4314
@<TRIPOS>BOND
     1    1   25 1
     2    1   26 1
     3    1   27 1
     4    1   43 1
     5    2    3 1
     6    2   28 1
     7    2   29 1
     8    2   43 1
     9    3    4 1
    10    3   30 1
    11    3   31 1
    12    4    5 1
    13    4   17 1
    14    4   24 1
    15    5    6 1
    16    5    7 1
    17    5    8 1
    18    7   32 1
    19    7   33 1
    20    7   43 1
    21    8    9 2
    22    8   10 1
    23   10   15 ar
    24   10   11 ar
    25   11   12 ar
    26   11   34 1
    27   12   13 ar
    28   12   35 1
    29   13   14 ar
    30   13   16 1
    31   14   15 ar
    32   14   36 1
    33   15   37 1
    34   17   22 ar
    35   17   18 ar
    36   18   19 ar
    37   18   38 1
    38   19   20 ar
    39   19   39 1
    40   20   21 ar
    41   20   23 1
    42   21   22 ar
    43   21   40 1
    44   22   41 1
    45   24   42 1
    46   43   44 1
@<TRIPOS>MOLECULE
ZINC02022527
   54    55     0     0     0
SMALL
USER_CHARGES

@<TRIPOS>ATOM
      1 C1         -3.0730    2.2881   -4.2693 C.3       1 <0>        -0.1569
      2 C2         -2.3049    1.5870   -3.1471 C.3       1 <0>        -0.1270
      3 C3         -2.8110    2.0874   -1.7927 C.3       1 <0>        -0.1231
      4 C4         -2.0429    1.3862   -0.6705 C.3       1 <0>        -0.1174
      5 C5         -2.5490    1.8867    0.6839 C.3       1 <0>        -0.1006
      6 C6         -2.2117    3.3722    0.8391 C.3       1 <0>        -0.1451
      7 C7         -2.6658    3.8518    2.2196 C.3       1 <0>        -0.0114
      8 C8         -2.3347    1.6429    3.1595 C.3       1 <0>        -0.0001
      9 C9         -1.8707    1.0973    1.8070 C.3       1 <0>        -0.1442
     10 C10        -2.2939    3.5901    4.5974 C.3       1 <0>        -0.0052
     11 C11        -2.1583    5.1140    4.5919 C.3       1 <0>        -0.1459
     12 C12        -2.4764    5.6593    5.9856 C.3       1 <0>        -0.1543
     13 C13        -2.3428    7.1604    5.9803 C.2       1 <0>         0.3987
     14 O1         -2.0245    7.7371    4.9623 O.2       1 <0>        -0.4456
     15 C14        -2.5986    7.9263    7.2106 C.ar      1 <0>        -0.1885
     16 C15        -3.0878    7.2813    8.3513 C.ar      1 <0>        -0.0705
     17 C16        -3.3195    8.0047    9.5018 C.ar      1 <0>        -0.1389
     18 C17        -3.0801    9.3679    9.5265 C.ar      1 <0>        -0.0729
     19 C18        -2.6016   10.0143    8.4004 C.ar      1 <0>        -0.1345
     20 C19        -2.3594    9.3036    7.2436 C.ar      1 <0>        -0.0178
     21 C20        -1.8387   10.0095    6.0182 C.3       1 <0>        -0.1264
     22 H1         -4.1363    2.0676   -4.1746 H         1 <0>         0.0549
     23 H2         -2.9175    3.3647   -4.1985 H         1 <0>         0.0540
     24 H3         -2.7125    1.9316   -5.2342 H         1 <0>         0.0581
     25 H4         -1.2417    1.8075   -3.2417 H         1 <0>         0.0621
     26 H5         -2.4605    0.5104   -3.2179 H         1 <0>         0.0631
     27 H6         -3.8743    1.8669   -1.6981 H         1 <0>         0.0644
     28 H7         -2.6555    3.1639   -1.7219 H         1 <0>         0.0632
     29 H8         -2.1984    0.3097   -0.7413 H         1 <0>         0.0733
     30 H9         -0.9796    1.6067   -0.7651 H         1 <0>         0.0688
     31 H10        -3.6287    1.7492    0.7427 H         1 <0>         0.0884
     32 H11        -1.1354    3.5132    0.7407 H         1 <0>         0.0881
     33 H12        -2.7264    3.9447    0.0675 H         1 <0>         0.1133
     34 H13        -3.7442    3.7233    2.3122 H         1 <0>         0.1295
     35 H14        -2.4142    4.9057    2.3388 H         1 <0>         0.1342
     36 H15        -3.4146    1.5248    3.2476 H         1 <0>         0.1293
     37 H16        -1.8426    1.0924    3.9613 H         1 <0>         0.1282
     38 H17        -2.1418    0.0446    1.7270 H         1 <0>         0.1118
     39 H18        -0.7890    1.2025    1.7239 H         1 <0>         0.0880
     40 H19        -3.3133    3.3170    4.8704 H         1 <0>         0.1315
     41 H20        -1.5979    3.1659    5.3211 H         1 <0>         0.1302
     42 H21        -1.1389    5.3871    4.3190 H         1 <0>         0.0944
     43 H22        -2.8542    5.5382    3.8682 H         1 <0>         0.0968
     44 H23        -3.4115    5.4088    6.2361 H         1 <0>         0.0981
     45 H24        -1.7805    5.2352    6.7093 H         1 <0>         0.1100
     46 H25        -3.2793    6.2186    8.3321 H         1 <0>         0.1290
     47 H26        -3.6933    7.5074   10.3846 H         1 <0>         0.1322
     48 H27        -3.2682    9.9300   10.4293 H         1 <0>         0.1326
     49 H28        -2.4176   11.0782    8.4274 H         1 <0>         0.1332
     50 H29        -2.6709   10.2515    5.3572 H         1 <0>         0.0784
     51 H30        -1.3321   10.9277    6.3156 H         1 <0>         0.0652
     52 H31        -1.1365    9.3600    5.4956 H         1 <0>         0.0893
     53 N1         -1.9588    3.0696    3.2558 N.4       1 <0>        -0.3931
     54 H32        -0.9467    3.1581    3.1071 H         1 <0>         0.4272
@<TRIPOS>BOND
     1    1    2 1
     2    1   22 1
     3    1   23 1
     4    1   24 1
     5    2    3 1
     6    2   25 1
     7    2   26 1
     8    3    4 1
     9    3   27 1
    10    3   28 1
    11    4    5 1
    12    4   29 1
    13    4   30 1
    14    5    9 1
    15    5    6 1
    16    5   31 1
    17    6    7 1
    18    6   32 1
    19    6   33 1
    20    7   34 1
    21    7   35 1
    22    7   53 1
    23    8    9 1
    24    8   36 1
    25    8   37 1
    26    8   53 1
    27    9   38 1
    28    9   39 1
    29   10   11 1
    30   10   40 1
    31   10   41 1
    32   10   53 1
    33   11   12 1
    34   11   42 1
    35   11   43 1
    36   12   13 1
    37   12   44 1
    38   12   45 1
    39   13   14 2
    40   13   15 1
    41   15   20 ar
    42   15   16 ar
    43   16   17 ar
    44   16   46 1
    45   17   18 ar
    46   17   47 1
    47   18   19 ar
    48   18   48 1
    49   19   20 ar
    50   19   49 1
    51   20   21 1
    52   21   50 1
    53   21   51 1
    54   21   52 1
    55   53   54 1
@<TRIPOS>MOLECULE
ZINC03609144
   38    41     0     0     0
SMALL
USER_CHARGES
(4-methoxyphenyl)BLAHol
@<TRIPOS>ATOM
      1 C1         -4.1515    5.8627    5.8531 C.3       1 <0>         0.0224
      2 O1         -3.7475    6.5875    4.6897 O.3       1 <0>        -0.3076
      3 C2         -3.4902    5.8625    3.5694 C.ar      1 <0>         0.1583
      4 C3         -3.0936    6.5019    2.4039 C.ar      1 <0>        -0.1411
      5 C4         -2.8321    5.7626    1.2665 C.ar      1 <0>        -0.0506
      6 C5         -2.9655    4.3865    1.2892 C.ar      1 <0>        -0.1853
      7 C6         -3.3661    3.7475    2.4480 C.ar      1 <0>        -0.0533
      8 C7         -3.6233    4.4817    3.5896 C.ar      1 <0>        -0.2042
      9 C8         -2.6797    3.5825    0.0471 C.3       1 <0>         0.4659
     10 C9         -1.2357    3.1516    0.0309 C.ar      1 <0>        -0.0787
     11 C10        -0.0487    3.8515    0.0228 C.ar      1 <0>        -0.0781
     12 C11         1.1552    3.1685    0.0076 C.ar      1 <0>        -0.0487
     13 C12         1.1714    1.7850    0.0005 C.ar      1 <0>        -0.1057
     14 C13        -0.0126    1.0758    0.0080 C.ar      1 <0>        -0.0350
     15 C14        -1.2281    1.7597    0.0174 C.ar      1 <0>        -0.1234
     16 C15        -2.6350    1.2707    0.0350 C.cat     1 <0>         0.5327
     17 C16        -4.7184    0.3412    0.0499 C.3       1 <0>         0.0686
     18 C17        -4.8721    1.8735    0.0602 C.3       1 <0>         0.0991
     19 N1         -3.4795    2.3516    0.0487 N.pl3     1 <0>        -0.5533
     20 O2         -2.9732    4.3579   -1.1168 O.3       1 <0>        -0.5365
     21 H1         -5.0705    5.3166    5.6400 H         1 <0>         0.0601
     22 H2         -3.3675    5.1591    6.1332 H         1 <0>         0.0604
     23 H3         -4.3246    6.5593    6.6733 H         1 <0>         0.1104
     24 H4         -2.9896    7.5767    2.3855 H         1 <0>         0.1461
     25 H5         -2.5230    6.2598    0.3590 H         1 <0>         0.1361
     26 H6         -3.4742    2.6730    2.4619 H         1 <0>         0.1165
     27 H7         -3.9319    3.9817    4.4958 H         1 <0>         0.1383
     28 H8         -0.0577    4.9315    0.0280 H         1 <0>         0.1494
     29 H9          2.0852    3.7175    0.0010 H         1 <0>         0.1549
     30 H10         2.1140    1.2581   -0.0114 H         1 <0>         0.1542
     31 H11         0.0021   -0.0041    0.0020 H         1 <0>         0.1464
     32 H12        -5.1759   -0.0830   -0.8440 H         1 <0>         0.1316
     33 H13        -5.1592   -0.0945    0.9466 H         1 <0>         0.1313
     34 H14        -5.3847    2.2034    0.9638 H         1 <0>         0.1220
     35 H15        -5.4026    2.2122   -0.8297 H         1 <0>         0.1250
     36 H16        -2.4578    5.1731   -1.1866 H         1 <0>         0.4115
     37 N2         -3.2648    0.1214    0.0349 N.pl3     1 <0>        -0.6132
     38 H17        -2.8093   -0.7988    0.0258 H         1 <0>         0.4735
@<TRIPOS>BOND
     1    1    2 1
     2    1   21 1
     3    1   22 1
     4    1   23 1
     5    2    3 1
     6    3    8 ar
     7    3    4 ar
     8    4    5 ar
     9    4   24 1
    10    5    6 ar
    11    5   25 1
    12    6    7 ar
    13    6    9 1
    14    7    8 ar
    15    7   26 1
    16    8   27 1
    17    9   19 1
    18    9   10 1
    19    9   20 1
    20   10   15 ar
    21   10   11 ar
    22   11   12 ar
    23   11   28 1
    24   12   13 ar
    25   12   29 1
    26   13   14 ar
    27   13   30 1
    28   14   15 ar
    29   14   31 1
    30   15   16 1
    31   16   19 1
    32   16   37 2
    33   17   18 1
    34   17   32 1
    35   17   33 1
    36   17   37 1
    37   18   19 1
    38   18   34 1
    39   18   35 1
    40   20   36 1
    41   37   38 1
@<TRIPOS>MOLECULE
ZINC03609145
   38    41     0     0     0
SMALL
USER_CHARGES
(4-methoxyphenyl)BLAHol
@<TRIPOS>ATOM
      1 C1         -3.6619    1.8448   -5.7305 C.3       1 <0>         0.0223
      2 O1         -4.1807    2.5230   -4.5846 O.3       1 <0>        -0.3075
      3 C2         -3.3984    2.5443   -3.4736 C.ar      1 <0>         0.1582
      4 C3         -3.8398    3.1853   -2.3252 C.ar      1 <0>        -0.1405
      5 C4         -3.0425    3.2060   -1.1972 C.ar      1 <0>        -0.0517
      6 C5         -1.8056    2.5882   -1.2121 C.ar      1 <0>        -0.1849
      7 C6         -1.3609    1.9536   -2.3573 C.ar      1 <0>        -0.0540
      8 C7         -2.1567    1.9257   -3.4861 C.ar      1 <0>        -0.2038
      9 C8         -0.9381    2.6119    0.0199 C.3       1 <0>         0.4660
     10 C9         -0.0784    3.8497    0.0235 C.ar      1 <0>        -0.0780
     11 C10        -0.3733    5.1957    0.0335 C.ar      1 <0>        -0.0784
     12 C11         0.6510    6.1267    0.0287 C.ar      1 <0>        -0.0485
     13 C12         1.9706    5.7108    0.0139 C.ar      1 <0>        -0.1059
     14 C13         2.2753    4.3648    0.0045 C.ar      1 <0>        -0.0349
     15 C14         1.2465    3.4230    0.0086 C.ar      1 <0>        -0.1236
     16 C15         1.2724    1.9337    0.0003 C.cat     1 <0>         0.5332
     17 C16         1.5059   -0.3357   -0.0141 C.3       1 <0>         0.0685
     18 C17         0.0021   -0.0041    0.0020 C.3       1 <0>         0.0987
     19 N1         -0.0179    1.4682    0.0101 N.pl3     1 <0>        -0.5536
     20 O2         -1.7517    2.5767    1.1941 O.3       1 <0>        -0.5364
     21 H1         -2.7280    2.3146   -6.0389 H         1 <0>         0.0604
     22 H2         -3.4779    0.7996   -5.4817 H         1 <0>         0.0602
     23 H3         -4.3841    1.9027   -6.5449 H         1 <0>         0.1105
     24 H4         -4.8059    3.6679   -2.3130 H         1 <0>         0.1463
     25 H5         -3.3858    3.7048   -0.3029 H         1 <0>         0.1358
     26 H6         -0.3924    1.4759   -2.3679 H         1 <0>         0.1168
     27 H7         -1.8106    1.4264   -4.3791 H         1 <0>         0.1384
     28 H8         -1.4022    5.5238    0.0455 H         1 <0>         0.1492
     29 H9          0.4194    7.1815    0.0369 H         1 <0>         0.1549
     30 H10         2.7652    6.4423    0.0102 H         1 <0>         0.1542
     31 H11         3.3059    4.0421   -0.0068 H         1 <0>         0.1464
     32 H12         1.7819   -0.9008    0.8762 H         1 <0>         0.1316
     33 H13         1.7644   -0.8932   -0.9144 H         1 <0>         0.1314
     34 H14        -0.4696   -0.4002    0.9013 H         1 <0>         0.1252
     35 H15        -0.4868   -0.3906   -0.8923 H         1 <0>         0.1219
     36 H16        -2.3815    3.3077    1.2583 H         1 <0>         0.4113
     37 N2          2.1681    0.9771   -0.0134 N.pl3     1 <0>        -0.6132
     38 H17         3.1844    1.1231   -0.0223 H         1 <0>         0.4735
@<TRIPOS>BOND
     1    1    2 1
     2    1   21 1
     3    1   22 1
     4    1   23 1
     5    2    3 1
     6    3    8 ar
     7    3    4 ar
     8    4    5 ar
     9    4   24 1
    10    5    6 ar
    11    5   25 1
    12    6    7 ar
    13    6    9 1
    14    7    8 ar
    15    7   26 1
    16    8   27 1
    17    9   19 1
    18    9   10 1
    19    9   20 1
    20   10   15 ar
    21   10   11 ar
    22   11   12 ar
    23   11   28 1
    24   12   13 ar
    25   12   29 1
    26   13   14 ar
    27   13   30 1
    28   14   15 ar
    29   14   31 1
    30   15   16 1
    31   16   19 1
    32   16   37 2
    33   17   18 1
    34   17   32 1
    35   17   33 1
    36   17   37 1
    37   18   19 1
    38   18   34 1
    39   18   35 1
    40   20   36 1
    41   37   38 1
@<TRIPOS>MOLECULE
ZINC03632416
   34    37     0     0     0
SMALL
USER_CHARGES
(5R)-5-phenyl-2,3-dihydroimidazo[1,2-b]isoindol-5-ol
@<TRIPOS>ATOM
      1 C1          1.7613   -3.8125   -3.5365 C.ar      1 <0>        -0.0929
      2 C2          2.2172   -4.4070   -2.3748 C.ar      1 <0>        -0.1055
      3 C3          2.4153   -3.6436   -1.2395 C.ar      1 <0>        -0.0935
      4 C4          2.1579   -2.2857   -1.2661 C.ar      1 <0>        -0.1434
      5 C5          1.6970   -1.6921   -2.4263 C.ar      1 <0>        -0.0977
      6 C6          1.5030   -2.4547   -3.5628 C.ar      1 <0>        -0.1106
      7 C7          2.3739   -1.4535   -0.0284 C.3       1 <0>         0.4605
      8 C8          3.7598   -0.8617   -0.0385 C.ar      1 <0>        -0.0794
      9 C9          5.0184   -1.4228   -0.0536 C.ar      1 <0>        -0.0777
     10 C10         6.1372   -0.6079   -0.0608 C.ar      1 <0>        -0.0488
     11 C11         5.9968    0.7686   -0.0525 C.ar      1 <0>        -0.1049
     12 C12         4.7402    1.3391   -0.0367 C.ar      1 <0>        -0.0347
     13 C13         3.6098    0.5222   -0.0296 C.ar      1 <0>        -0.1227
     14 C14         2.1566    0.8485   -0.0140 C.cat     1 <0>         0.5332
     15 C15        -0.0188    1.5358    0.0105 C.3       1 <0>         0.0688
     16 C16         0.0021   -0.0041    0.0020 C.3       1 <0>         0.0991
     17 N1          1.4399   -0.3211   -0.0134 N.pl3     1 <0>        -0.5534
     18 O1          2.1906   -2.2559    1.1397 O.3       1 <0>        -0.5361
     19 H1          1.6072   -4.4088   -4.4237 H         1 <0>         0.1357
     20 H2          2.4190   -5.4677   -2.3543 H         1 <0>         0.1380
     21 H3          2.7715   -4.1080   -0.3319 H         1 <0>         0.1291
     22 H4          1.4917   -0.6320   -2.4458 H         1 <0>         0.1139
     23 H5          1.1471   -1.9902   -4.4706 H         1 <0>         0.1333
     24 H6          5.1316   -2.4968   -0.0604 H         1 <0>         0.1490
     25 H7          7.1234   -1.0480   -0.0728 H         1 <0>         0.1551
     26 H8          6.8737    1.3989   -0.0580 H         1 <0>         0.1547
     27 H9          4.6327    2.4137   -0.0296 H         1 <0>         0.1469
     28 H10        -0.5220    1.9158   -0.8786 H         1 <0>         0.1319
     29 H11        -0.5049    1.9061    0.9131 H         1 <0>         0.1318
     30 H12        -0.4696   -0.4002    0.9013 H         1 <0>         0.1247
     31 H13        -0.4868   -0.3906   -0.8923 H         1 <0>         0.1226
     32 H14         2.7800   -3.0210    1.1878 H         1 <0>         0.4117
     33 N2          1.4006    1.9190   -0.0010 N.pl3     1 <0>        -0.6125
     34 H15         1.7490    2.8849    0.0009 H         1 <0>         0.4737
@<TRIPOS>BOND
     1    1    6 ar
     2    1    2 ar
     3    1   19 1
     4    2    3 ar
     5    2   20 1
     6    3    4 ar
     7    3   21 1
     8    4    5 ar
     9    4    7 1
    10    5    6 ar
    11    5   22 1
    12    6   23 1
    13    7   17 1
    14    7    8 1
    15    7   18 1
    16    8   13 ar
    17    8    9 ar
    18    9   10 ar
    19    9   24 1
    20   10   11 ar
    21   10   25 1
    22   11   12 ar
    23   11   26 1
    24   12   13 ar
    25   12   27 1
    26   13   14 1
    27   14   17 1
    28   14   33 2
    29   15   16 1
    30   15   28 1
    31   15   29 1
    32   15   33 1
    33   16   17 1
    34   16   30 1
    35   16   31 1
    36   18   32 1
    37   33   34 1
@<TRIPOS>MOLECULE
ZINC03632418
   34    37     0     0     0
SMALL
USER_CHARGES
(5S)-5-phenyl-2,3-dihydroimidazo[1,2-b]isoindol-5-ol
@<TRIPOS>ATOM
      1 C1         -3.5567    5.9003   -3.4323 C.ar      1 <0>        -0.0935
      2 C2         -3.0410    6.5130   -2.3055 C.ar      1 <0>        -0.1050
      3 C3         -2.7575    5.7630   -1.1795 C.ar      1 <0>        -0.0942
      4 C4         -2.9892    4.4002   -1.1803 C.ar      1 <0>        -0.1415
      5 C5         -3.4995    3.7866   -2.3090 C.ar      1 <0>        -0.0995
      6 C6         -3.7880    4.5374   -3.4333 C.ar      1 <0>        -0.1102
      7 C7         -2.6797    3.5825    0.0471 C.3       1 <0>         0.4609
      8 C8         -1.2357    3.1516    0.0309 C.ar      1 <0>        -0.0803
      9 C9         -0.0487    3.8515    0.0228 C.ar      1 <0>        -0.0783
     10 C10         1.1552    3.1685    0.0076 C.ar      1 <0>        -0.0486
     11 C11         1.1714    1.7850    0.0005 C.ar      1 <0>        -0.1049
     12 C12        -0.0126    1.0758    0.0080 C.ar      1 <0>        -0.0345
     13 C13        -1.2281    1.7597    0.0174 C.ar      1 <0>        -0.1224
     14 C14        -2.6350    1.2707    0.0350 C.cat     1 <0>         0.5337
     15 C15        -4.7184    0.3412    0.0499 C.3       1 <0>         0.0685
     16 C16        -4.8721    1.8735    0.0602 C.3       1 <0>         0.0987
     17 N1         -3.4795    2.3516    0.0487 N.pl3     1 <0>        -0.5538
     18 O1         -2.9507    4.3449    1.2249 O.3       1 <0>        -0.5360
     19 H1         -3.7786    6.4863   -4.3119 H         1 <0>         0.1357
     20 H2         -2.8600    7.5777   -2.3049 H         1 <0>         0.1380
     21 H3         -2.3546    6.2417   -0.2992 H         1 <0>         0.1285
     22 H4         -3.6765    2.7212   -2.3112 H         1 <0>         0.1144
     23 H5         -4.1905    4.0586   -4.3137 H         1 <0>         0.1333
     24 H6         -0.0577    4.9315    0.0280 H         1 <0>         0.1490
     25 H7          2.0852    3.7175    0.0017 H         1 <0>         0.1552
     26 H8          2.1140    1.2581   -0.0114 H         1 <0>         0.1548
     27 H9          0.0021   -0.0041    0.0020 H         1 <0>         0.1470
     28 H10        -5.1759   -0.0830   -0.8440 H         1 <0>         0.1320
     29 H11        -5.1592   -0.0945    0.9466 H         1 <0>         0.1320
     30 H12        -5.3847    2.2034    0.9638 H         1 <0>         0.1251
     31 H13        -5.4026    2.2122   -0.8297 H         1 <0>         0.1227
     32 H14        -2.4340    5.1594    1.2939 H         1 <0>         0.4117
     33 N2         -3.2648    0.1214    0.0349 N.pl3     1 <0>        -0.6124
     34 H15        -2.8093   -0.7988    0.0258 H         1 <0>         0.4738
@<TRIPOS>BOND
     1    1    6 ar
     2    1    2 ar
     3    1   19 1
     4    2    3 ar
     5    2   20 1
     6    3    4 ar
     7    3   21 1
     8    4    5 ar
     9    4    7 1
    10    5    6 ar
    11    5   22 1
    12    6   23 1
    13    7   17 1
    14    7    8 1
    15    7   18 1
    16    8   13 ar
    17    8    9 ar
    18    9   10 ar
    19    9   24 1
    20   10   11 ar
    21   10   25 1
    22   11   12 ar
    23   11   26 1
    24   12   13 ar
    25   12   27 1
    26   13   14 1
    27   14   17 1
    28   14   33 2
    29   15   16 1
    30   15   28 1
    31   15   29 1
    32   15   33 1
    33   16   17 1
    34   16   30 1
    35   16   31 1
    36   18   32 1
    37   33   34 1
@<TRIPOS>MOLECULE
ZINC00002275
   47    49     0     0     0
SMALL
USER_CHARGES
2-[(2-ethoxyphenoxy)-phenyl-methyl]morpholine
@<TRIPOS>ATOM
      1 C1          3.7658   -0.8597   -0.0076 C.3       1 <0>        -0.1535
      2 C2          2.3425   -0.3045   -0.0892 C.3       1 <0>         0.0523
      3 O1          2.3855    1.1235   -0.0552 O.3       1 <0>        -0.3045
      4 C3          1.1955    1.7787   -0.1193 C.ar      1 <0>         0.1159
      5 C4          0.0128    1.0628   -0.2128 C.ar      1 <0>        -0.1686
      6 C5         -1.1955    1.7306   -0.2836 C.ar      1 <0>        -0.1015
      7 C6         -1.2282    3.1124   -0.2507 C.ar      1 <0>        -0.1167
      8 C7         -0.0519    3.8326   -0.1575 C.ar      1 <0>        -0.1897
      9 C8          1.1630    3.1696   -0.0915 C.ar      1 <0>         0.0771
     10 O2          2.3211    3.8766   -0.0002 O.3       1 <0>        -0.2816
     11 C9          2.2230    5.2986   -0.1031 C.3       1 <0>         0.1406
     12 H1          1.2847    5.5637   -0.5904 H         1 <0>         0.1038
     13 C10         3.3775    5.8243   -0.9165 C.ar      1 <0>        -0.1062
     14 C11         4.6184    5.2220   -0.8249 C.ar      1 <0>        -0.0901
     15 C12         5.6763    5.7012   -1.5748 C.ar      1 <0>        -0.1212
     16 C13         5.4957    6.7889   -2.4086 C.ar      1 <0>        -0.1022
     17 C14         4.2562    7.3947   -2.4959 C.ar      1 <0>        -0.1196
     18 C15         3.1971    6.9122   -1.7500 C.ar      1 <0>        -0.0892
     19 C16         2.2627    5.9151    1.2966 C.3       1 <0>         0.0583
     20 H2          3.2001    5.6491    1.7850 H         1 <0>         0.1003
     21 C17         1.0869    5.3857    2.1220 C.3       1 <0>        -0.0472
     22 C18         0.9843    7.4991    3.2957 C.3       1 <0>        -0.0426
     23 C19         2.1611    8.0073    2.4585 C.3       1 <0>         0.0365
     24 O3          2.1645    7.3382    1.1945 O.3       1 <0>        -0.3419
     25 H3          4.3477   -0.4935   -0.8534 H         1 <0>         0.0688
     26 H4          4.2308   -0.5323    0.9223 H         1 <0>         0.0663
     27 H5          3.7330   -1.9489   -0.0335 H         1 <0>         0.0832
     28 H6          1.7605   -0.6707    0.7566 H         1 <0>         0.0639
     29 H7          1.8775   -0.6319   -1.0191 H         1 <0>         0.0657
     30 H8          0.0354   -0.0167   -0.2349 H         1 <0>         0.1409
     31 H9         -2.1164    1.1716   -0.3606 H         1 <0>         0.1340
     32 H10        -2.1745    3.6303   -0.3021 H         1 <0>         0.1318
     33 H11        -0.0799    4.9120   -0.1358 H         1 <0>         0.1335
     34 H12         4.7605    4.3748   -0.1704 H         1 <0>         0.1268
     35 H13         6.6448    5.2282   -1.5063 H         1 <0>         0.1275
     36 H14         6.3231    7.1656   -2.9916 H         1 <0>         0.1277
     37 H15         4.1153    8.2447   -3.1471 H         1 <0>         0.1286
     38 H16         2.2287    7.3855   -1.8182 H         1 <0>         0.1235
     39 H17         0.1521    5.6048    1.6060 H         1 <0>         0.1433
     40 H18         1.1885    4.3081    2.2507 H         1 <0>         0.1473
     41 H19         1.0110    7.9641    4.2811 H         1 <0>         0.1471
     42 H20         0.0479    7.7526    2.7988 H         1 <0>         0.1411
     43 H21         3.0952    7.8021    2.9814 H         1 <0>         0.0832
     44 H22         2.0593    9.0811    2.3017 H         1 <0>         0.1456
     45 N1          1.0862    6.0351    3.4467 N.4       1 <0>        -0.5141
     46 H23         1.9579    5.8045    3.9379 H         1 <0>         0.4340
     47 H24         0.2857    5.6936    3.9915 H         1 <0>         0.4415
@<TRIPOS>BOND
     1    1    2 1
     2    1   25 1
     3    1   26 1
     4    1   27 1
     5    2    3 1
     6    2   28 1
     7    2   29 1
     8    3    4 1
     9    4    9 ar
    10    4    5 ar
    11    5    6 ar
    12    5   30 1
    13    6    7 ar
    14    6   31 1
    15    7    8 ar
    16    7   32 1
    17    8    9 ar
    18    8   33 1
    19    9   10 1
    20   10   11 1
    21   11   12 1
    22   11   13 1
    23   11   19 1
    24   13   18 ar
    25   13   14 ar
    26   14   15 ar
    27   14   34 1
    28   15   16 ar
    29   15   35 1
    30   16   17 ar
    31   16   36 1
    32   17   18 ar
    33   17   37 1
    34   18   38 1
    35   19   20 1
    36   19   24 1
    37   19   21 1
    38   21   39 1
    39   21   40 1
    40   21   45 1
    41   22   23 1
    42   22   41 1
    43   22   42 1
    44   22   45 1
    45   23   24 1
    46   23   43 1
    47   23   44 1
    48   45   46 1
    49   45   47 1
@<TRIPOS>MOLECULE
ZINC00002284
   47    49     0     0     0
SMALL
USER_CHARGES
2-[(2-ethoxyphenoxy)-phenyl-methyl]morpholine
@<TRIPOS>ATOM
      1 C1         -0.2577    1.4416    0.0894 C.3       1 <0>        -0.1513
      2 C2          0.0072   -0.0609   -0.0264 C.3       1 <0>         0.0521
      3 O1          0.6878   -0.5163    1.1447 O.3       1 <0>        -0.3107
      4 C3          1.0003   -1.8386    1.2023 C.ar      1 <0>         0.1096
      5 C4          0.6592   -2.6789    0.1547 C.ar      1 <0>        -0.1731
      6 C5          0.9775   -4.0228    0.2148 C.ar      1 <0>        -0.1022
      7 C6          1.6362   -4.5316    1.3188 C.ar      1 <0>        -0.1164
      8 C7          1.9794   -3.6987    2.3674 C.ar      1 <0>        -0.1622
      9 C8          1.6683   -2.3495    2.3109 C.ar      1 <0>         0.0877
     10 O2          2.0102   -1.5277    3.3391 O.3       1 <0>        -0.2963
     11 C9          2.5815   -2.1403    4.4968 C.3       1 <0>         0.1428
     12 H1          2.1155   -3.1119    4.6611 H         1 <0>         0.0968
     13 C10         4.0630   -2.3224    4.2895 C.ar      1 <0>        -0.1274
     14 C11         4.7994   -1.3355    3.6613 C.ar      1 <0>        -0.0926
     15 C12         6.1592   -1.5006    3.4750 C.ar      1 <0>        -0.1196
     16 C13         6.7808   -2.6567    3.9084 C.ar      1 <0>        -0.1023
     17 C14         6.0436   -3.6456    4.5324 C.ar      1 <0>        -0.1182
     18 C15         4.6846   -3.4787    4.7225 C.ar      1 <0>        -0.0929
     19 C16         2.3431   -1.2476    5.7163 C.3       1 <0>         0.0824
     20 H2          2.8088   -0.2758    5.5526 H         1 <0>         0.1000
     21 C17         0.8381   -1.0639    5.9290 C.3       1 <0>        -0.0381
     22 C18         1.2113   -0.9294    8.3158 C.3       1 <0>        -0.0426
     23 C19         2.7125   -1.1145    8.0792 C.3       1 <0>         0.0381
     24 O3          2.9128   -1.8610    6.8759 O.3       1 <0>        -0.3431
     25 H3          0.6900    1.9710    0.1878 H         1 <0>         0.0669
     26 H4         -0.7768    1.7889   -0.8038 H         1 <0>         0.0825
     27 H5         -0.8748    1.6351    0.9668 H         1 <0>         0.0636
     28 H6         -0.9405   -0.5903   -0.1248 H         1 <0>         0.0637
     29 H7          0.6243   -0.2545   -0.9037 H         1 <0>         0.0650
     30 H8          0.1450   -2.2839   -0.7090 H         1 <0>         0.1386
     31 H9          0.7114   -4.6767   -0.6025 H         1 <0>         0.1326
     32 H10         1.8835   -5.5820    1.3619 H         1 <0>         0.1314
     33 H11         2.4939   -4.0986    3.2286 H         1 <0>         0.1347
     34 H12         4.3130   -0.4340    3.3190 H         1 <0>         0.1240
     35 H13         6.7352   -0.7278    2.9878 H         1 <0>         0.1266
     36 H14         7.8426   -2.7871    3.7599 H         1 <0>         0.1273
     37 H15         6.5293   -4.5489    4.8710 H         1 <0>         0.1280
     38 H16         4.1085   -4.2515    5.2097 H         1 <0>         0.1226
     39 H17         0.4100   -0.5448    5.0715 H         1 <0>         0.1536
     40 H18         0.3642   -2.0394    6.0385 H         1 <0>         0.1408
     41 H19         1.0557   -0.3121    9.2006 H         1 <0>         0.1467
     42 H20         0.7434   -1.9027    8.4634 H         1 <0>         0.1410
     43 H21         3.1891   -0.1387    7.9850 H         1 <0>         0.0834
     44 H22         3.1497   -1.6535    8.9197 H         1 <0>         0.1457
     45 N1          0.6093   -0.2620    7.1460 N.4       1 <0>        -0.5152
     46 H23        -0.4007   -0.1567    7.2979 H         1 <0>         0.4418
     47 H24         1.0359    0.6643    7.0270 H         1 <0>         0.4344
@<TRIPOS>BOND
     1    1    2 1
     2    1   25 1
     3    1   26 1
     4    1   27 1
     5    2    3 1
     6    2   28 1
     7    2   29 1
     8    3    4 1
     9    4    9 ar
    10    4    5 ar
    11    5    6 ar
    12    5   30 1
    13    6    7 ar
    14    6   31 1
    15    7    8 ar
    16    7   32 1
    17    8    9 ar
    18    8   33 1
    19    9   10 1
    20   10   11 1
    21   11   12 1
    22   11   13 1
    23   11   19 1
    24   13   18 ar
    25   13   14 ar
    26   14   15 ar
    27   14   34 1
    28   15   16 ar
    29   15   35 1
    30   16   17 ar
    31   16   36 1
    32   17   18 ar
    33   17   37 1
    34   18   38 1
    35   19   20 1
    36   19   24 1
    37   19   21 1
    38   21   39 1
    39   21   40 1
    40   21   45 1
    41   22   23 1
    42   22   41 1
    43   22   42 1
    44   22   45 1
    45   23   24 1
    46   23   43 1
    47   23   44 1
    48   45   46 1
    49   45   47 1
@<TRIPOS>MOLECULE
ZINC00006923
   47    49     0     0     0
SMALL
USER_CHARGES

@<TRIPOS>ATOM
      1 C1         -0.0241    1.4833   -0.0247 C.3       1 <0>        -0.1532
      2 C2          0.1908   -0.0289   -0.1147 C.3       1 <0>         0.0525
      3 O1          0.8097   -0.4943    1.0863 O.3       1 <0>        -0.3036
      4 C3          1.0721   -1.8261    1.1696 C.ar      1 <0>         0.1113
      5 C4          0.7463   -2.6652    0.1162 C.ar      1 <0>        -0.1682
      6 C5          1.0142   -4.0187    0.2023 C.ar      1 <0>        -0.1050
      7 C6          1.6066   -4.5383    1.3382 C.ar      1 <0>        -0.1148
      8 C7          1.9338   -3.7068    2.3930 C.ar      1 <0>        -0.1943
      9 C8          1.6737   -2.3482    2.3106 C.ar      1 <0>         0.0786
     10 O2          2.0003   -1.5279    3.3449 O.3       1 <0>        -0.2770
     11 C9          2.5664   -2.1407    4.5051 C.3       1 <0>         0.1393
     12 H1          3.0287   -3.0878    4.2269 H         1 <0>         0.1108
     13 C10         3.6090   -1.2277    5.0973 C.ar      1 <0>        -0.1106
     14 C11         3.3847    0.1353    5.1497 C.ar      1 <0>        -0.0647
     15 C12         4.3410    0.9727    5.6930 C.ar      1 <0>        -0.1241
     16 C13         5.5214    0.4471    6.1842 C.ar      1 <0>        -0.1007
     17 C14         5.7453   -0.9160    6.1326 C.ar      1 <0>        -0.1215
     18 C15         4.7872   -1.7539    5.5933 C.ar      1 <0>        -0.1060
     19 C16         1.4653   -2.3942    5.5367 C.3       1 <0>         0.0572
     20 H2          1.8791   -2.9409    6.3840 H         1 <0>         0.1027
     21 C17         0.3443   -3.2164    4.8961 C.3       1 <0>        -0.0524
     22 N1         -0.7378   -3.4087    5.8715 N.4       1 <0>        -0.5031
     23 C18        -1.2628   -2.0996    6.2834 C.3       1 <0>        -0.0459
     24 C19        -0.1388   -1.2794    6.9214 C.3       1 <0>         0.0331
     25 O3          0.9360   -1.1442    5.9874 O.3       1 <0>        -0.3322
     26 H3          0.9375    1.9799    0.1045 H         1 <0>         0.0691
     27 H4         -0.4962    1.8383   -0.9408 H         1 <0>         0.0828
     28 H5         -0.6668    1.7089    0.8262 H         1 <0>         0.0658
     29 H6         -0.7708   -0.5255   -0.2438 H         1 <0>         0.0627
     30 H7          0.8335   -0.2545   -0.9656 H         1 <0>         0.0654
     31 H8          0.2828   -2.2619   -0.7720 H         1 <0>         0.1399
     32 H9          0.7598   -4.6716   -0.6195 H         1 <0>         0.1333
     33 H10         1.8140   -5.5963    1.4018 H         1 <0>         0.1319
     34 H11         2.3962   -4.1153    3.2794 H         1 <0>         0.1343
     35 H12         2.4625    0.5460    4.7660 H         1 <0>         0.1304
     36 H13         4.1661    2.0377    5.7333 H         1 <0>         0.1270
     37 H14         6.2688    1.1014    6.6079 H         1 <0>         0.1274
     38 H15         6.6676   -1.3267    6.5160 H         1 <0>         0.1285
     39 H16         4.9605   -2.8193    5.5563 H         1 <0>         0.1222
     40 H17        -0.0417   -2.6880    4.0244 H         1 <0>         0.1463
     41 H18         0.7346   -4.1870    4.5900 H         1 <0>         0.1464
     42 H19        -1.4776   -3.9507    5.4508 H         1 <0>         0.4367
     43 H20        -1.6482   -1.5716    5.4112 H         1 <0>         0.1412
     44 H21        -2.0655   -2.2411    7.0071 H         1 <0>         0.1470
     45 H22        -0.5153   -0.2920    7.1887 H         1 <0>         0.1438
     46 H23         0.2196   -1.7877    7.8166 H         1 <0>         0.0815
     47 H24        -0.3801   -3.8969    6.6789 H         1 <0>         0.4281
@<TRIPOS>BOND
     1    1    2 1
     2    1   26 1
     3    1   27 1
     4    1   28 1
     5    2    3 1
     6    2   29 1
     7    2   30 1
     8    3    4 1
     9    4    9 ar
    10    4    5 ar
    11    5    6 ar
    12    5   31 1
    13    6    7 ar
    14    6   32 1
    15    7    8 ar
    16    7   33 1
    17    8    9 ar
    18    8   34 1
    19    9   10 1
    20   10   11 1
    21   11   12 1
    22   11   13 1
    23   11   19 1
    24   13   18 ar
    25   13   14 ar
    26   14   15 ar
    27   14   35 1
    28   15   16 ar
    29   15   36 1
    30   16   17 ar
    31   16   37 1
    32   17   18 ar
    33   17   38 1
    34   18   39 1
    35   19   20 1
    36   19   25 1
    37   19   21 1
    38   21   22 1
    39   21   40 1
    40   21   41 1
    41   22   23 1
    42   22   42 1
    43   22   47 1
    44   23   24 1
    45   23   43 1
    46   23   44 1
    47   24   25 1
    48   24   45 1
    49   24   46 1
@<TRIPOS>MOLECULE
ZINC03996032
   47    49     0     0     0
SMALL
USER_CHARGES

@<TRIPOS>ATOM
      1 C1         -0.0138    1.5481    0.0281 C.3       1 <0>        -0.1532
      2 C2         -0.0597    0.0189    0.0504 C.3       1 <0>         0.0524
      3 O1          0.6552   -0.4624    1.1903 O.3       1 <0>        -0.3033
      4 C3          0.7112   -1.8106    1.3598 C.ar      1 <0>         0.1140
      5 C4          0.0966   -2.6515    0.4460 C.ar      1 <0>        -0.1684
      6 C5          0.1549   -4.0217    0.6195 C.ar      1 <0>        -0.1038
      7 C6          0.8252   -4.5563    1.7041 C.ar      1 <0>        -0.1160
      8 C7          1.4402   -3.7230    2.6198 C.ar      1 <0>        -0.1938
      9 C8          1.3908   -2.3489    2.4483 C.ar      1 <0>         0.0788
     10 O2          2.0003   -1.5279    3.3449 O.3       1 <0>        -0.2779
     11 C9          2.5664   -2.1407    4.5051 C.3       1 <0>         0.1400
     12 H1          2.1003   -3.1126    4.6668 H         1 <0>         0.1107
     13 C10         2.3254   -1.2620    5.7055 C.ar      1 <0>        -0.1101
     14 C11         2.3352    0.1135    5.5684 C.ar      1 <0>        -0.0659
     15 C12         2.1141    0.9194    6.6695 C.ar      1 <0>        -0.1231
     16 C13         1.8827    0.3499    7.9076 C.ar      1 <0>        -0.1015
     17 C14         1.8719   -1.0256    8.0446 C.ar      1 <0>        -0.1210
     18 C15         2.0888   -1.8316    6.9427 C.ar      1 <0>        -0.1076
     19 C16         4.0717   -2.3245    4.3017 C.3       1 <0>         0.0579
     20 H2          4.4892   -2.8712    5.1473 H         1 <0>         0.1026
     21 C17         4.3210   -3.1101    3.0119 C.3       1 <0>        -0.0532
     22 N1          5.7680   -3.2348    2.7889 N.4       1 <0>        -0.5032
     23 C18         6.3615   -1.8958    2.6708 C.3       1 <0>        -0.0459
     24 C19         6.1084   -1.1125    3.9614 C.3       1 <0>         0.0331
     25 O3          4.7004   -1.0436    4.2037 O.3       1 <0>        -0.3318
     26 H3          1.0230    1.8797   -0.0267 H         1 <0>         0.0662
     27 H4         -0.5592    1.9152   -0.8414 H         1 <0>         0.0829
     28 H5         -0.4727    1.9387    0.9363 H         1 <0>         0.0689
     29 H6         -1.0966   -0.3127    0.1052 H         1 <0>         0.0653
     30 H7          0.3992   -0.3717   -0.8578 H         1 <0>         0.0631
     31 H8         -0.4283   -2.2364   -0.4017 H         1 <0>         0.1401
     32 H9         -0.3246   -4.6760   -0.0935 H         1 <0>         0.1334
     33 H10         0.8682   -5.6273    1.8364 H         1 <0>         0.1316
     34 H11         1.9628   -4.1432    3.4663 H         1 <0>         0.1320
     35 H12         2.5160    0.5584    4.6011 H         1 <0>         0.1303
     36 H13         2.1225    1.9941    6.5625 H         1 <0>         0.1270
     37 H14         1.7106    0.9796    8.7680 H         1 <0>         0.1273
     38 H15         1.6915   -1.4706    9.0120 H         1 <0>         0.1283
     39 H16         2.0767   -2.9063    7.0489 H         1 <0>         0.1218
     40 H17         3.8797   -4.1029    3.0997 H         1 <0>         0.1465
     41 H18         3.8678   -2.5835    2.1720 H         1 <0>         0.1472
     42 H19         6.1876   -3.7214    3.5670 H         1 <0>         0.4280
     43 H20         7.4350   -1.9872    2.5056 H         1 <0>         0.1470
     44 H21         5.9075   -1.3696    1.8311 H         1 <0>         0.1414
     45 H22         6.5963   -1.6173    4.7952 H         1 <0>         0.0815
     46 H23         6.5101   -0.1043    3.8599 H         1 <0>         0.1438
     47 H24         5.9341   -3.7526    1.9390 H         1 <0>         0.4368
@<TRIPOS>BOND
     1    1    2 1
     2    1   26 1
     3    1   27 1
     4    1   28 1
     5    2    3 1
     6    2   29 1
     7    2   30 1
     8    3    4 1
     9    4    9 ar
    10    4    5 ar
    11    5    6 ar
    12    5   31 1
    13    6    7 ar
    14    6   32 1
    15    7    8 ar
    16    7   33 1
    17    8    9 ar
    18    8   34 1
    19    9   10 1
    20   10   11 1
    21   11   12 1
    22   11   13 1
    23   11   19 1
    24   13   18 ar
    25   13   14 ar
    26   14   15 ar
    27   14   35 1
    28   15   16 ar
    29   15   36 1
    30   16   17 ar
    31   16   37 1
    32   17   18 ar
    33   17   38 1
    34   18   39 1
    35   19   20 1
    36   19   25 1
    37   19   21 1
    38   21   22 1
    39   21   40 1
    40   21   41 1
    41   22   23 1
    42   22   42 1
    43   22   47 1
    44   23   24 1
    45   23   43 1
    46   23   44 1
    47   24   25 1
    48   24   45 1
    49   24   46 1
@<TRIPOS>MOLECULE
ZINC00598412
   41    43     0     0     0
SMALL
USER_CHARGES
methyl 3-(4-iodophenyl)-8-methyl-8-azabicyclo[3.2.1]octane-4-carboxylate
@<TRIPOS>ATOM
      1 C1         -2.8162    0.7064    0.2330 C.3       1 <0>        -0.0354
      2 C2         -1.8992    2.8594    0.9108 C.3       1 <0>         0.0308
      3 H1         -2.7484    2.9369    1.5897 H         1 <0>         0.1599
      4 C3         -0.6427    2.2612    1.5901 C.3       1 <0>        -0.2081
      5 C4          0.0690    1.4715    0.4719 C.3       1 <0>        -0.2064
      6 C5         -0.8182    1.6649   -0.7794 C.3       1 <0>         0.0471
      7 H2         -0.8095    0.7905   -1.4300 H         1 <0>         0.1666
      8 C6         -0.3475    2.9402   -1.4968 C.3       1 <0>        -0.1060
      9 H3         -1.0824    3.2286   -2.2484 H         1 <0>         0.1432
     10 C7         -0.2003    4.0632   -0.4662 C.3       1 <0>        -0.0505
     11 H4          0.0312    4.9972   -0.9782 H         1 <0>         0.1354
     12 C8         -1.5071    4.2215    0.3162 C.3       1 <0>        -0.1427
     13 C9          0.9166    3.7240    0.4870 C.ar      1 <0>        -0.0784
     14 C10         0.8760    4.1828    1.7904 C.ar      1 <0>        -0.1008
     15 C11         1.8976    3.8671    2.6665 C.ar      1 <0>        -0.0964
     16 C12         2.9656    3.1013    2.2359 C.ar      1 <0>        -0.0843
     17 C13         3.0087    2.6473    0.9304 C.ar      1 <0>        -0.0914
     18 C14         1.9844    2.9589    0.0562 C.ar      1 <0>        -0.1387
     19 I1          4.5176    2.6286    3.5614 I         1 <0>        -0.0151
     20 C15         0.9820    2.6854   -2.1590 C.2       1 <0>         0.4848
     21 O1          1.3590    1.5519   -2.3406 O.2       1 <0>        -0.4969
     22 O2          1.7472    3.7175   -2.5472 O.3       1 <0>        -0.3510
     23 C16         3.0151    3.3974   -3.1783 C.3       1 <0>         0.0292
     24 H5         -2.2082    0.2491    1.0136 H         1 <0>         0.1188
     25 H6         -3.8040    0.9385    0.6310 H         1 <0>         0.1278
     26 H7         -2.9148    0.0142   -0.6032 H         1 <0>         0.1245
     27 H8         -0.9312    1.5932    2.4016 H         1 <0>         0.0950
     28 H9          0.0032    3.0560    1.9632 H         1 <0>         0.1683
     29 H10         0.1305    0.4152    0.7337 H         1 <0>         0.0979
     30 H11         1.0656    1.8767    0.2966 H         1 <0>         0.1638
     31 H12        -2.2941    4.5675   -0.3539 H         1 <0>         0.1039
     32 H13        -1.3682    4.9444    1.1201 H         1 <0>         0.1251
     33 H14         0.0439    4.7842    2.1255 H         1 <0>         0.1475
     34 H15         1.8634    4.2215    3.6861 H         1 <0>         0.1426
     35 H16         3.8425    2.0489    0.5939 H         1 <0>         0.1386
     36 H17         2.0180    2.6044   -0.9634 H         1 <0>         0.1537
     37 H18         3.5328    4.3197   -3.4421 H         1 <0>         0.1165
     38 H19         3.6297    2.8208   -2.4870 H         1 <0>         0.0707
     39 H20         2.8347    2.8114   -4.0795 H         1 <0>         0.0750
     40 N1         -2.1338    1.9607   -0.2230 N.4       1 <0>        -0.3896
     41 H21        -2.7182    2.4256   -0.9277 H         1 <0>         0.4251
@<TRIPOS>BOND
     1    1   24 1
     2    1   25 1
     3    1   26 1
     4    1   40 1
     5    2    3 1
     6    2   12 1
     7    2    4 1
     8    2   40 1
     9    4    5 1
    10    4   27 1
    11    4   28 1
    12    5    6 1
    13    5   29 1
    14    5   30 1
    15    6    7 1
    16    6    8 1
    17    6   40 1
    18    8    9 1
    19    8   10 1
    20    8   20 1
    21   10   11 1
    22   10   12 1
    23   10   13 1
    24   12   31 1
    25   12   32 1
    26   13   18 ar
    27   13   14 ar
    28   14   15 ar
    29   14   33 1
    30   15   16 ar
    31   15   34 1
    32   16   17 ar
    33   16   19 1
    34   17   18 ar
    35   17   35 1
    36   18   36 1
    37   20   21 2
    38   20   22 1
    39   22   23 1
    40   23   37 1
    41   23   38 1
    42   23   39 1
    43   40   41 1
@<TRIPOS>MOLECULE
ZINC28016618
   38    40     0     0     0
SMALL
USER_CHARGES
methyl (1S,2S,3S,5R)-3-(4-iodophenyl)-8-azabicyclo[3.2.1]octane-2-carboxylate
@<TRIPOS>ATOM
      1 C1          1.8402    3.9910    4.8111 C.3       1 <0>         0.0238
      2 O1          2.0930    4.7913    3.6262 O.3       1 <0>        -0.3646
      3 C2          2.2156    4.1345    2.4620 C.2       1 <0>         0.4740
      4 O2          2.1150    2.9308    2.4340 O.2       1 <0>        -0.4785
      5 C3          2.4786    4.8985    1.1900 C.3       1 <0>        -0.1019
      6 H1          3.5493    4.8123    0.9529 H         1 <0>         0.1456
      7 C4          2.0884    6.3725    1.3846 C.3       1 <0>         0.0447
      8 H2          2.5848    6.7983    2.2691 H         1 <0>         0.1644
      9 C5          0.5449    6.4513    1.4275 C.3       1 <0>        -0.2091
     10 C6          0.1169    6.6213   -0.0450 C.3       1 <0>        -0.2116
     11 C7          1.4405    6.6297   -0.8438 C.3       1 <0>         0.0504
     12 H3          1.4179    7.2615   -1.7440 H         1 <0>         0.1560
     13 N1          2.4567    7.0943    0.1376 N.4       1 <0>        -0.5440
     14 C8          1.7837    5.1744   -1.2005 C.3       1 <0>        -0.1421
     15 C9          1.6375    4.3088    0.0543 C.3       1 <0>        -0.0477
     16 H4          1.9710    3.2829   -0.1610 H         1 <0>         0.1330
     17 C10         0.1897    4.2702    0.4707 C.ar      1 <0>        -0.0773
     18 C11        -0.1421    4.1200    1.8043 C.ar      1 <0>        -0.1343
     19 C12        -1.4699    4.0845    2.1865 C.ar      1 <0>        -0.0934
     20 C13        -2.4666    4.1946    1.2342 C.ar      1 <0>        -0.0843
     21 C14        -2.1344    4.3501   -0.0992 C.ar      1 <0>        -0.0975
     22 C15        -0.8064    4.3855   -0.4809 C.ar      1 <0>        -0.1013
     23 I1         -4.4794    4.1329    1.8122 I         1 <0>        -0.0153
     24 H5          1.7621    4.6497    5.6886 H         1 <0>         0.1179
     25 H6          2.6679    3.2815    4.9577 H         1 <0>         0.0771
     26 H7          0.8992    3.4356    4.6845 H         1 <0>         0.0725
     27 H8          0.1425    5.5254    1.8644 H         1 <0>         0.1631
     28 H9          0.2385    7.3103    2.0425 H         1 <0>         0.0991
     29 H10        -0.5303    5.7815   -0.3380 H         1 <0>         0.1704
     30 H11        -0.4342    7.5663   -0.1599 H         1 <0>         0.0965
     31 H12         2.4048    8.1790    0.3129 H         1 <0>         0.4565
     32 H13         1.0966    4.8165   -1.9814 H         1 <0>         0.1251
     33 H14         2.8184    5.1217   -1.5702 H         1 <0>         0.1039
     34 H15         0.6364    4.0299    2.5475 H         1 <0>         0.1517
     35 H16        -1.7290    3.9664    3.2283 H         1 <0>         0.1380
     36 H17        -2.9126    4.4399   -0.8428 H         1 <0>         0.1427
     37 H18        -0.5470    4.5029   -1.5227 H         1 <0>         0.1472
     38 H19         3.4802    6.8190   -0.1568 H         1 <0>         0.4495
@<TRIPOS>BOND
     1    1    2 1
     2    1   24 1
     3    1   25 1
     4    1   26 1
     5    2    3 1
     6    3    4 2
     7    3    5 1
     8    5    6 1
     9    5   15 1
    10    5    7 1
    11    7    8 1
    12    7   13 1
    13    7    9 1
    14    9   10 1
    15    9   27 1
    16    9   28 1
    17   10   11 1
    18   10   29 1
    19   10   30 1
    20   11   12 1
    21   11   13 1
    22   11   14 1
    23   13   31 1
    24   13   38 1
    25   14   15 1
    26   14   32 1
    27   14   33 1
    28   15   16 1
    29   15   17 1
    30   17   22 ar
    31   17   18 ar
    32   18   19 ar
    33   18   34 1
    34   19   20 ar
    35   19   35 1
    36   20   21 ar
    37   20   23 1
    38   21   22 ar
    39   21   36 1
    40   22   37 1
@<TRIPOS>MOLECULE
ZINC33744856
   38    40     0     0     0
SMALL
USER_CHARGES
methyl (1S,2R,3S,5R)-3-(4-iodophenyl)-8-azabicyclo[3.2.1]octane-2-carboxylate
@<TRIPOS>ATOM
      1 C1          0.0478   -0.0270   -0.2278 C.3       1 <0>         0.0254
      2 O1          0.0155    1.4246   -0.2273 O.3       1 <0>        -0.3540
      3 C2          1.1936    2.0604   -0.1292 C.2       1 <0>         0.4359
      4 O2          2.2179    1.4249   -0.0465 O.2       1 <0>        -0.4738
      5 C3          1.2387    3.5667   -0.1222 C.3       1 <0>        -0.1024
      6 H1          0.8105    3.9274   -1.0691 H         1 <0>         0.1574
      7 C4          0.4301    4.1004    1.0712 C.3       1 <0>         0.0490
      8 H2         -0.6417    3.8854    0.9490 H         1 <0>         0.1634
      9 C5          0.7586    5.6027    1.2310 C.3       1 <0>        -0.2060
     10 C6          1.9909    5.6412    2.1586 C.3       1 <0>        -0.2086
     11 C7          2.2950    4.1587    2.4749 C.3       1 <0>         0.0486
     12 H3          2.7118    3.9864    3.4782 H         1 <0>         0.1532
     13 N1          0.9879    3.4718    2.2981 N.4       1 <0>        -0.5484
     14 C8          3.2517    3.6337    1.3924 C.3       1 <0>        -0.1495
     15 C9          2.6901    4.0358    0.0131 C.3       1 <0>        -0.0406
     16 H4          3.2926    3.5811   -0.7871 H         1 <0>         0.1283
     17 C10         2.7473    5.5353   -0.1252 C.ar      1 <0>        -0.0748
     18 C11         1.8189    6.1928   -0.9106 C.ar      1 <0>        -0.1102
     19 C12         1.8676    7.5687   -1.0331 C.ar      1 <0>        -0.0952
     20 C13         2.8518    8.2866   -0.3784 C.ar      1 <0>        -0.0852
     21 C14         3.7838    7.6281    0.4028 C.ar      1 <0>        -0.0963
     22 C15         3.7314    6.2526    0.5290 C.ar      1 <0>        -0.1018
     23 I1          2.9312   10.3713   -0.5706 I         1 <0>        -0.0163
     24 H5         -0.9774   -0.4165   -0.3128 H         1 <0>         0.1173
     25 H6          0.4991   -0.3840    0.7097 H         1 <0>         0.0711
     26 H7          0.6461   -0.3801   -1.0806 H         1 <0>         0.0765
     27 H8          0.9776    6.0371    0.2444 H         1 <0>         0.1692
     28 H9         -0.1031    6.1211    1.6767 H         1 <0>         0.1000
     29 H10         2.8284    6.1262    1.6357 H         1 <0>         0.1712
     30 H11         1.7476    6.2101    3.0681 H         1 <0>         0.0965
     31 H12         0.3050    3.6466    3.1425 H         1 <0>         0.4566
     32 H13         4.2481    4.0765    1.5376 H         1 <0>         0.1230
     33 H14         3.3230    2.5385    1.4659 H         1 <0>         0.1095
     34 H15         1.0528    5.6317   -1.4251 H         1 <0>         0.1424
     35 H16         1.1394    8.0828   -1.6429 H         1 <0>         0.1415
     36 H17         4.5523    8.1885    0.9144 H         1 <0>         0.1417
     37 H18         4.4592    5.7383    1.1390 H         1 <0>         0.1462
     38 H19         1.1016    2.3897    2.1365 H         1 <0>         0.4394
@<TRIPOS>BOND
     1    1    2 1
     2    1   24 1
     3    1   25 1
     4    1   26 1
     5    2    3 1
     6    3    4 2
     7    3    5 1
     8    5    6 1
     9    5   15 1
    10    5    7 1
    11    7    8 1
    12    7   13 1
    13    7    9 1
    14    9   10 1
    15    9   27 1
    16    9   28 1
    17   10   11 1
    18   10   29 1
    19   10   30 1
    20   11   12 1
    21   11   13 1
    22   11   14 1
    23   13   31 1
    24   13   38 1
    25   14   15 1
    26   14   32 1
    27   14   33 1
    28   15   16 1
    29   15   17 1
    30   17   22 ar
    31   17   18 ar
    32   18   19 ar
    33   18   34 1
    34   19   20 ar
    35   19   35 1
    36   20   21 ar
    37   20   23 1
    38   21   22 ar
    39   21   36 1
    40   22   37 1
@<TRIPOS>MOLECULE
ZINC03872907
   35    37     0     0     0
SMALL
USER_CHARGES
3-(3,4-dichlorophenyl)-N-methyl-indan-1-amine
@<TRIPOS>ATOM
      1 C1          1.8113    6.3768   -0.3145 C.3       1 <0>        -0.0482
      2 C2         -0.3439    5.3289    0.0315 C.3       1 <0>         0.0831
      3 H1         -0.2032    5.7353    1.0331 H         1 <0>         0.1537
      4 C3         -1.8220    5.4545   -0.3947 C.3       1 <0>        -0.1332
      5 C4         -2.4100    4.0967    0.0446 C.3       1 <0>        -0.0043
      6 H2         -2.8250    4.1716    1.0497 H         1 <0>         0.1169
      7 C5         -1.2410    3.1352    0.0293 C.ar      1 <0>        -0.0576
      8 C6         -0.0536    3.8434    0.0218 C.ar      1 <0>        -0.1646
      9 C7          1.1533    3.1650    0.0076 C.ar      1 <0>        -0.0961
     10 C8          1.1744    1.7837    0.0004 C.ar      1 <0>        -0.1074
     11 C9         -0.0126    1.0758    0.0080 C.ar      1 <0>        -0.0822
     12 C10        -1.2178    1.7509    0.0173 C.ar      1 <0>        -0.0906
     13 C11        -3.4715    3.6479   -0.9264 C.ar      1 <0>        -0.0777
     14 C12        -3.1518    3.4501   -2.2569 C.ar      1 <0>        -0.0969
     15 C13        -4.1231    3.0331   -3.1473 C.ar      1 <0>        -0.0937
     16 C14        -5.4187    2.8241   -2.7096 C.ar      1 <0>        -0.0266
     17 C15        -5.7402    3.0276   -1.3785 C.ar      1 <0>        -0.0278
     18 C16        -4.7654    3.4396   -0.4875 C.ar      1 <0>        -0.0882
     19 Cl1        -7.3654    2.7653   -0.8276 Cl        1 <0>        -0.0316
     20 Cl2        -6.6407    2.3066   -3.8289 Cl        1 <0>        -0.0322
     21 H3          2.4345    6.8903   -1.0467 H         1 <0>         0.1277
     22 H4          1.6393    7.0320    0.5394 H         1 <0>         0.1255
     23 H5          2.3153    5.4697    0.0192 H         1 <0>         0.1212
     24 H6         -2.3085    6.2758    0.1315 H         1 <0>         0.1156
     25 H7         -1.9044    5.5849   -1.4737 H         1 <0>         0.1010
     26 H8          2.0813    3.7175    0.0016 H         1 <0>         0.1254
     27 H9          2.1175    1.2576   -0.0114 H         1 <0>         0.1387
     28 H10         0.0021   -0.0041    0.0020 H         1 <0>         0.1393
     29 H11        -2.1450    1.1970    0.0187 H         1 <0>         0.1333
     30 H12        -2.1415    3.6177   -2.5998 H         1 <0>         0.1313
     31 H13        -3.8717    2.8748   -4.1856 H         1 <0>         0.1467
     32 H14        -5.0155    3.5989    0.5510 H         1 <0>         0.1461
     33 N1          0.5214    6.0264   -0.9384 N.4       1 <0>        -0.5172
     34 H15         0.6905    5.4127   -1.7440 H         1 <0>         0.4347
     35 H16         0.0537    6.8843   -1.2539 H         1 <0>         0.4357
@<TRIPOS>BOND
     1    1   21 1
     2    1   22 1
     3    1   23 1
     4    1   33 1
     5    2    3 1
     6    2    8 1
     7    2    4 1
     8    2   33 1
     9    4    5 1
    10    4   24 1
    11    4   25 1
    12    5    6 1
    13    5    7 1
    14    5   13 1
    15    7   12 ar
    16    7    8 ar
    17    8    9 ar
    18    9   10 ar
    19    9   26 1
    20   10   11 ar
    21   10   27 1
    22   11   12 ar
    23   11   28 1
    24   12   29 1
    25   13   18 ar
    26   13   14 ar
    27   14   15 ar
    28   14   30 1
    29   15   16 ar
    30   15   31 1
    31   16   17 ar
    32   16   20 1
    33   17   18 ar
    34   17   19 1
    35   18   32 1
    36   33   34 1
    37   33   35 1
@<TRIPOS>MOLECULE
ZINC04100364
   34    36     0     0     0
SMALL
USER_CHARGES
3-benzhydrylpyridine
@<TRIPOS>ATOM
      1 C1          1.3729    2.3615    0.7970 C.ar      1 <0>        -0.1192
      2 C2          0.3539    1.4937    0.4514 C.ar      1 <0>        -0.1185
      3 C3         -0.9153    1.9820    0.2032 C.ar      1 <0>        -0.1078
      4 C4         -1.1680    3.3368    0.3109 C.ar      1 <0>        -0.0744
      5 C5         -0.1489    4.2046    0.6565 C.ar      1 <0>        -0.1126
      6 C6          1.1215    3.7169    0.8995 C.ar      1 <0>        -0.1172
      7 C7         -2.5528    3.8685    0.0454 C.3       1 <0>         0.0362
      8 C8         -3.0203    3.3988   -1.3081 C.ar      1 <0>        -0.0783
      9 C9         -2.0977    3.1093   -2.2959 C.ar      1 <0>        -0.1070
     10 C10        -2.5263    2.6738   -3.5359 C.ar      1 <0>        -0.1187
     11 C11        -3.8780    2.5379   -3.7914 C.ar      1 <0>        -0.1193
     12 C12        -4.8009    2.8324   -2.8052 C.ar      1 <0>        -0.1186
     13 C13        -4.3720    3.2628   -1.5636 C.ar      1 <0>        -0.1097
     14 C14        -3.4967    3.3634    1.1061 C.ar      1 <0>        -0.1228
     15 C15        -3.8223    2.0170    1.1727 C.ar      1 <0>        -0.0619
     16 C16        -4.6911    1.5968    2.1679 C.ar      1 <0>        -0.1706
     17 C17        -5.2087    2.5288    3.0477 C.ar      1 <0>         0.0971
     18 N1         -4.8807    3.8023    2.9513 N.ar      1 <0>        -0.4815
     19 C18        -4.0532    4.2368    2.0209 C.ar      1 <0>         0.1042
     20 H1          2.3656    1.9805    0.9865 H         1 <0>         0.1221
     21 H2          0.5504    0.4348    0.3710 H         1 <0>         0.1223
     22 H3         -1.7104    1.3045   -0.0712 H         1 <0>         0.1201
     23 H4         -0.3453    5.2636    0.7363 H         1 <0>         0.1235
     24 H5          1.9177    4.3949    1.1692 H         1 <0>         0.1235
     25 H6         -2.5337    4.9581    0.0652 H         1 <0>         0.1020
     26 H7         -1.0418    3.2198   -2.0977 H         1 <0>         0.1238
     27 H8         -1.8053    2.4441   -4.3064 H         1 <0>         0.1223
     28 H9         -4.2131    2.2019   -4.7615 H         1 <0>         0.1216
     29 H10        -5.8570    2.7265   -3.0050 H         1 <0>         0.1219
     30 H11        -5.0931    3.4933   -0.7932 H         1 <0>         0.1189
     31 H12        -3.4059    1.3120    0.4685 H         1 <0>         0.1325
     32 H13        -4.9638    0.5552    2.2518 H         1 <0>         0.1356
     33 H14        -5.8900    2.2103    3.8229 H         1 <0>         0.1561
     34 H15        -3.8079    5.2875    1.9731 H         1 <0>         0.1545
@<TRIPOS>BOND
     1    1    6 ar
     2    1    2 ar
     3    1   20 1
     4    2    3 ar
     5    2   21 1
     6    3    4 ar
     7    3   22 1
     8    4    5 ar
     9    4    7 1
    10    5    6 ar
    11    5   23 1
    12    6   24 1
    13    7    8 1
    14    7   14 1
    15    7   25 1
    16    8   13 ar
    17    8    9 ar
    18    9   10 ar
    19    9   26 1
    20   10   11 ar
    21   10   27 1
    22   11   12 ar
    23   11   28 1
    24   12   13 ar
    25   12   29 1
    26   13   30 1
    27   14   19 ar
    28   14   15 ar
    29   15   16 ar
    30   15   31 1
    31   16   17 ar
    32   16   32 1
    33   17   18 ar
    34   17   33 1
    35   18   19 ar
    36   19   34 1
@<TRIPOS>MOLECULE
ZINC04521076
   34    36     0     0     0
SMALL
USER_CHARGES
4-benzhydrylpyridine
@<TRIPOS>ATOM
      1 C1          0.5964    4.2079   -0.3894 C.ar      1 <0>        -0.1182
      2 C2          1.6831    3.3535   -0.3906 C.ar      1 <0>        -0.1177
      3 C3          1.4908    1.9905   -0.2637 C.ar      1 <0>        -0.1123
      4 C4          0.2117    1.4819   -0.1360 C.ar      1 <0>        -0.0758
      5 C5         -0.8753    2.3358   -0.1405 C.ar      1 <0>        -0.1059
      6 C6         -0.6827    3.6993   -0.2622 C.ar      1 <0>        -0.1183
      7 C7          0.0021   -0.0041    0.0020 C.3       1 <0>         0.0304
      8 C8         -0.8210   -0.2831    1.2332 C.ar      1 <0>        -0.0788
      9 C9         -0.7887    0.5955    2.2999 C.ar      1 <0>        -0.1063
     10 C10        -1.5474    0.3421    3.4273 C.ar      1 <0>        -0.1186
     11 C11        -2.3307   -0.7951    3.4920 C.ar      1 <0>        -0.1185
     12 C12        -2.3587   -1.6766    2.4275 C.ar      1 <0>        -0.1182
     13 C13        -1.6040   -1.4204    1.2980 C.ar      1 <0>        -0.1091
     14 C14        -0.7204   -0.5245   -1.2138 C.ar      1 <0>        -0.0257
     15 C15        -2.0402   -0.1768   -1.4580 C.ar      1 <0>        -0.1602
     16 C16        -2.6690   -0.6700   -2.5856 C.ar      1 <0>         0.1000
     17 N1         -2.0313   -1.4694   -3.4183 N.ar      1 <0>        -0.4856
     18 C17        -0.7776   -1.8247   -3.2153 C.ar      1 <0>         0.1014
     19 C18        -0.0829   -1.3669   -2.1118 C.ar      1 <0>        -0.1688
     20 H1          0.7467    5.2729   -0.4883 H         1 <0>         0.1226
     21 H2          2.6823    3.7509   -0.4904 H         1 <0>         0.1237
     22 H3          2.3398    1.3230   -0.2646 H         1 <0>         0.1228
     23 H4         -1.8749    1.9380   -0.0452 H         1 <0>         0.1217
     24 H5         -1.5317    4.3668   -0.2616 H         1 <0>         0.1231
     25 H6          0.9683   -0.5007    0.0907 H         1 <0>         0.1019
     26 H7         -0.1735    1.4818    2.2511 H         1 <0>         0.1237
     27 H8         -1.5253    1.0306    4.2591 H         1 <0>         0.1226
     28 H9         -2.9206   -0.9950    4.3743 H         1 <0>         0.1221
     29 H10        -2.9704   -2.5652    2.4781 H         1 <0>         0.1224
     30 H11        -1.6258   -2.1091    0.4664 H         1 <0>         0.1190
     31 H12        -2.5692    0.4738   -0.7774 H         1 <0>         0.1334
     32 H13        -3.6958   -0.4013   -2.7848 H         1 <0>         0.1555
     33 H14        -0.2882   -2.4812   -3.9195 H         1 <0>         0.1566
     34 H15         0.9434   -1.6620   -1.9506 H         1 <0>         0.1352
@<TRIPOS>BOND
     1    1    6 ar
     2    1    2 ar
     3    1   20 1
     4    2    3 ar
     5    2   21 1
     6    3    4 ar
     7    3   22 1
     8    4    5 ar
     9    4    7 1
    10    5    6 ar
    11    5   23 1
    12    6   24 1
    13    7    8 1
    14    7   14 1
    15    7   25 1
    16    8   13 ar
    17    8    9 ar
    18    9   10 ar
    19    9   26 1
    20   10   11 ar
    21   10   27 1
    22   11   12 ar
    23   11   28 1
    24   12   13 ar
    25   12   29 1
    26   13   30 1
    27   14   19 ar
    28   14   15 ar
    29   15   16 ar
    30   15   31 1
    31   16   17 ar
    32   16   32 1
    33   17   18 ar
    34   18   19 ar
    35   18   33 1
    36   19   34 1
@<TRIPOS>MOLECULE
ZINC53739072
   37    38     0     0     0
SMALL
USER_CHARGES

@<TRIPOS>ATOM
      1 C1         -2.2369    1.3983    1.2040 C.3       1 <0>        -0.0492
      2 N1         -2.1776   -0.0694    1.1867 N.4       1 <0>        -0.5112
      3 C2         -1.3981   -0.5142    0.0237 C.3       1 <0>        -0.0101
      4 C3         -1.2450   -2.0360    0.0643 C.3       1 <0>        -0.0273
      5 C4         -0.4084   -2.4965   -1.1311 C.3       1 <0>        -0.1053
      6 C5         -1.1068   -2.0886   -2.4298 C.3       1 <0>        -0.1275
      7 C6         -2.4889   -2.7420   -2.4926 C.3       1 <0>        -0.1283
      8 C7         -3.3255   -2.2816   -1.2973 C.3       1 <0>        -0.1269
      9 C8         -2.6271   -2.6895    0.0015 C.3       1 <0>        -0.1296
     10 C9         -0.5571   -2.4378    1.3435 C.ar      1 <0>        -0.1116
     11 C10        -1.1577   -3.3466    2.1950 C.ar      1 <0>        -0.0996
     12 C11        -0.5281   -3.7156    3.3687 C.ar      1 <0>        -0.0888
     13 C12         0.7041   -3.1758    3.6919 C.ar      1 <0>        -0.0230
     14 C13         1.3057   -2.2662    2.8391 C.ar      1 <0>        -0.0292
     15 C14         0.6763   -1.9019    1.6621 C.ar      1 <0>        -0.1008
     16 Cl1         2.8515   -1.5876    3.2435 Cl        1 <0>        -0.0259
     17 Cl2         1.4951   -3.6385    5.1663 Cl        1 <0>        -0.0236
     18 H1         -2.8153    1.7285    2.0669 H         1 <0>         0.1283
     19 H2         -1.2264    1.8021    1.2679 H         1 <0>         0.1251
     20 H3         -2.7129    1.7536    0.2901 H         1 <0>         0.1260
     21 H4         -1.7369   -0.3982    2.0327 H         1 <0>         0.4270
     22 H5         -1.9143   -0.2253   -0.8918 H         1 <0>         0.1459
     23 H6         -0.4126   -0.0492    0.0475 H         1 <0>         0.1356
     24 H7          0.5762   -2.0310   -1.0863 H         1 <0>         0.0778
     25 H8         -0.2994   -3.5806   -1.1022 H         1 <0>         0.0877
     26 H9         -1.2159   -1.0044   -2.4587 H         1 <0>         0.0631
     27 H10        -0.5108   -2.4166   -3.2814 H         1 <0>         0.0798
     28 H11        -2.9864   -2.4514   -3.4179 H         1 <0>         0.0738
     29 H12        -2.3798   -3.8262   -2.4637 H         1 <0>         0.0726
     30 H13        -3.4345   -1.1974   -1.3261 H         1 <0>         0.0582
     31 H14        -4.3101   -2.7471   -1.3420 H         1 <0>         0.0809
     32 H15        -2.5180   -3.7736    0.0304 H         1 <0>         0.0973
     33 H16        -3.2231   -2.3614    0.8531 H         1 <0>         0.0637
     34 H17        -2.1196   -3.7681    1.9430 H         1 <0>         0.1490
     35 H18        -0.9981   -4.4250    4.0337 H         1 <0>         0.1523
     36 H19         1.1469   -1.1954    0.9944 H         1 <0>         0.1455
     37 H20        -3.1130   -0.4431    1.1275 H         1 <0>         0.4281
@<TRIPOS>BOND
     1    1    2 1
     2    1   18 1
     3    1   19 1
     4    1   20 1
     5    2    3 1
     6    2   21 1
     7    2   37 1
     8    3    4 1
     9    3   22 1
    10    3   23 1
    11    4    9 1
    12    4    5 1
    13    4   10 1
    14    5    6 1
    15    5   24 1
    16    5   25 1
    17    6    7 1
    18    6   26 1
    19    6   27 1
    20    7    8 1
    21    7   28 1
    22    7   29 1
    23    8    9 1
    24    8   30 1
    25    8   31 1
    26    9   32 1
    27    9   33 1
    28   10   15 ar
    29   10   11 ar
    30   11   12 ar
    31   11   34 1
    32   12   13 ar
    33   12   35 1
    34   13   14 ar
    35   13   17 1
    36   14   15 ar
    37   14   16 1
    38   15   36 1
@<TRIPOS>MOLECULE
ZINC36948412
   34    35     0     0     0
SMALL
USER_CHARGES

@<TRIPOS>ATOM
      1 C1         -0.3514    1.7550    0.3612 C.ar      1 <0>        -0.1036
      2 C2          0.6906    2.6611    0.4294 C.ar      1 <0>        -0.0890
      3 C3          1.9916    2.2349    0.2329 C.ar      1 <0>        -0.0229
      4 C4          2.2496    0.9004   -0.0322 C.ar      1 <0>        -0.0289
      5 C5          1.2060   -0.0047   -0.1001 C.ar      1 <0>        -0.0976
      6 C6         -0.0938    0.4231    0.0966 C.ar      1 <0>        -0.1128
      7 C7         -1.2306   -0.5636    0.0230 C.3       1 <0>        -0.0279
      8 C8         -2.1453   -0.2013   -1.1487 C.3       1 <0>        -0.1051
      9 C9         -3.2993   -1.2030   -1.2235 C.3       1 <0>        -0.1278
     10 C10        -2.7394   -2.6117   -1.4303 C.3       1 <0>        -0.1289
     11 C11        -1.8247   -2.9740   -0.2585 C.3       1 <0>        -0.1270
     12 C12        -0.6706   -1.9723   -0.1838 C.3       1 <0>        -0.1321
     13 C13        -2.0299   -0.5188    1.3268 C.3       1 <0>        -0.0074
     14 N1         -1.1465   -0.8451    2.4542 N.4       1 <0>        -0.6388
     15 Cl1         3.8820    0.3639   -0.2798 Cl        1 <0>        -0.0246
     16 Cl2         3.3003    3.3723    0.3178 Cl        1 <0>        -0.0230
     17 H1         -1.3667    2.0874    0.5192 H         1 <0>         0.1430
     18 H2          0.4886    3.7018    0.6359 H         1 <0>         0.1521
     19 H3          1.4065   -1.0455   -0.3072 H         1 <0>         0.1521
     20 H4         -2.5442    0.8023   -1.0014 H         1 <0>         0.0788
     21 H5         -1.5758   -0.2332   -2.0776 H         1 <0>         0.0873
     22 H6         -3.8688   -1.1711   -0.2946 H         1 <0>         0.0636
     23 H7         -3.9510   -0.9449   -2.0582 H         1 <0>         0.0799
     24 H8         -3.5616   -3.3253   -1.4835 H         1 <0>         0.0741
     25 H9         -2.1699   -2.6436   -2.3591 H         1 <0>         0.0725
     26 H10        -2.3942   -2.9421    0.6703 H         1 <0>         0.0591
     27 H11        -1.4257   -3.9776   -0.4058 H         1 <0>         0.0811
     28 H12        -0.1011   -2.0042   -1.1126 H         1 <0>         0.0969
     29 H13        -0.0189   -2.2304    0.6510 H         1 <0>         0.0641
     30 H14        -2.4426    0.4804    1.4659 H         1 <0>         0.1391
     31 H15        -2.8423   -1.2441    1.2800 H         1 <0>         0.1478
     32 H16        -1.6581   -0.7552    3.3193 H         1 <0>         0.4398
     33 H17        -0.8135   -1.7926    2.3573 H         1 <0>         0.4336
     34 H18        -0.3613   -0.2116    2.4605 H         1 <0>         0.4325
@<TRIPOS>BOND
     1    1    6 ar
     2    1    2 ar
     3    1   17 1
     4    2    3 ar
     5    2   18 1
     6    3    4 ar
     7    3   16 1
     8    4    5 ar
     9    4   15 1
    10    5    6 ar
    11    5   19 1
    12    6    7 1
    13    7   12 1
    14    7    8 1
    15    7   13 1
    16    8    9 1
    17    8   20 1
    18    8   21 1
    19    9   10 1
    20    9   22 1
    21    9   23 1
    22   10   11 1
    23   10   24 1
    24   10   25 1
    25   11   12 1
    26   11   26 1
    27   11   27 1
    28   12   28 1
    29   12   29 1
    30   13   14 1
    31   13   30 1
    32   13   31 1
    33   14   32 1
    34   14   33 1
    35   14   34 1
@<TRIPOS>MOLECULE
ZINC66080172
   40    41     0     0     0
SMALL
USER_CHARGES

@<TRIPOS>ATOM
      1 C1          1.3973   -2.7218    2.4095 C.3       1 <0>        -0.1908
      2 C2          0.7002   -2.1146    1.1903 C.3       1 <0>        -0.0115
      3 N1          1.3858   -2.5509   -0.0335 N.4       1 <0>        -0.5115
      4 C3          0.7165   -1.9680   -1.2040 C.3       1 <0>        -0.0089
      5 C4          1.4932   -2.3339   -2.4704 C.3       1 <0>        -0.0269
      6 C5          0.8127   -1.7024   -3.6865 C.3       1 <0>        -0.1051
      7 C6         -0.6206   -2.2261   -3.7980 C.3       1 <0>        -0.1275
      8 C7         -0.5965   -3.7473   -3.9598 C.3       1 <0>        -0.1281
      9 C8          0.0840   -4.3789   -2.7437 C.3       1 <0>        -0.1269
     10 C9          1.5173   -3.8552   -2.6322 C.3       1 <0>        -0.1296
     11 C10         2.9049   -1.8181   -2.3605 C.ar      1 <0>        -0.1111
     12 C11         3.9710   -2.6870   -2.5023 C.ar      1 <0>        -0.0997
     13 C12         5.2662   -2.2153   -2.4013 C.ar      1 <0>        -0.0888
     14 C13         5.4965   -0.8729   -2.1587 C.ar      1 <0>        -0.0230
     15 C14         4.4290   -0.0028   -2.0172 C.ar      1 <0>        -0.0291
     16 C15         3.1333   -0.4758   -2.1237 C.ar      1 <0>        -0.1008
     17 Cl1         4.7163    1.6819   -1.7121 Cl        1 <0>        -0.0261
     18 Cl2         7.1231   -0.2800   -2.0312 Cl        1 <0>        -0.0238
     19 H1          1.3644   -3.8093    2.3426 H         1 <0>         0.0812
     20 H2          2.4354   -2.3907    2.4368 H         1 <0>         0.0806
     21 H3          0.8886   -2.3981    3.3175 H         1 <0>         0.1092
     22 H4         -0.3379   -2.4458    1.1630 H         1 <0>         0.1330
     23 H5          0.7331   -1.0272    1.2572 H         1 <0>         0.1320
     24 H6          2.3468   -2.2444   -0.0081 H         1 <0>         0.4248
     25 H7         -0.2984   -2.3591   -1.2745 H         1 <0>         0.1457
     26 H8          0.6816   -0.8835   -1.0999 H         1 <0>         0.1353
     27 H9          0.7956   -0.6186   -3.5712 H         1 <0>         0.0778
     28 H10         1.3660   -1.9631   -4.5887 H         1 <0>         0.0878
     29 H11        -1.1739   -1.9654   -2.8958 H         1 <0>         0.0631
     30 H12        -1.1054   -1.7762   -4.6644 H         1 <0>         0.0798
     31 H13        -1.6176   -4.1204   -4.0393 H         1 <0>         0.0737
     32 H14        -0.0432   -4.0081   -4.8620 H         1 <0>         0.0726
     33 H15        -0.4693   -4.1181   -1.8415 H         1 <0>         0.0581
     34 H16         0.1011   -5.4626   -2.8590 H         1 <0>         0.0809
     35 H17         2.0706   -4.1159   -3.5344 H         1 <0>         0.0974
     36 H18         2.0021   -4.3051   -1.7658 H         1 <0>         0.0634
     37 H19         3.7916   -3.7350   -2.6917 H         1 <0>         0.1489
     38 H20         6.0985   -2.8947   -2.5115 H         1 <0>         0.1523
     39 H21         2.3001    0.2032   -2.0175 H         1 <0>         0.1455
     40 H22         1.3554   -3.5576   -0.0953 H         1 <0>         0.4257
@<TRIPOS>BOND
     1    1    2 1
     2    1   19 1
     3    1   20 1
     4    1   21 1
     5    2    3 1
     6    2   22 1
     7    2   23 1
     8    3    4 1
     9    3   24 1
    10    3   40 1
    11    4    5 1
    12    4   25 1
    13    4   26 1
    14    5   10 1
    15    5    6 1
    16    5   11 1
    17    6    7 1
    18    6   27 1
    19    6   28 1
    20    7    8 1
    21    7   29 1
    22    7   30 1
    23    8    9 1
    24    8   31 1
    25    8   32 1
    26    9   10 1
    27    9   33 1
    28    9   34 1
    29   10   35 1
    30   10   36 1
    31   11   16 ar
    32   11   12 ar
    33   12   13 ar
    34   12   37 1
    35   13   14 ar
    36   13   38 1
    37   14   15 ar
    38   14   18 1
    39   15   16 ar
    40   15   17 1
    41   16   39 1
@<TRIPOS>MOLECULE
ZINC66136520
   41    43     0     0     0
SMALL
USER_CHARGES

@<TRIPOS>ATOM
      1 C1          0.0188    1.3525    0.2192 C.ar      1 <0>        -0.0851
      2 C2          1.2081    2.0565    0.1850 C.ar      1 <0>        -0.0768
      3 C3          2.3919    1.4007   -0.1000 C.ar      1 <0>        -0.0280
      4 C4          2.3850    0.0388   -0.3510 C.ar      1 <0>        -0.0186
      5 C5          1.1943   -0.6639   -0.3164 C.ar      1 <0>        -0.1443
      6 C6          0.0119   -0.0068   -0.0314 C.ar      1 <0>        -0.0847
      7 C7         -1.2853   -0.7730    0.0067 C.3       1 <0>        -0.0287
      8 C8         -2.1787   -0.3209   -1.1501 C.3       1 <0>        -0.1052
      9 C9         -3.4957   -1.0988   -1.1115 C.3       1 <0>        -0.1281
     10 C10        -4.2069   -0.8319    0.2166 C.3       1 <0>        -0.1271
     11 C11        -3.3134   -1.2840    1.3734 C.3       1 <0>        -0.1283
     12 C12        -1.9964   -0.5061    1.3348 C.3       1 <0>        -0.1281
     13 C13        -0.9975   -2.2698   -0.1260 C.3       1 <0>        -0.0095
     14 N1         -0.2612   -2.7337    1.0575 N.4       1 <0>        -0.4866
     15 C14         0.1266   -4.1385    0.8734 C.3       1 <0>        -0.0904
     16 C15        -0.4672   -5.1675    1.8374 C.3       1 <0>        -0.1514
     17 C16         1.0073   -4.7752    1.9504 C.3       1 <0>        -0.1538
     18 Cl1         3.8700   -0.7858   -0.7095 Cl        1 <0>        -0.0270
     19 Cl2         3.8855    2.2843   -0.1437 Cl        1 <0>        -0.0226
     20 H1         -0.9049    1.8641    0.4462 H         1 <0>         0.1474
     21 H2          1.2127    3.1187    0.3805 H         1 <0>         0.1544
     22 H3          1.1882   -1.7260   -0.5124 H         1 <0>         0.1332
     23 H4         -2.3838    0.7454   -1.0556 H         1 <0>         0.0888
     24 H5         -1.6721   -0.5110   -2.0963 H         1 <0>         0.0799
     25 H6         -4.1322   -0.7768   -1.9356 H         1 <0>         0.0813
     26 H7         -3.2907   -2.1652   -1.2060 H         1 <0>         0.0636
     27 H8         -4.4119    0.2344    0.3111 H         1 <0>         0.0736
     28 H9         -5.1451   -1.3861    0.2441 H         1 <0>         0.0746
     29 H10        -3.8200   -1.0939    2.3196 H         1 <0>         0.0823
     30 H11        -3.1084   -2.3504    1.2789 H         1 <0>         0.0568
     31 H12        -1.3599   -0.8282    2.1589 H         1 <0>         0.0605
     32 H13        -2.2015    0.5603    1.4293 H         1 <0>         0.0985
     33 H14        -1.9380   -2.8150   -0.2055 H         1 <0>         0.1486
     34 H15        -0.3983   -2.4468   -1.0191 H         1 <0>         0.1382
     35 H16         0.5663   -2.1697    1.1812 H         1 <0>         0.4240
     36 H17         0.2889   -4.4501   -0.1584 H         1 <0>         0.1795
     37 H18        -1.1457   -4.8021    2.6083 H         1 <0>         0.1211
     38 H19        -0.6959   -6.1563    1.4399 H         1 <0>         0.1358
     39 H20         1.7487   -5.5060    1.6271 H         1 <0>         0.1365
     40 H21         1.2989   -4.1517    2.7956 H         1 <0>         0.1211
     41 H22        -0.8494   -2.6513    1.8732 H         1 <0>         0.4245
@<TRIPOS>BOND
     1    1    6 ar
     2    1    2 ar
     3    1   20 1
     4    2    3 ar
     5    2   21 1
     6    3    4 ar
     7    3   19 1
     8    4    5 ar
     9    4   18 1
    10    5    6 ar
    11    5   22 1
    12    6    7 1
    13    7   12 1
    14    7    8 1
    15    7   13 1
    16    8    9 1
    17    8   23 1
    18    8   24 1
    19    9   10 1
    20    9   25 1
    21    9   26 1
    22   10   11 1
    23   10   27 1
    24   10   28 1
    25   11   12 1
    26   11   29 1
    27   11   30 1
    28   12   31 1
    29   12   32 1
    30   13   14 1
    31   13   33 1
    32   13   34 1
    33   14   15 1
    34   14   35 1
    35   14   41 1
    36   15   17 1
    37   15   16 1
    38   15   36 1
    39   16   17 1
    40   16   37 1
    41   16   38 1
    42   17   39 1
    43   17   40 1
@<TRIPOS>MOLECULE
ZINC34977910
   37    38     0     0     0
SMALL
USER_CHARGES

@<TRIPOS>ATOM
      1 C1          0.7920   -0.7877   -1.9194 C.ar      1 <0>        -0.0966
      2 C2          2.0062   -0.3485   -2.4134 C.ar      1 <0>        -0.0879
      3 C3          2.7199    0.6210   -1.7326 C.ar      1 <0>        -0.0233
      4 C4          2.2175    1.1513   -0.5560 C.ar      1 <0>        -0.0286
      5 C5          1.0026    0.7107   -0.0633 C.ar      1 <0>        -0.1084
      6 C6          0.2906   -0.2585   -0.7451 C.ar      1 <0>        -0.1088
      7 C7         -1.0333   -0.7379   -0.2080 C.3       1 <0>        -0.0187
      8 C8         -1.2967   -0.0574    1.1489 C.3       1 <0>        -0.1292
      9 C9         -2.3795   -0.7751    1.9771 C.3       1 <0>        -0.1307
     10 C10        -3.5488   -1.2149    1.1383 C.3       1 <0>        -0.1329
     11 C11        -3.3178   -2.6768    0.7040 C.3       1 <0>        -0.1342
     12 C12        -2.4080   -2.7824   -0.4270 C.3       1 <0>        -0.1362
     13 C13        -1.0015   -2.2386   -0.1029 C.3       1 <0>        -0.1117
     14 C14        -2.1390   -0.3334   -1.1852 C.3       1 <0>        -0.0401
     15 N1         -2.3157    1.1245   -1.1485 N.4       1 <0>        -0.6420
     16 Cl1         3.1123    2.3678    0.3001 Cl        1 <0>        -0.0262
     17 Cl2         4.2449    1.1725   -2.3522 Cl        1 <0>        -0.0240
     18 H1          0.2329   -1.5415   -2.4537 H         1 <0>         0.1448
     19 H2          2.3977   -0.7627   -3.3308 H         1 <0>         0.1519
     20 H3          0.6104    1.1236    0.8544 H         1 <0>         0.1515
     21 H4         -0.3688   -0.0428    1.7208 H         1 <0>         0.0974
     22 H5         -1.6136    0.9703    0.9712 H         1 <0>         0.0521
     23 H6         -1.9373   -1.6507    2.4524 H         1 <0>         0.0807
     24 H7         -2.7369   -0.0979    2.7528 H         1 <0>         0.0768
     25 H8         -4.4656   -1.1474    1.7240 H         1 <0>         0.0802
     26 H9         -3.6266   -0.5789    0.2565 H         1 <0>         0.0549
     27 H10        -2.9025   -3.2332    1.5443 H         1 <0>         0.0752
     28 H11        -4.2755   -3.1189    0.4292 H         1 <0>         0.0719
     29 H12        -2.3234   -3.8302   -0.7154 H         1 <0>         0.0808
     30 H13        -2.8196   -2.2197   -1.2649 H         1 <0>         0.0666
     31 H14        -0.2805   -2.6403   -0.8150 H         1 <0>         0.0855
     32 H15        -0.7210   -2.5288    0.9096 H         1 <0>         0.0912
     33 H16        -1.8627   -0.6406   -2.1938 H         1 <0>         0.1387
     34 H17        -3.0718   -0.8198   -0.8999 H         1 <0>         0.1771
     35 H18        -2.7065    1.3936   -0.2580 H         1 <0>         0.4330
     36 H19        -1.4216    1.5749   -1.2734 H         1 <0>         0.4310
     37 H20        -2.9406    1.4062   -1.8889 H         1 <0>         0.4383
@<TRIPOS>BOND
     1    1    6 ar
     2    1    2 ar
     3    1   18 1
     4    2    3 ar
     5    2   19 1
     6    3    4 ar
     7    3   17 1
     8    4    5 ar
     9    4   16 1
    10    5    6 ar
    11    5   20 1
    12    6    7 1
    13    7   13 1
    14    7    8 1
    15    7   14 1
    16    8    9 1
    17    8   21 1
    18    8   22 1
    19    9   10 1
    20    9   23 1
    21    9   24 1
    22   10   11 1
    23   10   25 1
    24   10   26 1
    25   11   12 1
    26   11   27 1
    27   11   28 1
    28   12   13 1
    29   12   29 1
    30   12   30 1
    31   13   31 1
    32   13   32 1
    33   14   15 1
    34   14   33 1
    35   14   34 1
    36   15   35 1
    37   15   36 1
    38   15   37 1
@<TRIPOS>MOLECULE
ZINC53738308
   37    38     0     0     0
SMALL
USER_CHARGES

@<TRIPOS>ATOM
      1 C1         -2.2366    1.3984    1.2039 C.3       1 <0>        -0.0487
      2 N1         -2.1774   -0.0693    1.1866 N.4       1 <0>        -0.5107
      3 C2         -1.3980   -0.5142    0.0237 C.3       1 <0>        -0.0086
      4 C3         -1.2450   -2.0360    0.0643 C.3       1 <0>        -0.0278
      5 C4         -0.4084   -2.4966   -1.1311 C.3       1 <0>        -0.1041
      6 C5         -1.1069   -2.0887   -2.4298 C.3       1 <0>        -0.1278
      7 C6         -2.4889   -2.7420   -2.4926 C.3       1 <0>        -0.1280
      8 C7         -3.3255   -2.2815   -1.2972 C.3       1 <0>        -0.1271
      9 C8         -2.6271   -2.6894    0.0015 C.3       1 <0>        -0.1292
     10 C9         -0.5571   -2.4378    1.3435 C.ar      1 <0>        -0.1240
     11 C10        -1.1575   -3.3464    2.1950 C.ar      1 <0>        -0.1021
     12 C11        -0.5270   -3.7153    3.3683 C.ar      1 <0>        -0.1024
     13 C12         0.7051   -3.1750    3.6906 C.ar      1 <0>        -0.0237
     14 C13         1.3055   -2.2657    2.8381 C.ar      1 <0>        -0.1028
     15 C14         0.6767   -1.9019    1.6623 C.ar      1 <0>        -0.1059
     16 Cl1         1.4974   -3.6374    5.1645 Cl        1 <0>        -0.0456
     17 H1         -2.8149    1.7286    2.0668 H         1 <0>         0.1276
     18 H2         -1.2261    1.8021    1.2678 H         1 <0>         0.1246
     19 H3         -2.7127    1.7537    0.2900 H         1 <0>         0.1252
     20 H4         -1.7367   -0.3981    2.0327 H         1 <0>         0.4277
     21 H5         -1.9142   -0.2253   -0.8918 H         1 <0>         0.1434
     22 H6         -0.4124   -0.0492    0.0474 H         1 <0>         0.1348
     23 H7          0.5762   -2.0311   -1.0864 H         1 <0>         0.0769
     24 H8         -0.2995   -3.5807   -1.1022 H         1 <0>         0.0862
     25 H9         -1.2159   -1.0045   -2.4587 H         1 <0>         0.0625
     26 H10        -0.5109   -2.4168   -3.2814 H         1 <0>         0.0788
     27 H11        -2.9865   -2.4514   -3.4178 H         1 <0>         0.0731
     28 H12        -2.3800   -3.8262   -2.4637 H         1 <0>         0.0722
     29 H13        -3.4345   -1.1973   -1.3261 H         1 <0>         0.0576
     30 H14        -4.3101   -2.7469   -1.3419 H         1 <0>         0.0799
     31 H15        -2.5181   -3.7735    0.0304 H         1 <0>         0.0959
     32 H16        -3.2231   -2.3613    0.8531 H         1 <0>         0.0625
     33 H17        -2.1195   -3.7679    1.9434 H         1 <0>         0.1420
     34 H18        -0.9963   -4.4249    4.0336 H         1 <0>         0.1426
     35 H19         2.2672   -1.8433    3.0893 H         1 <0>         0.1422
     36 H20         1.1474   -1.1957    0.9944 H         1 <0>         0.1352
     37 H21        -3.1128   -0.4429    1.1275 H         1 <0>         0.4275
@<TRIPOS>BOND
     1    1    2 1
     2    1   17 1
     3    1   18 1
     4    1   19 1
     5    2    3 1
     6    2   20 1
     7    2   37 1
     8    3    4 1
     9    3   21 1
    10    3   22 1
    11    4    9 1
    12    4    5 1
    13    4   10 1
    14    5    6 1
    15    5   23 1
    16    5   24 1
    17    6    7 1
    18    6   25 1
    19    6   26 1
    20    7    8 1
    21    7   27 1
    22    7   28 1
    23    8    9 1
    24    8   29 1
    25    8   30 1
    26    9   31 1
    27    9   32 1
    28   10   15 ar
    29   10   11 ar
    30   11   12 ar
    31   11   33 1
    32   12   13 ar
    33   12   34 1
    34   13   14 ar
    35   13   16 1
    36   14   15 ar
    37   14   35 1
    38   15   36 1
@<TRIPOS>MOLECULE
ZINC53738098
   37    38     0     0     0
SMALL
USER_CHARGES

@<TRIPOS>ATOM
      1 C1         -0.3447    1.4966    1.8236 C.3       1 <0>        -0.0488
      2 N1         -0.1310    0.0676    2.0887 N.4       1 <0>        -0.5107
      3 C2          0.7237   -0.5027    1.0389 C.3       1 <0>        -0.0091
      4 C3          0.8436   -2.0142    1.2440 C.3       1 <0>        -0.0271
      5 C4          1.7169   -2.6112    0.1386 C.3       1 <0>        -0.1049
      6 C5          3.1086   -1.9775    0.1900 C.3       1 <0>        -0.1277
      7 C6          3.7469   -2.2584    1.5519 C.3       1 <0>        -0.1279
      8 C7          2.8735   -1.6614    2.6572 C.3       1 <0>        -0.1272
      9 C8          1.4819   -2.2950    2.6058 C.3       1 <0>        -0.1283
     10 C9         -0.5272   -2.6383    1.1933 C.ar      1 <0>        -0.1129
     11 C10        -1.0040   -3.3480    2.2799 C.ar      1 <0>        -0.1155
     12 C11        -2.2612   -3.9207    2.2342 C.ar      1 <0>        -0.0950
     13 C12        -3.0423   -3.7846    1.1018 C.ar      1 <0>        -0.0961
     14 C13        -2.5657   -3.0747    0.0144 C.ar      1 <0>        -0.0298
     15 C14        -1.3095   -2.4964    0.0631 C.ar      1 <0>        -0.1113
     16 Cl1        -3.5460   -2.9033   -1.4080 Cl        1 <0>        -0.0475
     17 H1         -0.8292    1.6179    0.8548 H         1 <0>         0.1247
     18 H2         -0.9789    1.9197    2.6026 H         1 <0>         0.1278
     19 H3          0.6155    2.0124    1.8168 H         1 <0>         0.1254
     20 H4          0.3175   -0.0447    2.9855 H         1 <0>         0.4276
     21 H5          0.2826   -0.3024    0.0625 H         1 <0>         0.1346
     22 H6          1.7137   -0.0495    1.0902 H         1 <0>         0.1441
     23 H7          1.8023   -3.6879    0.2847 H         1 <0>         0.0867
     24 H8          1.2622   -2.4111   -0.8316 H         1 <0>         0.0770
     25 H9          3.7308   -2.4028   -0.5975 H         1 <0>         0.0791
     26 H10         3.0232   -0.9007    0.0439 H         1 <0>         0.0626
     27 H11         3.8323   -3.3352    1.6980 H         1 <0>         0.0723
     28 H12         4.7383   -1.8070    1.5885 H         1 <0>         0.0733
     29 H13         3.3283   -1.8615    3.6274 H         1 <0>         0.0802
     30 H14         2.7881   -0.5846    2.5111 H         1 <0>         0.0576
     31 H15         0.8597   -1.8698    3.3933 H         1 <0>         0.0627
     32 H16         1.5673   -3.3718    2.7519 H         1 <0>         0.0962
     33 H17        -0.3939   -3.4552    3.1646 H         1 <0>         0.1393
     34 H18        -2.6331   -4.4749    3.0833 H         1 <0>         0.1419
     35 H19        -4.0242   -4.2327    1.0660 H         1 <0>         0.1425
     36 H20        -0.9387   -1.9383   -0.7839 H         1 <0>         0.1367
     37 H21        -1.0199   -0.4099    2.0950 H         1 <0>         0.4275
@<TRIPOS>BOND
     1    1    2 1
     2    1   17 1
     3    1   18 1
     4    1   19 1
     5    2    3 1
     6    2   20 1
     7    2   37 1
     8    3    4 1
     9    3   21 1
    10    3   22 1
    11    4    9 1
    12    4    5 1
    13    4   10 1
    14    5    6 1
    15    5   23 1
    16    5   24 1
    17    6    7 1
    18    6   25 1
    19    6   26 1
    20    7    8 1
    21    7   27 1
    22    7   28 1
    23    8    9 1
    24    8   29 1
    25    8   30 1
    26    9   31 1
    27    9   32 1
    28   10   15 ar
    29   10   11 ar
    30   11   12 ar
    31   11   33 1
    32   12   13 ar
    33   12   34 1
    34   13   14 ar
    35   13   35 1
    36   14   15 ar
    37   14   16 1
    38   15   36 1
@<TRIPOS>MOLECULE
ZINC11885008
   40    42     0     0     0
SMALL
USER_CHARGES
[1-(1-naphthyl)cyclohexyl]methanamine
@<TRIPOS>ATOM
      1 C1         -0.0009   -3.0383   -3.3004 C.ar      1 <0>        -0.1141
      2 C2         -1.2422   -2.4044   -3.2974 C.ar      1 <0>        -0.0902
      3 C3         -1.6436   -1.6547   -2.2349 C.ar      1 <0>        -0.1534
      4 C4         -0.7963   -1.5156   -1.1222 C.ar      1 <0>        -0.0437
      5 C5          0.4661   -2.1603   -1.1254 C.ar      1 <0>        -0.0535
      6 C6          0.8459   -2.9261   -2.2410 C.ar      1 <0>        -0.0914
      7 C7          1.3132   -2.0216   -0.0131 C.ar      1 <0>        -0.0799
      8 C8          0.9116   -1.2722    1.0500 C.ar      1 <0>        -0.1236
      9 C9         -0.3293   -0.6385    1.0531 C.ar      1 <0>        -0.0968
     10 C10        -1.1761   -0.7505   -0.0068 C.ar      1 <0>        -0.1251
     11 C11        -2.5142   -0.0577    0.0164 C.3       1 <0>        -0.0254
     12 C12        -2.6733    0.7003    1.3359 C.3       1 <0>        -0.1255
     13 C13        -4.0319    1.4037    1.3594 C.3       1 <0>        -0.1270
     14 C14        -5.1468    0.3639    1.2309 C.3       1 <0>        -0.1278
     15 C15        -4.9877   -0.3941   -0.0886 C.3       1 <0>        -0.1279
     16 C16        -3.6292   -1.0975   -0.1121 C.3       1 <0>        -0.1162
     17 C17        -2.5987    0.9276   -1.1511 C.3       1 <0>        -0.0147
     18 H1          0.2932   -3.6278   -4.1563 H         1 <0>         0.1316
     19 H2         -1.8954   -2.5100   -4.1509 H         1 <0>         0.1299
     20 H3         -2.6102   -1.1729   -2.2448 H         1 <0>         0.1367
     21 H4          1.8048   -3.4227   -2.2575 H         1 <0>         0.1349
     22 H5          2.2781   -2.5067   -0.0017 H         1 <0>         0.1353
     23 H6          1.5648   -1.1669    1.9037 H         1 <0>         0.1322
     24 H7         -0.6236   -0.0495    1.9092 H         1 <0>         0.1334
     25 H8         -2.6131   -0.0016    2.1676 H         1 <0>         0.0942
     26 H9         -1.8790    1.4411    1.4274 H         1 <0>         0.0630
     27 H10        -4.0920    2.1056    0.5276 H         1 <0>         0.0595
     28 H11        -4.1452    1.9437    2.2994 H         1 <0>         0.0790
     29 H12        -6.1147    0.8649    1.2477 H         1 <0>         0.0727
     30 H13        -5.0866   -0.3380    2.0627 H         1 <0>         0.0714
     31 H14        -5.0479    0.3078   -0.9203 H         1 <0>         0.0624
     32 H15        -5.7820   -1.1349   -0.1801 H         1 <0>         0.0782
     33 H16        -3.5158   -1.6375   -1.0521 H         1 <0>         0.0854
     34 H17        -3.5690   -1.7994    0.7197 H         1 <0>         0.0856
     35 H18        -2.5829    0.3779   -2.0923 H         1 <0>         0.1400
     36 H19        -3.5248    1.4979   -1.0790 H         1 <0>         0.1458
     37 H20        -1.5234    2.5513   -1.8188 H         1 <0>         0.4392
     38 H21        -1.3664    2.2662   -0.1879 H         1 <0>         0.4327
     39 N1         -1.4343    1.8294   -1.1056 N.4       1 <0>        -0.6446
     40 H22        -0.5804    1.2873   -1.2826 H         1 <0>         0.4378
@<TRIPOS>BOND
     1    1    6 ar
     2    1    2 ar
     3    1   18 1
     4    2    3 ar
     5    2   19 1
     6    3    4 ar
     7    3   20 1
     8    4   10 ar
     9    4    5 ar
    10    5    6 ar
    11    5    7 ar
    12    6   21 1
    13    7    8 ar
    14    7   22 1
    15    8    9 ar
    16    8   23 1
    17    9   10 ar
    18    9   24 1
    19   10   11 1
    20   11   16 1
    21   11   12 1
    22   11   17 1
    23   12   13 1
    24   12   25 1
    25   12   26 1
    26   13   14 1
    27   13   27 1
    28   13   28 1
    29   14   15 1
    30   14   29 1
    31   14   30 1
    32   15   16 1
    33   15   31 1
    34   15   32 1
    35   16   33 1
    36   16   34 1
    37   17   35 1
    38   17   36 1
    39   17   39 1
    40   37   39 1
    41   38   39 1
    42   39   40 1
@<TRIPOS>MOLECULE
ZINC66075943
   44    46     0     0     0
SMALL
USER_CHARGES

@<TRIPOS>ATOM
      1 C1         -0.3005    0.7922    0.4953 C.ar      1 <0>        -0.1047
      2 C2          0.8261    1.5941    0.4686 C.ar      1 <0>        -0.1169
      3 C3          2.0798    1.0244    0.3750 C.ar      1 <0>        -0.1046
      4 C4          2.2092   -0.3613    0.3074 C.ar      1 <0>        -0.0710
      5 C5          1.0708   -1.1644    0.3347 C.ar      1 <0>        -0.1043
      6 C6         -0.1779   -0.5840    0.4284 C.ar      1 <0>        -0.1167
      7 C7          3.5544   -0.9795    0.2062 C.ar      1 <0>        -0.0139
      8 C8          4.6930   -0.1767    0.1843 C.ar      1 <0>        -0.1080
      9 C9          5.9417   -0.7571    0.0906 C.ar      1 <0>        -0.1120
     10 C10         6.0640   -2.1329    0.0180 C.ar      1 <0>        -0.1329
     11 C11         4.9370   -2.9347    0.0389 C.ar      1 <0>        -0.1088
     12 C12         3.6837   -2.3652    0.1386 C.ar      1 <0>        -0.1082
     13 C13         7.4302   -2.7608   -0.0847 C.3       1 <0>        -0.0270
     14 C14         8.0918   -2.3309   -1.3956 C.3       1 <0>        -0.1042
     15 C15         9.4787   -2.9683   -1.4999 C.3       1 <0>        -0.1282
     16 C16         9.3431   -4.4920   -1.4728 C.3       1 <0>        -0.1280
     17 C17         8.6815   -4.9220   -0.1620 C.3       1 <0>        -0.1278
     18 C18         7.2945   -4.2845   -0.0577 C.3       1 <0>        -0.1285
     19 C19         8.2912   -2.3044    1.0948 C.3       1 <0>        -0.0068
     20 N1          7.6443   -2.6967    2.3540 N.4       1 <0>        -0.6376
     21 H1         -1.2793    1.2419    0.5731 H         1 <0>         0.1289
     22 H2          0.7247    2.6681    0.5207 H         1 <0>         0.1292
     23 H3          2.9588    1.6515    0.3539 H         1 <0>         0.1252
     24 H4          1.1654   -2.2389    0.2822 H         1 <0>         0.1254
     25 H5         -1.0609   -1.2055    0.4499 H         1 <0>         0.1294
     26 H6          4.5986    0.8977    0.2402 H         1 <0>         0.1332
     27 H7          6.8249   -0.1358    0.0735 H         1 <0>         0.1276
     28 H8          5.0382   -4.0084   -0.0184 H         1 <0>         0.1339
     29 H9          2.8047   -2.9923    0.1593 H         1 <0>         0.1333
     30 H10         7.4784   -2.6560   -2.2359 H         1 <0>         0.0851
     31 H11         8.1884   -1.2453   -1.4149 H         1 <0>         0.0764
     32 H12         9.9501   -2.6620   -2.4338 H         1 <0>         0.0780
     33 H13        10.0922   -2.6432   -0.6596 H         1 <0>         0.0625
     34 H14         8.7297   -4.8172   -2.3131 H         1 <0>         0.0716
     35 H15        10.3312   -4.9461   -1.5471 H         1 <0>         0.0726
     36 H16         8.5848   -6.0075   -0.1427 H         1 <0>         0.0790
     37 H17         9.2949   -4.5968    0.6783 H         1 <0>         0.0578
     38 H18         6.8232   -4.5908    0.8762 H         1 <0>         0.0623
     39 H19         6.6811   -4.6097   -0.8980 H         1 <0>         0.0948
     40 H20         9.2736   -2.7721    1.0299 H         1 <0>         0.1438
     41 H21         8.4022   -1.2205    1.0656 H         1 <0>         0.1364
     42 H22         6.7022   -2.3359    2.3747 H         1 <0>         0.4337
     43 H23         7.6205   -3.7032    2.4206 H         1 <0>         0.4323
     44 H24         8.1657   -2.3203    3.1315 H         1 <0>         0.4376
@<TRIPOS>BOND
     1    1    6 ar
     2    1    2 ar
     3    1   21 1
     4    2    3 ar
     5    2   22 1
     6    3    4 ar
     7    3   23 1
     8    4    5 ar
     9    4    7 1
    10    5    6 ar
    11    5   24 1
    12    6   25 1
    13    7   12 ar
    14    7    8 ar
    15    8    9 ar
    16    8   26 1
    17    9   10 ar
    18    9   27 1
    19   10   11 ar
    20   10   13 1
    21   11   12 ar
    22   11   28 1
    23   12   29 1
    24   13   18 1
    25   13   14 1
    26   13   19 1
    27   14   15 1
    28   14   30 1
    29   14   31 1
    30   15   16 1
    31   15   32 1
    32   15   33 1
    33   16   17 1
    34   16   34 1
    35   16   35 1
    36   17   18 1
    37   17   36 1
    38   17   37 1
    39   18   38 1
    40   18   39 1
    41   19   20 1
    42   19   40 1
    43   19   41 1
    44   20   42 1
    45   20   43 1
    46   20   44 1
@<TRIPOS>MOLECULE
ZINC00001267
   37    38     0     0     0
SMALL
USER_CHARGES

@<TRIPOS>ATOM
      1 C1         -0.6005    1.5605    0.3274 C.3       1 <0>         0.0284
      2 O1         -0.3541    0.1564    0.2280 O.3       1 <0>        -0.3500
      3 C2         -1.4258   -0.6435    0.1121 C.2       1 <0>         0.4616
      4 O2         -2.5361   -0.1674    0.0956 O.2       1 <0>        -0.4626
      5 C3         -1.2439   -2.1355    0.0025 C.3       1 <0>        -0.0499
      6 H1         -0.6473   -2.3649   -0.8804 H         1 <0>         0.1389
      7 C4         -2.5921   -2.7985   -0.1161 C.ar      1 <0>        -0.1407
      8 C5         -3.4835   -2.7455    0.9391 C.ar      1 <0>        -0.0975
      9 C6         -4.7201   -3.3537    0.8304 C.ar      1 <0>        -0.1113
     10 C7         -5.0655   -4.0144   -0.3337 C.ar      1 <0>        -0.0906
     11 C8         -4.1744   -4.0665   -1.3892 C.ar      1 <0>        -0.1119
     12 C9         -2.9394   -3.4547   -1.2821 C.ar      1 <0>        -0.0980
     13 C10        -0.5281   -2.6551    1.2509 C.3       1 <0>         0.0397
     14 H2         -1.0726   -2.3374    2.1401 H         1 <0>         0.1433
     15 C11         0.8934   -2.0905    1.2951 C.3       1 <0>        -0.1499
     16 C12         1.6057   -2.6130    2.5461 C.3       1 <0>        -0.1367
     17 C13         1.5897   -4.1442    2.5286 C.3       1 <0>        -0.1486
     18 C14         0.1424   -4.6327    2.4386 C.3       1 <0>        -0.0066
     19 N1         -0.4743   -4.1214    1.2086 N.4       1 <0>        -0.5006
     20 H3          0.3479    2.0904    0.4159 H         1 <0>         0.1128
     21 H4         -1.1253    1.9015   -0.5650 H         1 <0>         0.0688
     22 H5         -1.2119    1.7607    1.2073 H         1 <0>         0.0674
     23 H6         -3.2137   -2.2294    1.8486 H         1 <0>         0.1229
     24 H7         -5.4163   -3.3129    1.6550 H         1 <0>         0.1342
     25 H8         -6.0314   -4.4901   -0.4184 H         1 <0>         0.1348
     26 H9         -4.4441   -4.5830   -2.2986 H         1 <0>         0.1356
     27 H10        -2.2447   -3.4923   -2.1081 H         1 <0>         0.1315
     28 H11         1.4390   -2.4079    0.4064 H         1 <0>         0.0946
     29 H12         0.8518   -1.0018    1.3279 H         1 <0>         0.1304
     30 H13         2.6366   -2.2593    2.5530 H         1 <0>         0.0986
     31 H14         1.0897   -2.2532    3.4363 H         1 <0>         0.0821
     32 H15         2.1496   -4.5042    1.6655 H         1 <0>         0.0903
     33 H16         2.0457   -4.5234    3.4431 H         1 <0>         0.1143
     34 H17         0.1273   -5.7225    2.4261 H         1 <0>         0.1370
     35 H18        -0.4166   -4.2724    3.3022 H         1 <0>         0.1311
     36 H19        -1.4102   -4.4890    1.1253 H         1 <0>         0.4293
     37 H20         0.0719   -4.4141    0.4124 H         1 <0>         0.4272
@<TRIPOS>BOND
     1    1    2 1
     2    1   20 1
     3    1   21 1
     4    1   22 1
     5    2    3 1
     6    3    4 2
     7    3    5 1
     8    5    6 1
     9    5    7 1
    10    5   13 1
    11    7   12 ar
    12    7    8 ar
    13    8    9 ar
    14    8   23 1
    15    9   10 ar
    16    9   24 1
    17   10   11 ar
    18   10   25 1
    19   11   12 ar
    20   11   26 1
    21   12   27 1
    22   13   14 1
    23   13   19 1
    24   13   15 1
    25   15   16 1
    26   15   28 1
    27   15   29 1
    28   16   17 1
    29   16   30 1
    30   16   31 1
    31   17   18 1
    32   17   32 1
    33   17   33 1
    34   18   19 1
    35   18   34 1
    36   18   35 1
    37   19   36 1
    38   19   37 1
@<TRIPOS>MOLECULE
ZINC00896709
   37    38     0     0     0
SMALL
USER_CHARGES

@<TRIPOS>ATOM
      1 C1         -0.3189    1.4381    0.7470 C.3       1 <0>         0.0284
      2 O1         -0.1803    0.0448    0.4615 O.3       1 <0>        -0.3501
      3 C2         -1.3115   -0.6608    0.3055 C.2       1 <0>         0.4617
      4 O2         -2.3838   -0.1136    0.4080 O.2       1 <0>        -0.4625
      5 C3         -1.2439   -2.1355    0.0025 C.3       1 <0>        -0.0499
      6 H1         -0.7226   -2.6489    0.8104 H         1 <0>         0.1389
      7 C4         -2.6408   -2.6868   -0.1242 C.ar      1 <0>        -0.1396
      8 C5         -3.4534   -2.2778   -1.1650 C.ar      1 <0>        -0.0987
      9 C6         -4.7347   -2.7835   -1.2813 C.ar      1 <0>        -0.1108
     10 C7         -5.2032   -3.6985   -0.3570 C.ar      1 <0>        -0.0910
     11 C8         -4.3902   -4.1081    0.6833 C.ar      1 <0>        -0.1111
     12 C9         -3.1074   -3.6057    0.7971 C.ar      1 <0>        -0.0986
     13 C10        -0.4890   -2.3523   -1.3105 C.3       1 <0>         0.0396
     14 H2         -0.9521   -1.7576   -2.0979 H         1 <0>         0.1433
     15 C11         0.9689   -1.9212   -1.1371 C.3       1 <0>        -0.1499
     16 C12         1.7202   -2.1397   -2.4536 C.3       1 <0>        -0.1367
     17 C13         1.5945   -3.6099   -2.8636 C.3       1 <0>        -0.1486
     18 C14         0.1134   -3.9784   -2.9731 C.3       1 <0>        -0.0066
     19 N1         -0.5422   -3.7730   -1.6759 N.4       1 <0>        -0.5006
     20 H3          0.6686    1.8881    0.8490 H         1 <0>         0.1128
     21 H4         -0.8573    1.9239   -0.0667 H         1 <0>         0.0674
     22 H5         -0.8738    1.5649    1.6766 H         1 <0>         0.0688
     23 H6         -3.0874   -1.5630   -1.8871 H         1 <0>         0.1228
     24 H7         -5.3699   -2.4634   -2.0940 H         1 <0>         0.1342
     25 H8         -6.2044   -4.0930   -0.4474 H         1 <0>         0.1348
     26 H9         -4.7563   -4.8227    1.4056 H         1 <0>         0.1357
     27 H10        -2.4709   -3.9285    1.6077 H         1 <0>         0.1315
     28 H11         1.0067   -0.8658   -0.8673 H         1 <0>         0.1305
     29 H12         1.4331   -2.5156   -0.3502 H         1 <0>         0.0946
     30 H13         1.2885   -1.5069   -3.2290 H         1 <0>         0.0821
     31 H14         2.7720   -1.8874   -2.3192 H         1 <0>         0.0987
     32 H15         2.0796   -3.7615   -3.8279 H         1 <0>         0.1143
     33 H16         2.0717   -4.2393   -2.1125 H         1 <0>         0.0904
     34 H17        -0.3627   -3.3486   -3.7246 H         1 <0>         0.1311
     35 H18         0.0204   -5.0245   -3.2651 H         1 <0>         0.1370
     36 H19        -0.0696   -4.3185   -0.9708 H         1 <0>         0.4272
     37 H20        -1.5052   -4.0677   -1.7370 H         1 <0>         0.4292
@<TRIPOS>BOND
     1    1    2 1
     2    1   20 1
     3    1   21 1
     4    1   22 1
     5    2    3 1
     6    3    4 2
     7    3    5 1
     8    5    6 1
     9    5    7 1
    10    5   13 1
    11    7   12 ar
    12    7    8 ar
    13    8    9 ar
    14    8   23 1
    15    9   10 ar
    16    9   24 1
    17   10   11 ar
    18   10   25 1
    19   11   12 ar
    20   11   26 1
    21   12   27 1
    22   13   14 1
    23   13   19 1
    24   13   15 1
    25   15   16 1
    26   15   28 1
    27   15   29 1
    28   16   17 1
    29   16   30 1
    30   16   31 1
    31   17   18 1
    32   17   32 1
    33   17   33 1
    34   18   19 1
    35   18   34 1
    36   18   35 1
    37   19   36 1
    38   19   37 1
@<TRIPOS>MOLECULE
ZINC00896711
   37    38     0     0     0
SMALL
USER_CHARGES

@<TRIPOS>ATOM
      1 C1         -0.0173    1.4248    0.0099 C.3       1 <0>         0.0295
      2 O1          0.0021   -0.0041    0.0020 O.3       1 <0>        -0.3854
      3 C2         -1.1855   -0.6297    0.0100 C.2       1 <0>         0.4368
      4 O2         -2.2076    0.0145    0.0232 O.2       1 <0>        -0.4430
      5 C3         -1.2439   -2.1355    0.0025 C.3       1 <0>        -0.0442
      6 H1         -0.7531   -2.5137   -0.8943 H         1 <0>         0.1399
      7 C4         -2.6831   -2.5824    0.0138 C.ar      1 <0>        -0.1050
      8 C5         -3.5122   -2.2166    1.0577 C.ar      1 <0>        -0.0873
      9 C6         -4.8323   -2.6265    1.0681 C.ar      1 <0>        -0.1139
     10 C7         -5.3235   -3.4019    0.0344 C.ar      1 <0>        -0.0935
     11 C8         -4.4946   -3.7670   -1.0099 C.ar      1 <0>        -0.1144
     12 C9         -3.1756   -3.3535   -1.0225 C.ar      1 <0>        -0.0947
     13 C10        -0.5311   -2.6798    1.2421 C.3       1 <0>         0.0375
     14 H2         -1.0223   -2.3014    2.1385 H         1 <0>         0.1445
     15 C11        -0.5921   -4.2087    1.2346 C.3       1 <0>        -0.1362
     16 C12         0.1222   -4.7487    2.4770 C.3       1 <0>        -0.1375
     17 C13         1.5613   -4.2254    2.4942 C.3       1 <0>        -0.1485
     18 C14         1.5425   -2.6958    2.4549 C.3       1 <0>        -0.0069
     19 N1          0.8702   -2.2430    1.2312 N.4       1 <0>        -0.5062
     20 H3          1.0053    1.8021    0.0021 H         1 <0>         0.1160
     21 H4         -0.5445    1.7859   -0.8732 H         1 <0>         0.0754
     22 H5         -0.5275    1.7763    0.9067 H         1 <0>         0.0717
     23 H6         -3.1285   -1.6108    1.8652 H         1 <0>         0.1179
     24 H7         -5.4799   -2.3413    1.8840 H         1 <0>         0.1313
     25 H8         -6.3547   -3.7228    0.0429 H         1 <0>         0.1323
     26 H9         -4.8782   -4.3731   -1.8173 H         1 <0>         0.1333
     27 H10        -2.5290   -3.6356   -1.8402 H         1 <0>         0.1283
     28 H11        -1.6332   -4.5315    1.2442 H         1 <0>         0.1179
     29 H12        -0.1010   -4.5882    0.3386 H         1 <0>         0.0944
     30 H13        -0.3992   -4.4111    3.3727 H         1 <0>         0.0833
     31 H14         0.1309   -5.8383    2.4477 H         1 <0>         0.0989
     32 H15         2.0594   -4.5600    3.4041 H         1 <0>         0.1144
     33 H16         2.0971   -4.6052    1.6243 H         1 <0>         0.0906
     34 H17         1.0067   -2.3170    3.3253 H         1 <0>         0.1298
     35 H18         2.5655   -2.3199    2.4673 H         1 <0>         0.1369
     36 H19         1.3372   -2.6344    0.4270 H         1 <0>         0.4273
     37 H20         0.9071   -1.2358    1.1819 H         1 <0>         0.4290
@<TRIPOS>BOND
     1    1    2 1
     2    1   20 1
     3    1   21 1
     4    1   22 1
     5    2    3 1
     6    3    4 2
     7    3    5 1
     8    5    6 1
     9    5    7 1
    10    5   13 1
    11    7   12 ar
    12    7    8 ar
    13    8    9 ar
    14    8   23 1
    15    9   10 ar
    16    9   24 1
    17   10   11 ar
    18   10   25 1
    19   11   12 ar
    20   11   26 1
    21   12   27 1
    22   13   14 1
    23   13   19 1
    24   13   15 1
    25   15   16 1
    26   15   28 1
    27   15   29 1
    28   16   17 1
    29   16   30 1
    30   16   31 1
    31   17   18 1
    32   17   32 1
    33   17   33 1
    34   18   19 1
    35   18   34 1
    36   18   35 1
    37   19   36 1
    38   19   37 1
@<TRIPOS>MOLECULE
ZINC02522648
   37    38     0     0     0
SMALL
USER_CHARGES

@<TRIPOS>ATOM
      1 C1         -0.0173    1.4248    0.0099 C.3       1 <0>         0.0295
      2 O1          0.0021   -0.0041    0.0020 O.3       1 <0>        -0.3854
      3 C2         -1.1855   -0.6297    0.0100 C.2       1 <0>         0.4369
      4 O2         -2.2076    0.0145    0.0232 O.2       1 <0>        -0.4429
      5 C3         -1.2439   -2.1355    0.0025 C.3       1 <0>        -0.0442
      6 H1         -0.7361   -2.5233    0.8856 H         1 <0>         0.1399
      7 C4         -2.6831   -2.5824    0.0138 C.ar      1 <0>        -0.1045
      8 C5         -3.5291   -2.2149   -1.0158 C.ar      1 <0>        -0.0879
      9 C6         -4.8492   -2.6248   -1.0054 C.ar      1 <0>        -0.1136
     10 C7         -5.3232   -3.4027    0.0344 C.ar      1 <0>        -0.0937
     11 C8         -4.4770   -3.7710    1.0635 C.ar      1 <0>        -0.1141
     12 C9         -3.1558   -3.3646    1.0509 C.ar      1 <0>        -0.0950
     13 C10        -0.5550   -2.6664   -1.2563 C.3       1 <0>         0.0374
     14 H2         -1.0631   -2.2784   -2.1391 H         1 <0>         0.1445
     15 C11        -0.6160   -4.1953   -1.2641 C.3       1 <0>        -0.1362
     16 C12         0.0744   -4.7218   -2.5256 C.3       1 <0>        -0.1375
     17 C13         1.5130   -4.1982   -2.5646 C.3       1 <0>        -0.1485
     18 C14         1.4951   -2.6691   -2.5086 C.3       1 <0>        -0.0069
     19 N1          0.8463   -2.2295   -1.2675 N.4       1 <0>        -0.5062
     20 H3          1.0053    1.8021    0.0021 H         1 <0>         0.1160
     21 H4         -0.5445    1.7859   -0.8732 H         1 <0>         0.0717
     22 H5         -0.5275    1.7763    0.9067 H         1 <0>         0.0754
     23 H6         -3.1588   -1.6072   -1.8282 H         1 <0>         0.1178
     24 H7         -5.5104   -2.3371   -1.8095 H         1 <0>         0.1313
     25 H8         -6.3548   -3.7224    0.0429 H         1 <0>         0.1323
     26 H9         -4.8474   -4.3784    1.8761 H         1 <0>         0.1333
     27 H10        -2.4937   -3.6554    1.8531 H         1 <0>         0.1283
     28 H11        -0.1079   -4.5844   -0.3818 H         1 <0>         0.0944
     29 H12        -1.6571   -4.5181   -1.2573 H         1 <0>         0.1178
     30 H13         0.0835   -5.8117   -2.5082 H         1 <0>         0.0989
     31 H14        -0.4639   -4.3747   -3.4075 H         1 <0>         0.0832
     32 H15         2.0653   -4.5873   -1.7093 H         1 <0>         0.0906
     33 H16         1.9936   -4.5230   -3.4874 H         1 <0>         0.1144
     34 H17         2.5178   -2.2930   -2.5365 H         1 <0>         0.1369
     35 H18         0.9428   -2.2811   -3.3645 H         1 <0>         0.1298
     36 H19         0.8842   -1.2230   -1.2081 H         1 <0>         0.4289
     37 H20         1.3286   -2.6295   -0.4766 H         1 <0>         0.4273
@<TRIPOS>BOND
     1    1    2 1
     2    1   20 1
     3    1   21 1
     4    1   22 1
     5    2    3 1
     6    3    4 2
     7    3    5 1
     8    5    6 1
     9    5    7 1
    10    5   13 1
    11    7   12 ar
    12    7    8 ar
    13    8    9 ar
    14    8   23 1
    15    9   10 ar
    16    9   24 1
    17   10   11 ar
    18   10   25 1
    19   11   12 ar
    20   11   26 1
    21   12   27 1
    22   13   14 1
    23   13   19 1
    24   13   15 1
    25   15   16 1
    26   15   28 1
    27   15   29 1
    28   16   17 1
    29   16   30 1
    30   16   31 1
    31   17   18 1
    32   17   32 1
    33   17   33 1
    34   18   19 1
    35   18   34 1
    36   18   35 1
    37   19   36 1
    38   19   37 1
@<TRIPOS>MOLECULE
ZINC03975668
   55    57     0     0     0
SMALL
USER_CHARGES

@<TRIPOS>ATOM
      1 C1          5.4172   -6.5944    1.5236 C.3       1 <0>        -0.1796
      2 C2          6.2018   -6.1937    0.2728 C.3       1 <0>         0.0639
      3 C3          5.5283   -6.7906   -0.9646 C.3       1 <0>        -0.1804
      4 C4          7.6340   -6.7214    0.3784 C.3       1 <0>        -0.0920
      5 C5          7.6086   -8.2236    0.4957 C.ar      1 <0>        -0.0977
      6 C6          7.5488   -8.8127    1.7574 C.ar      1 <0>        -0.1201
      7 C7          7.5189  -10.1660    1.8982 C.ar      1 <0>        -0.0904
      8 C8          7.5606  -10.9848    0.7568 C.ar      1 <0>        -0.0468
      9 C9          7.5383  -12.3861    0.8627 C.ar      1 <0>        -0.1081
     10 C10         7.5798  -13.1473   -0.2646 C.ar      1 <0>        -0.1044
     11 C11         7.6450  -12.5583   -1.5262 C.ar      1 <0>        -0.1051
     12 C12         7.6687  -11.2049   -1.6673 C.ar      1 <0>        -0.1105
     13 C13         7.6269  -10.3860   -0.5260 C.ar      1 <0>        -0.0532
     14 C14         7.6500   -8.9847   -0.6317 C.ar      1 <0>        -0.0884
     15 C15         4.8656   -4.1863    0.0548 C.3       1 <0>        -0.0444
     16 C16         4.9322   -2.6623   -0.0624 C.3       1 <0>         0.0860
     17 H1          5.4989   -2.2578    0.7762 H         1 <0>         0.1353
     18 C17         3.5146   -2.0870   -0.0449 C.3       1 <0>         0.0262
     19 O1          3.5799   -0.6595   -0.0370 O.3       1 <0>        -0.2919
     20 C18         2.4002    0.0111   -0.0212 C.ar      1 <0>         0.1790
     21 C19         1.2027   -0.6870   -0.0135 C.ar      1 <0>        -0.2072
     22 C20         0.0021   -0.0041    0.0020 C.ar      1 <0>        -0.0338
     23 C21        -0.0167    1.3804    0.0096 C.ar      1 <0>        -0.1374
     24 C22         1.1653    2.0923    0.0022 C.ar      1 <0>         0.0405
     25 C23         2.3874    1.4128   -0.0131 C.ar      1 <0>        -0.0447
     26 C24         3.6184    2.1445   -0.0204 C.1       1 <0>         0.2479
     27 N1          4.5949    2.7249   -0.0262 N.1       1 <0>        -0.3846
     28 Cl1         1.1352    3.8280    0.0112 Cl        1 <0>        -0.0266
     29 O2          5.5756   -2.3064   -1.2878 O.3       1 <0>        -0.5410
     30 H2          4.3968   -6.2185    1.4484 H         1 <0>         0.0803
     31 H3          5.3987   -7.6809    1.6085 H         1 <0>         0.1113
     32 H4          5.8969   -6.1692    2.4052 H         1 <0>         0.0833
     33 H5          6.0873   -6.5052   -1.8558 H         1 <0>         0.0829
     34 H6          5.5099   -7.8771   -0.8798 H         1 <0>         0.1108
     35 H7          4.5080   -6.4147   -1.0399 H         1 <0>         0.0804
     36 H8          8.1930   -6.4360   -0.5128 H         1 <0>         0.0967
     37 H9          8.1138   -6.2962    1.2599 H         1 <0>         0.0977
     38 H10         7.5214   -8.1857    2.6364 H         1 <0>         0.1243
     39 H11         7.4688  -10.6084    2.8821 H         1 <0>         0.1328
     40 H12         7.4879  -12.8563    1.8337 H         1 <0>         0.1321
     41 H13         7.5622  -14.2239   -0.1805 H         1 <0>         0.1300
     42 H14         7.6776  -13.1854   -2.4049 H         1 <0>         0.1294
     43 H15         7.7198  -10.7626   -2.6512 H         1 <0>         0.1294
     44 H16         7.7007   -8.5144   -1.6026 H         1 <0>         0.1281
     45 H17         4.2974   -4.4578    0.9444 H         1 <0>         0.1477
     46 H18         4.3766   -4.5976   -0.8283 H         1 <0>         0.1420
     47 H19         2.9936   -2.4319    0.8482 H         1 <0>         0.0891
     48 H20         2.9759   -2.4211   -0.9316 H         1 <0>         0.0846
     49 H21         1.2084   -1.7670   -0.0194 H         1 <0>         0.1425
     50 H22        -0.9278   -0.5534    0.0079 H         1 <0>         0.1495
     51 H23        -0.9605    1.9053    0.0169 H         1 <0>         0.1530
     52 H24         5.1249   -2.6340   -2.0782 H         1 <0>         0.3904
     53 N2          6.2355   -4.7235    0.1583 N.4       1 <0>        -0.5085
     54 H25         6.7665   -4.4612   -0.6804 H         1 <0>         0.4367
     55 H26         6.6919   -4.3294    0.9894 H         1 <0>         0.4331
@<TRIPOS>BOND
     1    1    2 1
     2    1   30 1
     3    1   31 1
     4    1   32 1
     5    2    3 1
     6    2    4 1
     7    2   53 1
     8    3   33 1
     9    3   34 1
    10    3   35 1
    11    4    5 1
    12    4   36 1
    13    4   37 1
    14    5   14 ar
    15    5    6 ar
    16    6    7 ar
    17    6   38 1
    18    7    8 ar
    19    7   39 1
    20    8   13 ar
    21    8    9 ar
    22    9   10 ar
    23    9   40 1
    24   10   11 ar
    25   10   41 1
    26   11   12 ar
    27   11   42 1
    28   12   13 ar
    29   12   43 1
    30   13   14 ar
    31   14   44 1
    32   15   16 1
    33   15   45 1
    34   15   46 1
    35   15   53 1
    36   16   17 1
    37   16   18 1
    38   16   29 1
    39   18   19 1
    40   18   47 1
    41   18   48 1
    42   19   20 1
    43   20   25 ar
    44   20   21 ar
    45   21   22 ar
    46   21   49 1
    47   22   23 ar
    48   22   50 1
    49   23   24 ar
    50   23   51 1
    51   24   25 ar
    52   24   28 1
    53   25   26 1
    54   26   27 3
    55   29   52 1
    56   53   54 1
    57   53   55 1
@<TRIPOS>MOLECULE
ZINC03941518
   44    46     0     0     0
SMALL
USER_CHARGES
methyl 3-(4-chloro-3-methyl-phenyl)-8-methyl-8-azabicyclo[3.2.1]octane-4-carboxylate
@<TRIPOS>ATOM
      1 C1         -1.8613   -1.0906    1.4341 C.3       1 <0>        -0.1283
      2 C2         -2.4809   -0.2202    2.4969 C.ar      1 <0>        -0.0616
      3 C3         -3.4605    0.6941    2.1574 C.ar      1 <0>        -0.0906
      4 C4         -4.0325    1.4888    3.1330 C.ar      1 <0>        -0.0990
      5 C5         -3.6173    1.3777    4.4471 C.ar      1 <0>        -0.1193
      6 C6         -2.6344    0.4677    4.7869 C.ar      1 <0>        -0.0953
      7 C7         -2.0654   -0.3321    3.8116 C.ar      1 <0>        -0.0278
      8 Cl1        -0.8302   -1.4751    4.2376 Cl        1 <0>        -0.0484
      9 C8         -5.1052    2.4806    2.7632 C.3       1 <0>        -0.0410
     10 H1         -5.4756    2.2579    1.7626 H         1 <0>         0.1251
     11 C9         -6.2578    2.3822    3.7666 C.3       1 <0>        -0.1476
     12 C10        -7.2741    3.4959    3.4679 C.3       1 <0>         0.0330
     13 H2         -8.1861    3.3878    4.0550 H         1 <0>         0.1573
     14 C11        -7.5533    3.4859    1.9472 C.3       1 <0>        -0.1457
     15 C12        -6.4828    4.4182    1.3427 C.3       1 <0>        -0.1414
     16 C13        -5.6541    4.9068    2.5531 C.3       1 <0>         0.0462
     17 H3         -5.2873    5.9243    2.4177 H         1 <0>         0.1604
     18 C14        -4.5200    3.8956    2.7853 C.3       1 <0>        -0.1055
     19 H4         -3.7750    3.9950    1.9959 H         1 <0>         0.1525
     20 C15        -3.8783    4.1556    4.1238 C.2       1 <0>         0.4843
     21 O1         -4.5674    4.3735    5.0921 O.2       1 <0>        -0.5197
     22 O2         -2.5411    4.1450    4.2404 O.3       1 <0>        -0.3215
     23 C16        -1.9924    4.4034    5.5597 C.3       1 <0>         0.0268
     24 C17        -7.5501    5.9040    3.7134 C.3       1 <0>        -0.0353
     25 H5         -2.4310   -2.0155    1.3442 H         1 <0>         0.0828
     26 H6         -0.8324   -1.3228    1.7089 H         1 <0>         0.0793
     27 H7         -1.8724   -0.5629    0.4804 H         1 <0>         0.0762
     28 H8         -3.7818    0.7846    1.1303 H         1 <0>         0.1374
     29 H9         -4.0615    2.0021    5.2082 H         1 <0>         0.1240
     30 H10        -2.3107    0.3806    5.8135 H         1 <0>         0.1377
     31 H11        -6.7425    1.4105    3.6717 H         1 <0>         0.1208
     32 H12        -5.8718    2.5021    4.7789 H         1 <0>         0.0967
     33 H13        -7.4464    2.4770    1.5486 H         1 <0>         0.1127
     34 H14        -8.5518    3.8718    1.7423 H         1 <0>         0.1021
     35 H15        -5.8497    3.8678    0.6469 H         1 <0>         0.1145
     36 H16        -6.9551    5.2616    0.8390 H         1 <0>         0.1073
     37 H17        -2.3080    5.3904    5.8976 H         1 <0>         0.0749
     38 H18        -2.3532    3.6479    6.2576 H         1 <0>         0.0743
     39 H19        -0.9040    4.3658    5.5142 H         1 <0>         0.1175
     40 H20        -8.2824    5.7441    4.5047 H         1 <0>         0.1225
     41 H21        -7.0221    6.8410    3.8909 H         1 <0>         0.1200
     42 H22        -8.0595    5.9507    2.7509 H         1 <0>         0.1154
     43 N1         -6.5803    4.7615    3.6796 N.4       1 <0>        -0.4024
     44 H23        -6.0598    4.7345    4.5642 H         1 <0>         0.4289
@<TRIPOS>BOND
     1    1    2 1
     2    1   25 1
     3    1   26 1
     4    1   27 1
     5    2    7 ar
     6    2    3 ar
     7    3    4 ar
     8    3   28 1
     9    4    5 ar
    10    4    9 1
    11    5    6 ar
    12    5   29 1
    13    6    7 ar
    14    6   30 1
    15    7    8 1
    16    9   10 1
    17    9   18 1
    18    9   11 1
    19   11   12 1
    20   11   31 1
    21   11   32 1
    22   12   13 1
    23   12   14 1
    24   12   43 1
    25   14   15 1
    26   14   33 1
    27   14   34 1
    28   15   16 1
    29   15   35 1
    30   15   36 1
    31   16   17 1
    32   16   18 1
    33   16   43 1
    34   18   19 1
    35   18   20 1
    36   20   21 2
    37   20   22 1
    38   22   23 1
    39   23   37 1
    40   23   38 1
    41   23   39 1
    42   24   40 1
    43   24   41 1
    44   24   42 1
    45   24   43 1
    46   43   44 1
@<TRIPOS>MOLECULE
ZINC13645999
   37    38     0     0     0
SMALL
USER_CHARGES
2-[2-(dimethylaminomethyl)phenyl]sulfanylaniline
@<TRIPOS>ATOM
      1 C1         -1.0239   -1.8914   -2.5432 C.3       1 <0>        -0.0463
      2 C2         -3.2340   -1.2701   -1.7736 C.3       1 <0>        -0.0437
      3 C3         -1.3175   -0.9641   -0.3259 C.3       1 <0>         0.0400
      4 C4         -0.0216   -0.1995   -0.2417 C.ar      1 <0>        -0.1156
      5 C5          1.1791   -0.8788   -0.1781 C.ar      1 <0>        -0.0952
      6 C6          2.3687   -0.1780   -0.1009 C.ar      1 <0>        -0.0840
      7 C7          2.3609    1.2052   -0.0865 C.ar      1 <0>        -0.0924
      8 C8          1.1644    1.8911   -0.1493 C.ar      1 <0>        -0.0568
      9 C9         -0.0333    1.1900   -0.2275 C.ar      1 <0>        -0.1188
     10 S1         -1.5624    2.0612   -0.3158 S.3       1 <0>        -0.0377
     11 C10        -2.2261    1.9231    1.3106 C.ar      1 <0>        -0.1988
     12 C11        -1.4779    1.3346    2.3198 C.ar      1 <0>        -0.0744
     13 C12        -1.9992    1.2313    3.5960 C.ar      1 <0>        -0.1590
     14 C13        -3.2695    1.7044    3.8688 C.ar      1 <0>        -0.0561
     15 C14        -4.0245    2.2876    2.8679 C.ar      1 <0>        -0.1807
     16 C15        -3.5081    2.4000    1.5860 C.ar      1 <0>         0.2473
     17 N1         -4.2707    2.9896    0.5712 N.pl3     1 <0>        -0.8708
     18 H1         -1.1202   -2.9007   -2.1430 H         1 <0>         0.1250
     19 H2         -1.4015   -1.8683   -3.5654 H         1 <0>         0.1240
     20 H3          0.0255   -1.5966   -2.5367 H         1 <0>         0.1186
     21 H4         -3.7830   -0.5759   -1.1374 H         1 <0>         0.1217
     22 H5         -3.5836   -1.1750   -2.8016 H         1 <0>         0.1244
     23 H6         -3.3998   -2.2899   -1.4263 H         1 <0>         0.1246
     24 H7         -1.1547   -1.9918   -0.0011 H         1 <0>         0.1409
     25 H8         -2.0599   -0.4927    0.3181 H         1 <0>         0.1384
     26 H9          1.1890   -1.9587   -0.1891 H         1 <0>         0.1400
     27 H10         3.3062   -0.7120   -0.0520 H         1 <0>         0.1431
     28 H11         3.2919    1.7492   -0.0261 H         1 <0>         0.1441
     29 H12         1.1591    2.9710   -0.1384 H         1 <0>         0.1460
     30 H13        -0.4869    0.9603    2.1093 H         1 <0>         0.1207
     31 H14        -1.4140    0.7759    4.3813 H         1 <0>         0.1272
     32 H15        -3.6734    1.6178    4.8667 H         1 <0>         0.1317
     33 H16        -5.0166    2.6554    3.0845 H         1 <0>         0.1323
     34 H17        -3.9082    3.0671   -0.3252 H         1 <0>         0.3973
     35 H18        -5.1618    3.3206    0.7643 H         1 <0>         0.4072
     36 N2         -1.7957   -0.9332   -1.7241 N.4       1 <0>        -0.3931
     37 H19        -1.6614    0.0122   -2.1016 H         1 <0>         0.4290
@<TRIPOS>BOND
     1    1   18 1
     2    1   19 1
     3    1   20 1
     4    1   36 1
     5    2   21 1
     6    2   22 1
     7    2   23 1
     8    2   36 1
     9    3    4 1
    10    3   24 1
    11    3   25 1
    12    3   36 1
    13    4    9 ar
    14    4    5 ar
    15    5    6 ar
    16    5   26 1
    17    6    7 ar
    18    6   27 1
    19    7    8 ar
    20    7   28 1
    21    8    9 ar
    22    8   29 1
    23    9   10 1
    24   10   11 1
    25   11   16 ar
    26   11   12 ar
    27   12   13 ar
    28   12   30 1
    29   13   14 ar
    30   13   31 1
    31   14   15 ar
    32   14   32 1
    33   15   16 ar
    34   15   33 1
    35   16   17 1
    36   17   34 1
    37   17   35 1
    38   36   37 1
@<TRIPOS>MOLECULE
ZINC13646007
   41    42     0     0     0
SMALL
USER_CHARGES
[3-amino-4-[2-(dimethylaminomethyl)phenyl]sulfanyl-phenyl]methanol
@<TRIPOS>ATOM
      1 C1         -5.7023    4.0491    7.5048 C.3       1 <0>        -0.0453
      2 C2         -5.0468    6.2686    6.7932 C.3       1 <0>        -0.0452
      3 C3         -3.3628    4.6727    7.4859 C.3       1 <0>         0.0450
      4 C4         -2.2745    5.1737    6.5718 C.ar      1 <0>        -0.1435
      5 C5         -1.6490    6.3762    6.8358 C.ar      1 <0>        -0.0740
      6 C6         -0.6502    6.8367    5.9976 C.ar      1 <0>        -0.1145
      7 C7         -0.2738    6.0953    4.8921 C.ar      1 <0>        -0.0698
      8 C8         -0.8914    4.8898    4.6245 C.ar      1 <0>        -0.1100
      9 C9         -1.8994    4.4263    5.4619 C.ar      1 <0>        -0.0962
     10 S1         -2.6947    2.8914    5.1210 S.3       1 <0>        -0.0258
     11 C10        -1.8244    2.2614    3.7244 C.ar      1 <0>        -0.2204
     12 C11        -0.8940    1.2448    3.8850 C.ar      1 <0>        -0.0154
     13 C12        -0.2163    0.7486    2.7871 C.ar      1 <0>        -0.1593
     14 C13        -0.4542    1.2702    1.5287 C.ar      1 <0>         0.0001
     15 C14        -1.3797    2.2835    1.3592 C.ar      1 <0>        -0.1816
     16 C15        -2.0685    2.7836    2.4538 C.ar      1 <0>         0.2641
     17 N1         -3.0054    3.8096    2.2847 N.pl3     1 <0>        -0.8668
     18 C16         0.2930    0.7284    0.3374 C.3       1 <0>         0.1061
     19 O1          1.4979    1.4739    0.1515 O.3       1 <0>        -0.5659
     20 H1         -5.7854    4.3597    8.5463 H         1 <0>         0.1261
     21 H2         -6.6586    4.1988    7.0036 H         1 <0>         0.1240
     22 H3         -5.4302    2.9945    7.4608 H         1 <0>         0.1229
     23 H4         -4.3480    6.8121    6.1573 H         1 <0>         0.1188
     24 H5         -6.0548    6.3637    6.3895 H         1 <0>         0.1231
     25 H6         -5.0185    6.6828    7.8010 H         1 <0>         0.1254
     26 H7         -3.2023    3.6154    7.6965 H         1 <0>         0.1383
     27 H8         -3.3419    5.2362    8.4187 H         1 <0>         0.1424
     28 H9         -1.9399    6.9576    7.6982 H         1 <0>         0.1375
     29 H10        -0.1625    7.7774    6.2067 H         1 <0>         0.1387
     30 H11         0.5071    6.4576    4.2400 H         1 <0>         0.1371
     31 H12        -0.5942    4.3095    3.7635 H         1 <0>         0.1351
     32 H13        -0.7024    0.8382    4.8670 H         1 <0>         0.1368
     33 H14         0.5045   -0.0458    2.9131 H         1 <0>         0.1342
     34 H15        -1.5664    2.6851    0.3742 H         1 <0>         0.1336
     35 H16        -3.1737    4.1718    1.4008 H         1 <0>         0.4068
     36 H17        -3.4864    4.1584    3.0514 H         1 <0>         0.3958
     37 H18        -0.3297    0.8165   -0.5529 H         1 <0>         0.0614
     38 H19         0.5371   -0.3202    0.5078 H         1 <0>         0.0643
     39 H20         2.0307    1.1792   -0.5997 H         1 <0>         0.3892
     40 N2         -4.6660    4.8406    6.8089 N.4       1 <0>        -0.3989
     41 H21        -4.5848    4.5064    5.8415 H         1 <0>         0.4257
@<TRIPOS>BOND
     1    1   20 1
     2    1   21 1
     3    1   22 1
     4    1   40 1
     5    2   23 1
     6    2   24 1
     7    2   25 1
     8    2   40 1
     9    3    4 1
    10    3   26 1
    11    3   27 1
    12    3   40 1
    13    4    9 ar
    14    4    5 ar
    15    5    6 ar
    16    5   28 1
    17    6    7 ar
    18    6   29 1
    19    7    8 ar
    20    7   30 1
    21    8    9 ar
    22    8   31 1
    23    9   10 1
    24   10   11 1
    25   11   16 ar
    26   11   12 ar
    27   12   13 ar
    28   12   32 1
    29   13   14 ar
    30   13   33 1
    31   14   15 ar
    32   14   18 1
    33   15   16 ar
    34   15   34 1
    35   16   17 1
    36   17   35 1
    37   17   36 1
    38   18   19 1
    39   18   37 1
    40   18   38 1
    41   19   39 1
    42   40   41 1
@<TRIPOS>MOLECULE
ZINC13642314
   40    41     0     0     0
SMALL
USER_CHARGES
2-[2-[(2-fluoroethylamino)methyl]phenyl]sulfanyl-5-methyl-aniline
@<TRIPOS>ATOM
      1 C1         -7.9301    4.2778    3.5204 C.3       1 <0>        -0.1295
      2 C2         -6.6308    3.9196    2.8462 C.ar      1 <0>         0.0096
      3 C3         -5.6118    3.3383    3.5782 C.ar      1 <0>        -0.1829
      4 C4         -4.4175    3.0071    2.9661 C.ar      1 <0>        -0.0136
      5 C5         -4.2387    3.2575    1.6132 C.ar      1 <0>        -0.2362
      6 C6         -5.2652    3.8484    0.8758 C.ar      1 <0>         0.2757
      7 C7         -6.4615    4.1727    1.4973 C.ar      1 <0>        -0.2063
      8 N1         -5.0895    4.1090   -0.4881 N.pl3     1 <0>        -0.8647
      9 S1         -2.7172    2.8371    0.8302 S.3       1 <0>        -0.0235
     10 C8         -3.0927    1.3705   -0.0712 C.ar      1 <0>        -0.0889
     11 C9         -4.3400    0.7715    0.0611 C.ar      1 <0>        -0.1122
     12 C10        -4.6308   -0.3773   -0.6472 C.ar      1 <0>        -0.0661
     13 C11        -3.6827   -0.9323   -1.4877 C.ar      1 <0>        -0.1173
     14 C12        -2.4426   -0.3362   -1.6259 C.ar      1 <0>        -0.0715
     15 C13        -2.1427    0.8101   -0.9166 C.ar      1 <0>        -0.1535
     16 C14        -0.7892    1.4560   -1.0639 C.3       1 <0>         0.0495
     17 C15         1.3891    1.6948   -0.0338 C.3       1 <0>        -0.0417
     18 C16         2.2411    1.2831    1.1684 C.3       1 <0>         0.0440
     19 F1          3.5082    1.8668    1.0637 F         1 <0>        -0.1800
     20 H1         -7.8713    5.2960    3.9049 H         1 <0>         0.0833
     21 H2         -8.7448    4.2082    2.7995 H         1 <0>         0.0737
     22 H3         -8.1141    3.5884    4.3443 H         1 <0>         0.0760
     23 H4         -5.7494    3.1427    4.6314 H         1 <0>         0.1320
     24 H5         -3.6234    2.5539    3.5410 H         1 <0>         0.1317
     25 H6         -7.2595    4.6272    0.9289 H         1 <0>         0.1322
     26 H7         -4.2531    3.8787   -0.9221 H         1 <0>         0.4009
     27 H8         -5.8042    4.5199   -0.9993 H         1 <0>         0.4059
     28 H9         -5.0806    1.2040    0.7174 H         1 <0>         0.1352
     29 H10        -5.5999   -0.8431   -0.5451 H         1 <0>         0.1370
     30 H11        -3.9131   -1.8309   -2.0408 H         1 <0>         0.1387
     31 H12        -1.7063   -0.7698   -2.2865 H         1 <0>         0.1381
     32 H13        -0.9046    2.5396   -1.0906 H         1 <0>         0.1404
     33 H14        -0.3237    1.1173   -1.9894 H         1 <0>         0.1448
     34 H15         1.8696    1.3577   -0.9523 H         1 <0>         0.1452
     35 H16         1.2887    2.7800   -0.0535 H         1 <0>         0.1443
     36 H17         1.7605    1.6202    2.0868 H         1 <0>         0.0992
     37 H18         2.3415    0.1979    1.1880 H         1 <0>         0.0991
     38 N2          0.0555    1.0755    0.0842 N.4       1 <0>        -0.5161
     39 H19         0.1571    0.0541    0.1061 H         1 <0>         0.4347
     40 H20        -0.3901    1.3938    0.9527 H         1 <0>         0.4329
@<TRIPOS>BOND
     1    1    2 1
     2    1   20 1
     3    1   21 1
     4    1   22 1
     5    2    7 ar
     6    2    3 ar
     7    3    4 ar
     8    3   23 1
     9    4    5 ar
    10    4   24 1
    11    5    6 ar
    12    5    9 1
    13    6    7 ar
    14    6    8 1
    15    7   25 1
    16    8   26 1
    17    8   27 1
    18    9   10 1
    19   10   15 ar
    20   10   11 ar
    21   11   12 ar
    22   11   28 1
    23   12   13 ar
    24   12   29 1
    25   13   14 ar
    26   13   30 1
    27   14   15 ar
    28   14   31 1
    29   15   16 1
    30   16   32 1
    31   16   33 1
    32   16   38 1
    33   17   18 1
    34   17   34 1
    35   17   35 1
    36   17   38 1
    37   18   19 1
    38   18   36 1
    39   18   37 1
    40   38   39 1
    41   38   40 1
@<TRIPOS>MOLECULE
ZINC13642311
   40    41     0     0     0
SMALL
USER_CHARGES
2-[2-(ethylaminomethyl)phenyl]sulfanyl-5-methyl-aniline
@<TRIPOS>ATOM
      1 C1          2.2411    1.2831    1.1684 C.3       1 <0>        -0.1905
      2 C2          1.3891    1.6948   -0.0338 C.3       1 <0>        -0.0073
      3 C3         -0.7892    1.4560   -1.0639 C.3       1 <0>         0.0474
      4 C4         -2.1427    0.8101   -0.9166 C.ar      1 <0>        -0.1514
      5 C5         -2.4426   -0.3362   -1.6259 C.ar      1 <0>        -0.0730
      6 C6         -3.6827   -0.9323   -1.4877 C.ar      1 <0>        -0.1175
      7 C7         -4.6308   -0.3773   -0.6472 C.ar      1 <0>        -0.0680
      8 C8         -4.3400    0.7715    0.0611 C.ar      1 <0>        -0.1124
      9 C9         -3.0927    1.3705   -0.0712 C.ar      1 <0>        -0.0895
     10 S1         -2.7172    2.8371    0.8302 S.3       1 <0>        -0.0225
     11 C10        -4.2387    3.2575    1.6132 C.ar      1 <0>        -0.2361
     12 C11        -4.4175    3.0071    2.9661 C.ar      1 <0>        -0.0136
     13 C12        -5.6118    3.3383    3.5782 C.ar      1 <0>        -0.1832
     14 C13        -6.6308    3.9196    2.8462 C.ar      1 <0>         0.0090
     15 C14        -6.4615    4.1727    1.4973 C.ar      1 <0>        -0.2064
     16 C15        -5.2652    3.8484    0.8758 C.ar      1 <0>         0.2754
     17 N1         -5.0895    4.1090   -0.4881 N.pl3     1 <0>        -0.8647
     18 C16        -7.9301    4.2778    3.5204 C.3       1 <0>        -0.1292
     19 H1          1.7605    1.6202    2.0868 H         1 <0>         0.0810
     20 H2          2.3415    0.1979    1.1880 H         1 <0>         0.0806
     21 H3          3.2284    1.7379    1.0869 H         1 <0>         0.1076
     22 H4          1.8696    1.3577   -0.9523 H         1 <0>         0.1316
     23 H5          1.2887    2.7800   -0.0535 H         1 <0>         0.1309
     24 H6         -0.9046    2.5396   -1.0906 H         1 <0>         0.1377
     25 H7         -0.3237    1.1173   -1.9894 H         1 <0>         0.1418
     26 H8         -1.7063   -0.7698   -2.2865 H         1 <0>         0.1374
     27 H9         -3.9131   -1.8309   -2.0408 H         1 <0>         0.1381
     28 H10        -5.5999   -0.8431   -0.5451 H         1 <0>         0.1364
     29 H11        -5.0806    1.2040    0.7174 H         1 <0>         0.1347
     30 H12        -3.6234    2.5539    3.5410 H         1 <0>         0.1316
     31 H13        -5.7494    3.1427    4.6314 H         1 <0>         0.1317
     32 H14        -7.2595    4.6272    0.9289 H         1 <0>         0.1319
     33 H15        -4.2531    3.8787   -0.9221 H         1 <0>         0.4009
     34 H16        -5.8042    4.5199   -0.9993 H         1 <0>         0.4057
     35 H17        -7.8713    5.2960    3.9049 H         1 <0>         0.0830
     36 H18        -8.7448    4.2082    2.7995 H         1 <0>         0.0736
     37 H19        -8.1141    3.5884    4.3443 H         1 <0>         0.0758
     38 N2          0.0555    1.0755    0.0842 N.4       1 <0>        -0.5203
     39 H20        -0.3901    1.3938    0.9527 H         1 <0>         0.4302
     40 H21         0.1571    0.0541    0.1061 H         1 <0>         0.4315
@<TRIPOS>BOND
     1    1    2 1
     2    1   19 1
     3    1   20 1
     4    1   21 1
     5    2   22 1
     6    2   23 1
     7    2   38 1
     8    3    4 1
     9    3   24 1
    10    3   25 1
    11    3   38 1
    12    4    9 ar
    13    4    5 ar
    14    5    6 ar
    15    5   26 1
    16    6    7 ar
    17    6   27 1
    18    7    8 ar
    19    7   28 1
    20    8    9 ar
    21    8   29 1
    22    9   10 1
    23   10   11 1
    24   11   16 ar
    25   11   12 ar
    26   12   13 ar
    27   12   30 1
    28   13   14 ar
    29   13   31 1
    30   14   15 ar
    31   14   18 1
    32   15   16 ar
    33   15   32 1
    34   16   17 1
    35   17   33 1
    36   17   34 1
    37   18   35 1
    38   18   36 1
    39   18   37 1
    40   38   39 1
    41   38   40 1
@<TRIPOS>MOLECULE
ZINC13613346
   70    73     0     0     0
SMALL
USER_CHARGES
1-(5-acetyl-4-methyl-thiazol-2-yl)-3-[(1R,2S)-2-[[(3S)-3-[(4-fluorophenyl)methyl]-1-piperidyl]methyl]cyclohexyl]urea
@<TRIPOS>ATOM
      1 C1         -5.6728    3.5355   10.4423 C.3       1 <0>        -0.0985
      2 C2         -4.6582    2.4944   10.0451 C.2       1 <0>         0.1933
      3 C3         -3.7716    1.9589   10.9773 C.2       1 <0>        -0.3113
      4 S1         -2.8609    0.8186    9.9455 S.3       1 <0>         0.1442
      5 C4         -3.6901    1.1481    8.4559 C.2       1 <0>         0.3169
      6 N1         -4.5788    2.0630    8.8160 N.2       1 <0>        -0.5137
      7 N2         -3.4800    0.5913    7.2086 N.am      1 <0>        -0.6248
      8 C5         -4.2380    0.9759    6.1626 C.2       1 <0>         0.6890
      9 O1         -5.1064    1.8126    6.3164 O.2       1 <0>        -0.4745
     10 N3         -4.0331    0.4330    4.9462 N.am      1 <0>        -0.7457
     11 C6         -4.8570    0.8510    3.8092 C.3       1 <0>         0.1464
     12 H1         -5.0943    1.9108    3.9027 H         1 <0>         0.1167
     13 C7         -6.1528    0.0378    3.7921 C.3       1 <0>        -0.1315
     14 C8         -7.0133    0.4744    2.6047 C.3       1 <0>        -0.1229
     15 C9         -6.2447    0.2367    1.3032 C.3       1 <0>        -0.1247
     16 C10        -4.9489    1.0500    1.3204 C.3       1 <0>        -0.1077
     17 C11        -4.0884    0.6134    2.5078 C.3       1 <0>        -0.1184
     18 H2         -3.8511   -0.4464    2.4143 H         1 <0>         0.1014
     19 C12        -2.7926    1.4266    2.5249 C.3       1 <0>        -0.0042
     20 C13        -1.3448   -0.3944    3.1945 C.3       1 <0>        -0.0167
     21 C14        -0.5437   -0.9679    4.3656 C.3       1 <0>        -0.1472
     22 C15         0.5823    0.0038    4.7329 C.3       1 <0>        -0.1376
     23 C16        -0.0241    1.3672    5.0765 C.3       1 <0>        -0.1063
     24 H3         -0.6734    1.2679    5.9463 H         1 <0>         0.0863
     25 C17        -0.8401    1.8730    3.8848 C.3       1 <0>        -0.0032
     26 C18         1.0969    2.3613    5.3868 C.3       1 <0>        -0.0692
     27 C19         1.8243    1.9254    6.6325 C.ar      1 <0>        -0.1091
     28 C20         1.4045    2.3751    7.8705 C.ar      1 <0>        -0.0849
     29 C21         2.0679    1.9722    9.0140 C.ar      1 <0>        -0.1488
     30 C22         3.1598    1.1261    8.9185 C.ar      1 <0>         0.1092
     31 C23         3.5825    0.6806    7.6776 C.ar      1 <0>        -0.1504
     32 C24         2.9144    1.0806    6.5359 C.ar      1 <0>        -0.0842
     33 F1          3.8119    0.7354   10.0353 F         1 <0>        -0.1325
     34 C25        -3.6351    2.2352   12.3519 C.2       1 <0>         0.4350
     35 O2         -4.3618    3.0514   12.8826 O.2       1 <0>        -0.4405
     36 C26        -2.5875    1.5183   13.1641 C.3       1 <0>        -0.1890
     37 H4         -6.5941    3.0442   10.7553 H         1 <0>         0.0902
     38 H5         -5.2797    4.1299   11.2671 H         1 <0>         0.1003
     39 H6         -5.8785    4.1855    9.5918 H         1 <0>         0.0817
     40 H7         -2.7871   -0.0763    7.0859 H         1 <0>         0.4219
     41 H8         -3.3401   -0.2346    4.8235 H         1 <0>         0.3858
     42 H9         -6.7004    0.2071    4.7192 H         1 <0>         0.0818
     43 H10        -5.9155   -1.0220    3.6986 H         1 <0>         0.0717
     44 H11        -7.2506    1.5341    2.6981 H         1 <0>         0.0725
     45 H12        -7.9365   -0.1050    2.5924 H         1 <0>         0.0786
     46 H13        -6.8577    0.5478    0.4573 H         1 <0>         0.0807
     47 H14        -6.0074   -0.8230    1.2097 H         1 <0>         0.0694
     48 H15        -5.1862    2.1097    1.4138 H         1 <0>         0.0813
     49 H16        -4.4013    0.8806    0.3932 H         1 <0>         0.0849
     50 H17        -3.0228    2.4727    2.7269 H         1 <0>         0.1320
     51 H18        -2.2987    1.3436    1.5568 H         1 <0>         0.1388
     52 H19        -2.1556   -1.0770    2.9402 H         1 <0>         0.1264
     53 H20        -0.6897   -0.2715    2.3320 H         1 <0>         0.1378
     54 H21        -1.2013   -1.1039    5.2242 H         1 <0>         0.0746
     55 H22        -0.1160   -1.9284    4.0782 H         1 <0>         0.1198
     56 H23         1.2618    0.1101    3.8873 H         1 <0>         0.0892
     57 H24         1.1288   -0.3794    5.5946 H         1 <0>         0.1011
     58 H25        -1.2845    2.8372    4.1319 H         1 <0>         0.1269
     59 H26        -0.1875    1.9851    3.0190 H         1 <0>         0.1349
     60 H27         1.7955    2.3937    4.5507 H         1 <0>         0.0889
     61 H28         0.6708    3.3523    5.5428 H         1 <0>         0.0863
     62 H29         0.5554    3.0383    7.9444 H         1 <0>         0.1302
     63 H30         1.7372    2.3204    9.9814 H         1 <0>         0.1395
     64 H31         4.4339    0.0203    7.6019 H         1 <0>         0.1399
     65 H32         3.2442    0.7335    5.5679 H         1 <0>         0.1333
     66 H33        -1.7354    2.0413   13.1451 H         1 <0>         0.0904
     67 H34        -2.9307    1.4200   14.1940 H         1 <0>         0.0983
     68 H35        -2.4155    0.5280   12.7424 H         1 <0>         0.0792
     69 N4         -1.9210    0.9057    3.5983 N.4       1 <0>        -0.4126
     70 H36        -2.4820    0.7719    4.4478 H         1 <0>         0.4031
@<TRIPOS>BOND
     1    1    2 1
     2    1   37 1
     3    1   38 1
     4    1   39 1
     5    2    6 1
     6    2    3 2
     7    3    4 1
     8    3   34 1
     9    4    5 1
    10    5    6 2
    11    5    7 1
    12    7    8 am
    13    7   40 1
    14    8    9 2
    15    8   10 am
    16   10   11 1
    17   10   41 1
    18   11   12 1
    19   11   17 1
    20   11   13 1
    21   13   14 1
    22   13   42 1
    23   13   43 1
    24   14   15 1
    25   14   44 1
    26   14   45 1
    27   15   16 1
    28   15   46 1
    29   15   47 1
    30   16   17 1
    31   16   48 1
    32   16   49 1
    33   17   18 1
    34   17   19 1
    35   19   50 1
    36   19   51 1
    37   19   69 1
    38   20   21 1
    39   20   52 1
    40   20   53 1
    41   20   69 1
    42   21   22 1
    43   21   54 1
    44   21   55 1
    45   22   23 1
    46   22   56 1
    47   22   57 1
    48   23   24 1
    49   23   25 1
    50   23   26 1
    51   25   58 1
    52   25   59 1
    53   25   69 1
    54   26   27 1
    55   26   60 1
    56   26   61 1
    57   27   32 ar
    58   27   28 ar
    59   28   29 ar
    60   28   62 1
    61   29   30 ar
    62   29   63 1
    63   30   31 ar
    64   30   33 1
    65   31   32 ar
    66   31   64 1
    67   32   65 1
    68   34   35 2
    69   34   36 1
    70   36   66 1
    71   36   67 1
    72   36   68 1
    73   69   70 1
@<TRIPOS>MOLECULE
ZINC03825965
   61    64     0     0     0
SMALL
USER_CHARGES
2-[4-[4-(7-methoxy-1-naphthyl)piperazin-1-yl]butyl]-4-methyl-1,2,4-triazine-3,5-dione
@<TRIPOS>ATOM
      1 C1         -2.0231    1.8137    0.6582 C.3       1 <0>         0.0742
      2 N1         -0.7874    2.5524    0.3867 N.am      1 <0>        -0.5564
      3 C2         -0.8326    3.8813    0.1583 C.2       1 <0>         0.5084
      4 O1         -1.8956    4.4738    0.1762 O.2       1 <0>        -0.4669
      5 C3          0.4140    4.6017   -0.1163 C.2       1 <0>         0.0634
      6 N2          1.5380    3.9407   -0.1287 N.2       1 <0>        -0.1777
      7 N3          1.5393    2.5628    0.1185 N.am      1 <0>        -0.4527
      8 C4          0.3932    1.9057    0.3704 C.2       1 <0>         0.6789
      9 O2          0.4233    0.7087    0.5818 O.2       1 <0>        -0.5327
     10 C5          2.8060    1.8269    0.1029 C.3       1 <0>         0.1443
     11 C6          3.0823    1.3171   -1.3129 C.3       1 <0>        -0.1367
     12 C7          4.4051    0.5485   -1.3292 C.3       1 <0>        -0.1456
     13 C8          4.6814    0.0387   -2.7450 C.3       1 <0>        -0.0029
     14 C9          7.0843    0.1963   -2.4877 C.3       1 <0>        -0.0008
     15 C10         8.3766   -0.6219   -2.4340 C.3       1 <0>         0.0217
     16 N4          8.5611   -1.3257   -3.7108 N.pl3     1 <0>        -0.4829
     17 C11         7.4284   -2.2213   -3.9837 C.3       1 <0>         0.0173
     18 C12         6.1361   -1.4030   -4.0374 C.3       1 <0>         0.0026
     19 C13         9.7664   -2.0260   -3.7256 C.ar      1 <0>         0.0812
     20 C14        10.4947   -2.1813   -2.5657 C.ar      1 <0>        -0.1408
     21 C15        11.6964   -2.8835   -2.5687 C.ar      1 <0>        -0.1158
     22 C16        12.1912   -3.4252   -3.7158 C.ar      1 <0>        -0.0881
     23 C17        11.4824   -3.2847   -4.9213 C.ar      1 <0>        -0.0708
     24 C18        10.2549   -2.5774   -4.9297 C.ar      1 <0>        -0.0049
     25 C19         9.5469   -2.4379   -6.1332 C.ar      1 <0>        -0.1649
     26 C20        10.0499   -2.9838   -7.2801 C.ar      1 <0>         0.1412
     27 C21        11.2610   -3.6818   -7.2702 C.ar      1 <0>        -0.1852
     28 C22        11.9704   -3.8345   -6.1198 C.ar      1 <0>        -0.0583
     29 O3          9.3633   -2.8476   -8.4452 O.3       1 <0>        -0.3171
     30 C23         9.9390   -3.4413   -9.6106 C.3       1 <0>         0.0231
     31 H1         -2.2167    1.8112    1.7308 H         1 <0>         0.0809
     32 H2         -2.8540    2.2926    0.1401 H         1 <0>         0.0986
     33 H3         -1.9180    0.7877    0.3055 H         1 <0>         0.0965
     34 H4          0.4017    5.6648   -0.3060 H         1 <0>         0.2278
     35 H5          3.6143    2.4882    0.4152 H         1 <0>         0.1043
     36 H6          2.7433    0.9812    0.7878 H         1 <0>         0.1061
     37 H7          2.2740    0.6558   -1.6252 H         1 <0>         0.0811
     38 H8          3.1449    2.1627   -1.9978 H         1 <0>         0.0840
     39 H9          5.2134    1.2098   -1.0169 H         1 <0>         0.0927
     40 H10         4.3425   -0.2971   -0.6443 H         1 <0>         0.0923
     41 H11         3.8731   -0.6226   -3.0573 H         1 <0>         0.1313
     42 H12         4.7441    0.8843   -3.4299 H         1 <0>         0.1342
     43 H13         7.1581    0.9411   -3.2801 H         1 <0>         0.1413
     44 H14         6.9304    0.6962   -1.5314 H         1 <0>         0.1384
     45 H15         8.3135   -1.3486   -1.6240 H         1 <0>         0.0709
     46 H16         9.2218    0.0441   -2.2604 H         1 <0>         0.1291
     47 H17         7.3545   -2.9661   -3.1914 H         1 <0>         0.0693
     48 H18         7.5822   -2.7212   -4.9400 H         1 <0>         0.1333
     49 H19         5.2909   -2.0691   -4.2110 H         1 <0>         0.1378
     50 H20         6.1987   -0.6764   -4.8475 H         1 <0>         0.1413
     51 H21        10.1265   -1.7571   -1.6432 H         1 <0>         0.1270
     52 H22        12.2479   -2.9965   -1.6471 H         1 <0>         0.1296
     53 H23        13.1276   -3.9630   -3.6992 H         1 <0>         0.1330
     54 H24         8.6099   -1.9012   -6.1528 H         1 <0>         0.1365
     55 H25        11.6388   -4.1055   -8.1890 H         1 <0>         0.1364
     56 H26        12.9046   -4.3763   -6.1269 H         1 <0>         0.1387
     57 H27         9.2919   -3.2592  -10.4686 H         1 <0>         0.1058
     58 H28        10.9195   -3.0024   -9.7954 H         1 <0>         0.0600
     59 H29        10.0448   -4.5152   -9.4568 H         1 <0>         0.0595
     60 N5          5.9513   -0.7185   -2.7404 N.4       1 <0>        -0.3980
     61 H30         5.9174   -1.4221   -1.9934 H         1 <0>         0.4253
@<TRIPOS>BOND
     1    1    2 1
     2    1   31 1
     3    1   32 1
     4    1   33 1
     5    2    8 am
     6    2    3 am
     7    3    4 2
     8    3    5 1
     9    5    6 2
    10    5   34 1
    11    6    7 1
    12    7    8 am
    13    7   10 1
    14    8    9 2
    15   10   11 1
    16   10   35 1
    17   10   36 1
    18   11   12 1
    19   11   37 1
    20   11   38 1
    21   12   13 1
    22   12   39 1
    23   12   40 1
    24   13   41 1
    25   13   42 1
    26   13   60 1
    27   14   15 1
    28   14   43 1
    29   14   44 1
    30   14   60 1
    31   15   16 1
    32   15   45 1
    33   15   46 1
    34   16   17 1
    35   16   19 1
    36   17   18 1
    37   17   47 1
    38   17   48 1
    39   18   49 1
    40   18   50 1
    41   18   60 1
    42   19   24 ar
    43   19   20 ar
    44   20   21 ar
    45   20   51 1
    46   21   22 ar
    47   21   52 1
    48   22   23 ar
    49   22   53 1
    50   23   28 ar
    51   23   24 ar
    52   24   25 ar
    53   25   26 ar
    54   25   54 1
    55   26   27 ar
    56   26   29 1
    57   27   28 ar
    58   27   55 1
    59   28   56 1
    60   29   30 1
    61   30   57 1
    62   30   58 1
    63   30   59 1
    64   60   61 1
@<TRIPOS>MOLECULE
ZINC00000681
   42    43     0     0     0
SMALL
USER_CHARGES
1-(p-tolyl)-2-pyrrolidin-1-yl-pentan-1-one
@<TRIPOS>ATOM
      1 C1          0.1319    0.0163   -2.1452 C.3       1 <0>        -0.1586
      2 C2         -0.6057    0.8950   -1.1330 C.3       1 <0>        -0.1334
      3 C3          0.0088    0.7005    0.2546 C.3       1 <0>        -0.1439
      4 C4         -0.7288    1.5792    1.2668 C.3       1 <0>         0.0057
      5 H1         -0.7197    2.5287    0.9530 H         1 <0>         0.1422
      6 C5         -0.0473    1.4818    2.6074 C.2       1 <0>         0.3996
      7 O1         -0.4875    0.7390    3.4587 O.2       1 <0>        -0.4290
      8 C6          1.1525    2.2882    2.8832 C.ar      1 <0>        -0.1978
      9 C7          1.6665    3.1418    1.9019 C.ar      1 <0>        -0.0678
     10 C8          2.7874    3.8987    2.1702 C.ar      1 <0>        -0.1307
     11 C9          3.4105    3.8064    3.4026 C.ar      1 <0>        -0.0232
     12 C10         2.9114    2.9594    4.3768 C.ar      1 <0>        -0.1310
     13 C11         1.7878    2.2006    4.1260 C.ar      1 <0>        -0.0380
     14 C12         4.6390    4.6322    3.6851 C.3       1 <0>        -0.1334
     15 C13        -2.1776   -0.3313    1.6900 C.3       1 <0>        -0.0238
     16 C14        -3.5940   -0.5129    2.2911 C.3       1 <0>        -0.1409
     17 C15        -3.7843    0.7760    3.1233 C.3       1 <0>        -0.1380
     18 C16        -2.8001    1.7942    2.5183 C.3       1 <0>        -0.0182
     19 H2         -0.3059    0.1549   -3.1338 H         1 <0>         0.0696
     20 H3          1.1847    0.2976   -2.1714 H         1 <0>         0.0659
     21 H4          0.0425   -1.0296   -1.8516 H         1 <0>         0.0615
     22 H5         -1.6585    0.6137   -1.1068 H         1 <0>         0.0601
     23 H6         -0.5163    1.9409   -1.4266 H         1 <0>         0.0816
     24 H7         -0.0806   -0.3454    0.5482 H         1 <0>         0.0980
     25 H8          1.0616    0.9818    0.2284 H         1 <0>         0.1191
     26 H9          1.1841    3.2115    0.9382 H         1 <0>         0.1305
     27 H10         3.1826    4.5622    1.4152 H         1 <0>         0.1384
     28 H11         3.4032    2.8928    5.3360 H         1 <0>         0.1394
     29 H12         1.3991    1.5406    4.8874 H         1 <0>         0.1394
     30 H13         5.5280    4.0715    3.3962 H         1 <0>         0.0859
     31 H14         4.5928    5.5594    3.1139 H         1 <0>         0.0777
     32 H15         4.6849    4.8629    4.7494 H         1 <0>         0.0780
     33 H16        -2.0691   -0.9170    0.7772 H         1 <0>         0.1343
     34 H17        -1.4131   -0.6050    2.4171 H         1 <0>         0.1516
     35 H18        -3.6312   -1.3944    2.9313 H         1 <0>         0.1159
     36 H19        -4.3429   -0.5764    1.5016 H         1 <0>         0.0963
     37 H20        -3.5411    0.5902    4.1694 H         1 <0>         0.1040
     38 H21        -4.8081    1.1384    3.0307 H         1 <0>         0.1041
     39 H22        -2.0681    2.0938    3.2683 H         1 <0>         0.1282
     40 H23        -3.3412    2.6690    2.1577 H         1 <0>         0.1336
     41 N1         -2.1410    1.1115    1.4041 N.4       1 <0>        -0.3837
     42 H24        -2.6460    1.3051    0.5313 H         1 <0>         0.4307
@<TRIPOS>BOND
     1    1    2 1
     2    1   19 1
     3    1   20 1
     4    1   21 1
     5    2    3 1
     6    2   22 1
     7    2   23 1
     8    3    4 1
     9    3   24 1
    10    3   25 1
    11    4    5 1
    12    4    6 1
    13    4   41 1
    14    6    7 2
    15    6    8 1
    16    8   13 ar
    17    8    9 ar
    18    9   10 ar
    19    9   26 1
    20   10   11 ar
    21   10   27 1
    22   11   12 ar
    23   11   14 1
    24   12   13 ar
    25   12   28 1
    26   13   29 1
    27   14   30 1
    28   14   31 1
    29   14   32 1
    30   15   16 1
    31   15   33 1
    32   15   34 1
    33   15   41 1
    34   16   17 1
    35   16   35 1
    36   16   36 1
    37   17   18 1
    38   17   37 1
    39   17   38 1
    40   18   39 1
    41   18   40 1
    42   18   41 1
    43   41   42 1
@<TRIPOS>MOLECULE
ZINC01849892
   42    43     0     0     0
SMALL
USER_CHARGES
(2S)-1-(p-tolyl)-2-pyrrolidin-1-yl-pentan-1-one
@<TRIPOS>ATOM
      1 C1         -1.6527    1.5361   -1.2748 C.3       1 <0>        -0.1557
      2 C2         -1.9466    0.0365   -1.1983 C.3       1 <0>        -0.1400
      3 C3         -1.3228   -0.5412    0.0737 C.3       1 <0>        -0.1436
      4 C4         -1.5070   -2.0600    0.0876 C.3       1 <0>         0.0057
      5 H1         -1.0765   -2.4405    0.9061 H         1 <0>         0.1419
      6 C5         -2.9779   -2.3876    0.1006 C.2       1 <0>         0.4000
      7 O1         -3.5176   -2.7931   -0.9067 O.2       1 <0>        -0.4343
      8 C6         -3.7592   -2.2154    1.3357 C.ar      1 <0>        -0.1942
      9 C7         -3.1391   -1.7534    2.5011 C.ar      1 <0>        -0.0703
     10 C8         -3.8793   -1.5892    3.6528 C.ar      1 <0>        -0.1303
     11 C9         -5.2299   -1.8916    3.6608 C.ar      1 <0>        -0.0247
     12 C10        -5.8496   -2.3547    2.5131 C.ar      1 <0>        -0.1304
     13 C11        -5.1245   -2.5183    1.3518 C.ar      1 <0>        -0.0387
     14 C12        -6.0300   -1.7152    4.9256 C.3       1 <0>        -0.1330
     15 C13         0.5542   -2.2876   -1.1883 C.3       1 <0>        -0.0102
     16 C14         1.1307   -3.3612   -2.1452 C.3       1 <0>        -0.1457
     17 C15         0.3426   -4.6323   -1.7537 C.3       1 <0>        -0.1433
     18 C16        -0.9397   -4.1171   -1.0740 C.3       1 <0>        -0.0153
     19 H2         -2.0971    1.9477   -2.1810 H         1 <0>         0.0690
     20 H3         -2.0771    2.0344   -0.4032 H         1 <0>         0.0664
     21 H4         -0.5745    1.6944   -1.2946 H         1 <0>         0.0625
     22 H5         -3.0249   -0.1218   -1.1784 H         1 <0>         0.0786
     23 H6         -1.5222   -0.4618   -2.0698 H         1 <0>         0.0572
     24 H7         -0.2592   -0.3040    0.0969 H         1 <0>         0.1059
     25 H8         -1.8108   -0.1081    0.9468 H         1 <0>         0.1204
     26 H9         -2.0844   -1.5213    2.4976 H         1 <0>         0.1300
     27 H10        -3.4029   -1.2280    4.5522 H         1 <0>         0.1381
     28 H11        -6.9040   -2.5881    2.5272 H         1 <0>         0.1392
     29 H12        -5.6096   -2.8790    0.4569 H         1 <0>         0.1392
     30 H13        -6.0052   -2.6394    5.5030 H         1 <0>         0.0853
     31 H14        -5.6015   -0.9059    5.5167 H         1 <0>         0.0775
     32 H15        -7.0620   -1.4729    4.6719 H         1 <0>         0.0779
     33 H16         0.6847   -1.2896   -1.6065 H         1 <0>         0.1394
     34 H17         1.0204   -2.3581   -0.2055 H         1 <0>         0.1363
     35 H18         2.1977   -3.5001   -1.9711 H         1 <0>         0.1189
     36 H19         0.9399   -3.0940   -3.1845 H         1 <0>         0.0995
     37 H20         0.9228   -5.2377   -1.0573 H         1 <0>         0.1048
     38 H21         0.0930   -5.2115   -2.6427 H         1 <0>         0.1066
     39 H22        -0.9761   -4.4613   -0.0405 H         1 <0>         0.1273
     40 H23        -1.8177   -4.4710   -1.6143 H         1 <0>         0.1377
     41 N1         -0.8689   -2.6561   -1.1245 N.4       1 <0>        -0.3887
     42 H24        -1.3536   -2.3142   -1.9627 H         1 <0>         0.4330
@<TRIPOS>BOND
     1    1    2 1
     2    1   19 1
     3    1   20 1
     4    1   21 1
     5    2    3 1
     6    2   22 1
     7    2   23 1
     8    3    4 1
     9    3   24 1
    10    3   25 1
    11    4    5 1
    12    4    6 1
    13    4   41 1
    14    6    7 2
    15    6    8 1
    16    8   13 ar
    17    8    9 ar
    18    9   10 ar
    19    9   26 1
    20   10   11 ar
    21   10   27 1
    22   11   12 ar
    23   11   14 1
    24   12   13 ar
    25   12   28 1
    26   13   29 1
    27   14   30 1
    28   14   31 1
    29   14   32 1
    30   15   16 1
    31   15   33 1
    32   15   34 1
    33   15   41 1
    34   16   17 1
    35   16   35 1
    36   16   36 1
    37   17   18 1
    38   17   37 1
    39   17   38 1
    40   18   39 1
    41   18   40 1
    42   18   41 1
    43   41   42 1
@<TRIPOS>MOLECULE
ZINC13682123
   45    47     0     0     0
SMALL
USER_CHARGES
(2R)-1-(2-naphthyl)-2-pyrrolidin-1-yl-pentan-1-one
@<TRIPOS>ATOM
      1 C1          5.0888    1.8071   -3.3614 C.3       1 <0>        -0.1585
      2 C2          5.0510    2.0942   -1.8590 C.3       1 <0>        -0.1333
      3 C3          3.7711    2.8599   -1.5181 C.3       1 <0>        -0.1439
      4 C4          3.7334    3.1469   -0.0157 C.3       1 <0>         0.0068
      5 H1          3.8357    2.2903    0.4900 H         1 <0>         0.1429
      6 C5          2.4183    3.7915    0.3397 C.2       1 <0>         0.3991
      7 O1          2.3474    4.9956    0.4644 O.2       1 <0>        -0.4312
      8 C6          1.2211    2.9601    0.5353 C.ar      1 <0>        -0.1922
      9 C7          1.3088    1.5614    0.3892 C.ar      1 <0>        -0.0982
     10 C8          0.2181    0.7747    0.5652 C.ar      1 <0>        -0.0976
     11 C9         -1.0230    1.3526    0.8927 C.ar      1 <0>        -0.0185
     12 C10        -2.1636    0.5561    1.0850 C.ar      1 <0>        -0.1179
     13 C11        -3.3500    1.1418    1.4064 C.ar      1 <0>        -0.0845
     14 C12        -3.4516    2.5238    1.5547 C.ar      1 <0>        -0.1098
     15 C13        -2.3673    3.3279    1.3815 C.ar      1 <0>        -0.0936
     16 C14        -1.1246    2.7587    1.0483 C.ar      1 <0>        -0.0743
     17 C15         0.0122    3.5586    0.8630 C.ar      1 <0>        -0.0002
     18 C16         4.8162    5.2698   -0.5146 C.3       1 <0>        -0.0237
     19 C17         5.6457    6.2894    0.3057 C.3       1 <0>        -0.1409
     20 C18         5.2334    5.9779    1.7627 C.3       1 <0>        -0.1380
     21 C19         4.6991    4.5340    1.7296 C.3       1 <0>        -0.0181
     22 H2          4.2218    1.2074   -3.6386 H         1 <0>         0.0660
     23 H3          5.0707    2.7479   -3.9116 H         1 <0>         0.0613
     24 H4          6.0006    1.2616   -3.6043 H         1 <0>         0.0694
     25 H5          5.9180    2.6939   -1.5819 H         1 <0>         0.0598
     26 H6          5.0691    1.1534   -1.3088 H         1 <0>         0.0817
     27 H7          2.9041    2.2601   -1.7953 H         1 <0>         0.1200
     28 H8          3.7530    3.8006   -2.0683 H         1 <0>         0.0976
     29 H9          2.2563    1.1102    0.1343 H         1 <0>         0.1287
     30 H10         0.3009   -0.2959    0.4494 H         1 <0>         0.1401
     31 H11        -2.1010   -0.5164    0.9736 H         1 <0>         0.1372
     32 H12        -4.2257    0.5260    1.5490 H         1 <0>         0.1348
     33 H13        -4.4045    2.9630    1.8105 H         1 <0>         0.1347
     34 H14        -2.4605    4.3974    1.4988 H         1 <0>         0.1358
     35 H15        -0.0523    4.6309    0.9740 H         1 <0>         0.1445
     36 H16         5.2904    5.0731   -1.4762 H         1 <0>         0.1342
     37 H17         3.7959    5.6271   -0.6536 H         1 <0>         0.1517
     38 H18         5.3751    7.3109    0.0382 H         1 <0>         0.1157
     39 H19         6.7132    6.1221    0.1627 H         1 <0>         0.0962
     40 H20         4.4513    6.6633    2.0894 H         1 <0>         0.1038
     41 H21         6.0977    6.0464    2.4233 H         1 <0>         0.1039
     42 H22         3.6507    4.5191    2.0275 H         1 <0>         0.1282
     43 H23         5.2840    3.9030    2.3987 H         1 <0>         0.1335
     44 N1          4.8446    4.0772    0.3467 N.4       1 <0>        -0.3839
     45 H24         5.7415    3.5900    0.2351 H         1 <0>         0.4306
@<TRIPOS>BOND
     1    1    2 1
     2    1   22 1
     3    1   23 1
     4    1   24 1
     5    2    3 1
     6    2   25 1
     7    2   26 1
     8    3    4 1
     9    3   27 1
    10    3   28 1
    11    4    5 1
    12    4    6 1
    13    4   44 1
    14    6    7 2
    15    6    8 1
    16    8   17 ar
    17    8    9 ar
    18    9   10 ar
    19    9   29 1
    20   10   11 ar
    21   10   30 1
    22   11   16 ar
    23   11   12 ar
    24   12   13 ar
    25   12   31 1
    26   13   14 ar
    27   13   32 1
    28   14   15 ar
    29   14   33 1
    30   15   16 ar
    31   15   34 1
    32   16   17 ar
    33   17   35 1
    34   18   19 1
    35   18   36 1
    36   18   37 1
    37   18   44 1
    38   19   20 1
    39   19   38 1
    40   19   39 1
    41   20   21 1
    42   20   40 1
    43   20   41 1
    44   21   42 1
    45   21   43 1
    46   21   44 1
    47   44   45 1
