@<TRIPOS>MOLECULE
ZINC44405223
   34    34     0     0     0
SMALL
USER_CHARGES

@<TRIPOS>ATOM
      1 C1         -0.0187    1.5258    0.0104 C.3       1 <0>        -0.1755
      2 C2          0.0021   -0.0041    0.0020 C.3       1 <0>        -0.1485
      3 C3         -1.4333   -0.5336    0.0129 C.3       1 <0>         0.0334
      4 H1         -1.9862   -0.1019   -0.8214 H         1 <0>         0.1428
      5 C4         -1.4157   -2.0577   -0.1212 C.3       1 <0>        -0.0964
      6 C5         -2.8290   -2.5684   -0.2340 C.ar      1 <0>        -0.1409
      7 C6         -3.5349   -2.9025    0.9075 C.ar      1 <0>        -0.1183
      8 C7         -4.8299   -3.3712    0.8080 C.ar      1 <0>        -0.0936
      9 C8         -5.4240   -3.5067   -0.4411 C.ar      1 <0>        -0.0680
     10 C9         -4.7117   -3.1696   -1.5858 C.ar      1 <0>        -0.1267
     11 C10        -3.4189   -2.6966   -1.4783 C.ar      1 <0>        -0.0802
     12 S1         -7.0760   -4.1050   -0.5730 S.3       1 <0>        -0.0960
     13 C11        -7.4012   -4.1061   -2.3576 C.3       1 <0>        -0.1130
     14 C12        -8.8220   -4.6110   -2.6168 C.3       1 <0>        -0.1426
     15 N1         -2.0833   -0.1607    1.2764 N.4       1 <0>        -0.6387
     16 H2          1.0039    1.9031    0.0027 H         1 <0>         0.0843
     17 H3         -0.5459    1.8868   -0.8726 H         1 <0>         0.0725
     18 H4         -0.5289    1.8773    0.9072 H         1 <0>         0.0521
     19 H5          0.5123   -0.3556   -0.8948 H         1 <0>         0.1134
     20 H6          0.5293   -0.3651    0.8851 H         1 <0>         0.0903
     21 H7         -0.8559   -2.3374   -1.0137 H         1 <0>         0.1202
     22 H8         -0.9406   -2.4942    0.7573 H         1 <0>         0.0987
     23 H9         -3.0726   -2.7969    1.8778 H         1 <0>         0.1270
     24 H10        -5.3803   -3.6325    1.6997 H         1 <0>         0.1366
     25 H11        -5.1703   -3.2736   -2.5581 H         1 <0>         0.1314
     26 H12        -2.8662   -2.4306   -2.3672 H         1 <0>         0.1325
     27 H13        -7.2991   -3.0929   -2.7462 H         1 <0>         0.0903
     28 H14        -6.6864   -4.7604   -2.8567 H         1 <0>         0.0913
     29 H15        -8.9241   -5.6243   -2.2283 H         1 <0>         0.0702
     30 H16        -9.5368   -3.9567   -2.1177 H         1 <0>         0.0695
     31 H17        -9.0174   -4.6117   -3.6892 H         1 <0>         0.0822
     32 H18        -2.0949    0.8443    1.3648 H         1 <0>         0.4339
     33 H19        -3.0299   -0.5100    1.2835 H         1 <0>         0.4337
     34 H20        -1.5715   -0.5604    2.0487 H         1 <0>         0.4318
@<TRIPOS>BOND
     1    1    2 1
     2    1   16 1
     3    1   17 1
     4    1   18 1
     5    2    3 1
     6    2   19 1
     7    2   20 1
     8    3    4 1
     9    3    5 1
    10    3   15 1
    11    5    6 1
    12    5   21 1
    13    5   22 1
    14    6   11 ar
    15    6    7 ar
    16    7    8 ar
    17    7   23 1
    18    8    9 ar
    19    8   24 1
    20    9   10 ar
    21    9   12 1
    22   10   11 ar
    23   10   25 1
    24   11   26 1
    25   12   13 1
    26   13   14 1
    27   13   27 1
    28   13   28 1
    29   14   29 1
    30   14   30 1
    31   14   31 1
    32   15   32 1
    33   15   33 1
    34   15   34 1
@<TRIPOS>MOLECULE
ZINC44405226
   34    34     0     0     0
SMALL
USER_CHARGES

@<TRIPOS>ATOM
      1 C1         -0.0187    1.5258    0.0104 C.3       1 <0>        -0.1756
      2 C2          0.0021   -0.0041    0.0020 C.3       1 <0>        -0.1484
      3 C3         -1.4333   -0.5336    0.0129 C.3       1 <0>         0.0332
      4 H1         -1.9701   -0.1109    0.8621 H         1 <0>         0.1437
      5 C4         -1.4133   -2.0590    0.1302 C.3       1 <0>        -0.0964
      6 C5         -2.8242   -2.5711    0.2645 C.ar      1 <0>        -0.1406
      7 C6         -3.3923   -2.7074    1.5181 C.ar      1 <0>        -0.0814
      8 C7         -4.6847   -3.1767    1.6450 C.ar      1 <0>        -0.0915
      9 C8         -5.4149   -3.5118    0.5110 C.ar      1 <0>        -0.0681
     10 C9         -4.8410   -3.3731   -0.7471 C.ar      1 <0>        -0.1289
     11 C10        -3.5499   -2.8983   -0.8665 C.ar      1 <0>        -0.1171
     12 S1         -7.0642   -4.1116    0.6680 S.3       1 <0>        -0.0939
     13 C11        -7.5895   -4.4045   -1.0434 C.3       1 <0>        -0.1130
     14 C12        -9.0246   -4.9348   -1.0527 C.3       1 <0>        -0.1430
     15 N1         -2.1072   -0.1473   -1.2339 N.4       1 <0>        -0.6386
     16 H2          1.0039    1.9031    0.0027 H         1 <0>         0.0843
     17 H3         -0.5459    1.8868   -0.8726 H         1 <0>         0.0518
     18 H4         -0.5289    1.8773    0.9072 H         1 <0>         0.0729
     19 H5          0.5123   -0.3556   -0.8948 H         1 <0>         0.0899
     20 H6          0.5293   -0.3651    0.8851 H         1 <0>         0.1138
     21 H7         -0.9551   -2.4861   -0.7619 H         1 <0>         0.0979
     22 H8         -0.8366   -2.3483    1.0088 H         1 <0>         0.1212
     23 H9         -2.8242   -2.4467    2.3988 H         1 <0>         0.1353
     24 H10        -5.1274   -3.2835    2.6243 H         1 <0>         0.1374
     25 H11        -5.4055   -3.6326   -1.6305 H         1 <0>         0.1307
     26 H12        -3.1046   -2.7864   -1.8441 H         1 <0>         0.1243
     27 H13        -7.5439   -3.4699   -1.6024 H         1 <0>         0.0889
     28 H14        -6.9283   -5.1372   -1.5060 H         1 <0>         0.0904
     29 H15        -9.0702   -5.8694   -0.4937 H         1 <0>         0.0705
     30 H16        -9.6857   -4.2021   -0.5900 H         1 <0>         0.0698
     31 H17        -9.3402   -5.1108   -2.0811 H         1 <0>         0.0817
     32 H18        -3.0538   -0.4965   -1.2267 H         1 <0>         0.4332
     33 H19        -2.1205    0.8587   -1.3113 H         1 <0>         0.4340
     34 H20        -1.6103   -0.5386   -2.0201 H         1 <0>         0.4315
@<TRIPOS>BOND
     1    1    2 1
     2    1   16 1
     3    1   17 1
     4    1   18 1
     5    2    3 1
     6    2   19 1
     7    2   20 1
     8    3    4 1
     9    3    5 1
    10    3   15 1
    11    5    6 1
    12    5   21 1
    13    5   22 1
    14    6   11 ar
    15    6    7 ar
    16    7    8 ar
    17    7   23 1
    18    8    9 ar
    19    8   24 1
    20    9   10 ar
    21    9   12 1
    22   10   11 ar
    23   10   25 1
    24   11   26 1
    25   12   13 1
    26   13   14 1
    27   13   27 1
    28   13   28 1
    29   14   29 1
    30   14   30 1
    31   14   31 1
    32   15   32 1
    33   15   33 1
    34   15   34 1
@<TRIPOS>MOLECULE
ZINC36778797
   31    31     0     0     0
SMALL
USER_CHARGES

@<TRIPOS>ATOM
      1 C1         -0.0187    1.5258    0.0104 C.3       1 <0>        -0.1755
      2 C2          0.0021   -0.0041    0.0020 C.3       1 <0>        -0.1485
      3 C3         -1.4333   -0.5336    0.0129 C.3       1 <0>         0.0333
      4 H1         -1.9862   -0.1019   -0.8214 H         1 <0>         0.1429
      5 C4         -1.4157   -2.0577   -0.1212 C.3       1 <0>        -0.0965
      6 C5         -2.8290   -2.5684   -0.2340 C.ar      1 <0>        -0.1404
      7 C6         -3.5349   -2.9025    0.9075 C.ar      1 <0>        -0.1186
      8 C7         -4.8299   -3.3712    0.8080 C.ar      1 <0>        -0.0929
      9 C8         -5.4240   -3.5067   -0.4411 C.ar      1 <0>        -0.0699
     10 C9         -4.7117   -3.1696   -1.5858 C.ar      1 <0>        -0.1266
     11 C10        -3.4189   -2.6966   -1.4783 C.ar      1 <0>        -0.0803
     12 S1         -7.0760   -4.1050   -0.5730 S.3       1 <0>        -0.0927
     13 C11        -7.4012   -4.1061   -2.3576 C.3       1 <0>        -0.1505
     14 N1         -2.0833   -0.1607    1.2764 N.4       1 <0>        -0.6386
     15 H2          1.0039    1.9031    0.0027 H         1 <0>         0.0843
     16 H3         -0.5459    1.8868   -0.8726 H         1 <0>         0.0725
     17 H4         -0.5289    1.8773    0.9072 H         1 <0>         0.0521
     18 H5          0.5123   -0.3556   -0.8948 H         1 <0>         0.1134
     19 H6          0.5293   -0.3651    0.8851 H         1 <0>         0.0903
     20 H7         -0.8559   -2.3374   -1.0137 H         1 <0>         0.1203
     21 H8         -0.9406   -2.4942    0.7573 H         1 <0>         0.0988
     22 H9         -3.0726   -2.7969    1.8778 H         1 <0>         0.1272
     23 H10        -5.3803   -3.6325    1.6997 H         1 <0>         0.1369
     24 H11        -5.1703   -3.2736   -2.5581 H         1 <0>         0.1321
     25 H12        -2.8662   -2.4306   -2.3672 H         1 <0>         0.1326
     26 H13        -8.4134   -4.4658   -2.5423 H         1 <0>         0.1181
     27 H14        -7.2991   -3.0929   -2.7462 H         1 <0>         0.0877
     28 H15        -6.6864   -4.7604   -2.8567 H         1 <0>         0.0888
     29 H16        -3.0299   -0.5100    1.2835 H         1 <0>         0.4337
     30 H17        -1.5715   -0.5604    2.0487 H         1 <0>         0.4319
     31 H18        -2.0949    0.8443    1.3648 H         1 <0>         0.4340
@<TRIPOS>BOND
     1    1    2 1
     2    1   15 1
     3    1   16 1
     4    1   17 1
     5    2    3 1
     6    2   18 1
     7    2   19 1
     8    3    4 1
     9    3    5 1
    10    3   14 1
    11    5    6 1
    12    5   20 1
    13    5   21 1
    14    6   11 ar
    15    6    7 ar
    16    7    8 ar
    17    7   22 1
    18    8    9 ar
    19    8   23 1
    20    9   10 ar
    21    9   12 1
    22   10   11 ar
    23   10   24 1
    24   11   25 1
    25   12   13 1
    26   13   26 1
    27   13   27 1
    28   13   28 1
    29   14   29 1
    30   14   30 1
    31   14   31 1
@<TRIPOS>MOLECULE
ZINC36778798
   31    31     0     0     0
SMALL
USER_CHARGES

@<TRIPOS>ATOM
      1 C1         -0.0187    1.5258    0.0104 C.3       1 <0>        -0.1756
      2 C2          0.0021   -0.0041    0.0020 C.3       1 <0>        -0.1484
      3 C3         -1.4333   -0.5336    0.0129 C.3       1 <0>         0.0331
      4 H1         -1.9701   -0.1109    0.8621 H         1 <0>         0.1438
      5 C4         -1.4133   -2.0590    0.1302 C.3       1 <0>        -0.0965
      6 C5         -2.8242   -2.5711    0.2645 C.ar      1 <0>        -0.1400
      7 C6         -3.3923   -2.7074    1.5181 C.ar      1 <0>        -0.0817
      8 C7         -4.6847   -3.1767    1.6450 C.ar      1 <0>        -0.0907
      9 C8         -5.4149   -3.5118    0.5110 C.ar      1 <0>        -0.0700
     10 C9         -4.8410   -3.3731   -0.7471 C.ar      1 <0>        -0.1288
     11 C10        -3.5499   -2.8983   -0.8665 C.ar      1 <0>        -0.1173
     12 S1         -7.0642   -4.1116    0.6680 S.3       1 <0>        -0.0905
     13 C11        -7.5895   -4.4045   -1.0434 C.3       1 <0>        -0.1508
     14 N1         -2.1072   -0.1473   -1.2339 N.4       1 <0>        -0.6386
     15 H2          1.0039    1.9031    0.0027 H         1 <0>         0.0844
     16 H3         -0.5459    1.8868   -0.8726 H         1 <0>         0.0518
     17 H4         -0.5289    1.8773    0.9072 H         1 <0>         0.0729
     18 H5          0.5123   -0.3556   -0.8948 H         1 <0>         0.0900
     19 H6          0.5293   -0.3651    0.8851 H         1 <0>         0.1138
     20 H7         -0.9551   -2.4861   -0.7619 H         1 <0>         0.0980
     21 H8         -0.8366   -2.3483    1.0088 H         1 <0>         0.1213
     22 H9         -2.8242   -2.4467    2.3988 H         1 <0>         0.1355
     23 H10        -5.1274   -3.2835    2.6243 H         1 <0>         0.1377
     24 H11        -5.4055   -3.6326   -1.6305 H         1 <0>         0.1315
     25 H12        -3.1046   -2.7864   -1.8441 H         1 <0>         0.1245
     26 H13        -8.6119   -4.7823   -1.0500 H         1 <0>         0.1179
     27 H14        -7.5439   -3.4699   -1.6024 H         1 <0>         0.0863
     28 H15        -6.9283   -5.1372   -1.5060 H         1 <0>         0.0879
     29 H16        -2.1205    0.8587   -1.3113 H         1 <0>         0.4340
     30 H17        -1.6103   -0.5386   -2.0201 H         1 <0>         0.4315
     31 H18        -3.0538   -0.4965   -1.2267 H         1 <0>         0.4332
@<TRIPOS>BOND
     1    1    2 1
     2    1   15 1
     3    1   16 1
     4    1   17 1
     5    2    3 1
     6    2   18 1
     7    2   19 1
     8    3    4 1
     9    3    5 1
    10    3   14 1
    11    5    6 1
    12    5   20 1
    13    5   21 1
    14    6   11 ar
    15    6    7 ar
    16    7    8 ar
    17    7   22 1
    18    8    9 ar
    19    8   23 1
    20    9   10 ar
    21    9   12 1
    22   10   11 ar
    23   10   24 1
    24   11   25 1
    25   12   13 1
    26   13   26 1
    27   13   27 1
    28   13   28 1
    29   14   29 1
    30   14   30 1
    31   14   31 1
@<TRIPOS>MOLECULE
ZINC49013806
   34    34     0     0     0
SMALL
USER_CHARGES

@<TRIPOS>ATOM
      1 C1          0.9451   -0.3057    1.2152 C.3       1 <0>        -0.1580
      2 C2          0.0970    0.0888    0.0045 C.3       1 <0>        -0.1456
      3 C3          0.7862   -0.3843   -1.2770 C.3       1 <0>         0.0283
      4 H1          1.8058    0.0000   -1.3043 H         1 <0>         0.1398
      5 C4          0.8168   -1.9137   -1.3048 C.3       1 <0>        -0.0986
      6 C5          1.6023   -2.3788   -2.5038 C.ar      1 <0>        -0.1376
      7 C6          0.9587   -2.5944   -3.7088 C.ar      1 <0>        -0.1198
      8 C7          1.6751   -3.0209   -4.8095 C.ar      1 <0>        -0.0920
      9 C8          3.0446   -3.2331   -4.7054 C.ar      1 <0>        -0.0704
     10 C9          3.6881   -3.0150   -3.4931 C.ar      1 <0>        -0.1260
     11 C10         2.9660   -2.5835   -2.3980 C.ar      1 <0>        -0.0807
     12 S1          3.9629   -3.7779   -6.1071 S.3       1 <0>        -0.0935
     13 C11         5.6647   -3.9089   -5.4929 C.3       1 <0>        -0.1503
     14 N1          0.0444    0.1119   -2.4438 N.4       1 <0>        -0.5104
     15 C12         0.1275    1.5778   -2.4897 C.3       1 <0>        -0.0511
     16 H2          0.9772   -1.3921    1.2978 H         1 <0>         0.0693
     17 H3          1.9572    0.0792    1.0908 H         1 <0>         0.0667
     18 H4          0.5051    0.1146    2.1195 H         1 <0>         0.0780
     19 H5         -0.8855   -0.3769    0.0818 H         1 <0>         0.0896
     20 H6         -0.0157    1.1726   -0.0225 H         1 <0>         0.0886
     21 H7          1.2891   -2.2843   -0.3950 H         1 <0>         0.1219
     22 H8         -0.2019   -2.2964   -1.3671 H         1 <0>         0.0982
     23 H9         -0.1056   -2.4293   -3.7889 H         1 <0>         0.1270
     24 H10         1.1718   -3.1898   -5.7500 H         1 <0>         0.1369
     25 H11         4.7522   -3.1788   -3.4086 H         1 <0>         0.1321
     26 H12         3.4660   -2.4098   -1.4566 H         1 <0>         0.1323
     27 H13         5.7011   -4.6270   -4.6737 H         1 <0>         0.0887
     28 H14         6.3172   -4.2441   -6.2992 H         1 <0>         0.1179
     29 H15         5.9985   -2.9343   -5.1368 H         1 <0>         0.0875
     30 H16         0.4446   -0.2741   -3.2858 H         1 <0>         0.4277
     31 H17         1.1735    1.8835   -2.4632 H         1 <0>         0.1234
     32 H18        -0.3335    1.9393   -3.4089 H         1 <0>         0.1272
     33 H19        -0.3958    1.9985   -1.6310 H         1 <0>         0.1259
     34 H20        -0.9223   -0.1681   -2.3718 H         1 <0>         0.4269
@<TRIPOS>BOND
     1    1    2 1
     2    1   16 1
     3    1   17 1
     4    1   18 1
     5    2    3 1
     6    2   19 1
     7    2   20 1
     8    3    4 1
     9    3    5 1
    10    3   14 1
    11    5    6 1
    12    5   21 1
    13    5   22 1
    14    6   11 ar
    15    6    7 ar
    16    7    8 ar
    17    7   23 1
    18    8    9 ar
    19    8   24 1
    20    9   10 ar
    21    9   12 1
    22   10   11 ar
    23   10   25 1
    24   11   26 1
    25   12   13 1
    26   13   27 1
    27   13   28 1
    28   13   29 1
    29   14   15 1
    30   14   30 1
    31   14   34 1
    32   15   31 1
    33   15   32 1
    34   15   33 1
@<TRIPOS>MOLECULE
ZINC49013809
   34    34     0     0     0
SMALL
USER_CHARGES

@<TRIPOS>ATOM
      1 C1         -1.6099   -0.2980   -0.8036 C.3       1 <0>        -0.1582
      2 C2         -0.1579   -0.0898   -0.3684 C.3       1 <0>        -0.1455
      3 C3          0.7809   -0.6104   -1.4586 C.3       1 <0>         0.0280
      4 H1          0.5390   -0.1295   -2.4064 H         1 <0>         0.1407
      5 C4          0.6115   -2.1246   -1.5971 C.3       1 <0>        -0.0987
      6 C5          1.4439   -2.6197   -2.7516 C.ar      1 <0>        -0.1373
      7 C6          0.9005   -2.6696   -4.0224 C.ar      1 <0>        -0.0820
      8 C7          1.6600   -3.1231   -5.0827 C.ar      1 <0>        -0.0902
      9 C8          2.9722   -3.5292   -4.8717 C.ar      1 <0>        -0.0706
     10 C9          3.5151   -3.4772   -3.5934 C.ar      1 <0>        -0.1280
     11 C10         2.7512   -3.0177   -2.5389 C.ar      1 <0>        -0.1185
     12 S1          3.9451   -4.1091   -6.2214 S.3       1 <0>        -0.0911
     13 C11         5.5451   -4.5124   -5.4678 C.3       1 <0>        -0.1507
     14 N1          2.1709   -0.3043   -1.0949 N.4       1 <0>        -0.5103
     15 C12         2.3647    1.1518   -1.0831 C.3       1 <0>        -0.0511
     16 H2         -1.7649    0.1576   -1.7816 H         1 <0>         0.0673
     17 H3         -1.8220   -1.3655   -0.8623 H         1 <0>         0.0695
     18 H4         -2.2770    0.1657   -0.0769 H         1 <0>         0.0780
     19 H5          0.0247    0.9729   -0.2087 H         1 <0>         0.0887
     20 H6          0.0250   -0.6332    0.5586 H         1 <0>         0.0891
     21 H7          0.9379   -2.6123   -0.6785 H         1 <0>         0.0973
     22 H8         -0.4376   -2.3577   -1.7792 H         1 <0>         0.1229
     23 H9         -0.1194   -2.3538   -4.1857 H         1 <0>         0.1352
     24 H10         1.2347   -3.1624   -6.0746 H         1 <0>         0.1376
     25 H11         4.5345   -3.7920   -3.4257 H         1 <0>         0.1315
     26 H12         3.1737   -2.9733   -1.5459 H         1 <0>         0.1242
     27 H13         5.4045   -5.2775   -4.7043 H         1 <0>         0.0879
     28 H14         6.2244   -4.8848   -6.2346 H         1 <0>         0.1178
     29 H15         5.9678   -3.6172   -5.0116 H         1 <0>         0.0862
     30 H16         2.3688   -0.6775   -0.1786 H         1 <0>         0.4265
     31 H17         1.7699    1.5910   -0.2822 H         1 <0>         0.1261
     32 H18         3.4184    1.3767   -0.9182 H         1 <0>         0.1267
     33 H19         2.0497    1.5680   -2.0399 H         1 <0>         0.1239
     34 H20         2.7946   -0.7212   -1.7697 H         1 <0>         0.4271
@<TRIPOS>BOND
     1    1    2 1
     2    1   16 1
     3    1   17 1
     4    1   18 1
     5    2    3 1
     6    2   19 1
     7    2   20 1
     8    3    4 1
     9    3    5 1
    10    3   14 1
    11    5    6 1
    12    5   21 1
    13    5   22 1
    14    6   11 ar
    15    6    7 ar
    16    7    8 ar
    17    7   23 1
    18    8    9 ar
    19    8   24 1
    20    9   10 ar
    21    9   12 1
    22   10   11 ar
    23   10   25 1
    24   11   26 1
    25   12   13 1
    26   13   27 1
    27   13   28 1
    28   13   29 1
    29   14   15 1
    30   14   30 1
    31   14   34 1
    32   15   31 1
    33   15   32 1
    34   15   33 1
@<TRIPOS>MOLECULE
ZINC49019845
   38    39     0     0     0
SMALL
USER_CHARGES

@<TRIPOS>ATOM
      1 C1         -0.0187    1.5258    0.0104 C.3       1 <0>        -0.1848
      2 C2          0.0021   -0.0041    0.0020 C.3       1 <0>         0.0323
      3 H1         -1.0205   -0.3814    0.0098 H         1 <0>         0.1420
      4 C3          0.7182   -0.4975   -1.2568 C.3       1 <0>        -0.0975
      5 C4          0.6316   -2.0003   -1.3275 C.ar      1 <0>        -0.1417
      6 C5          1.6130   -2.7763   -0.7380 C.ar      1 <0>        -0.1181
      7 C6          1.5372   -4.1536   -0.8012 C.ar      1 <0>        -0.0934
      8 C7          0.4729   -4.7599   -1.4578 C.ar      1 <0>        -0.0714
      9 C8         -0.5116   -3.9769   -2.0486 C.ar      1 <0>        -0.1272
     10 C9         -0.4319   -2.6002   -1.9769 C.ar      1 <0>        -0.0799
     11 S1          0.3723   -6.5170   -1.5414 S.3       1 <0>        -0.0825
     12 C10        -1.1522   -6.8254   -2.4749 C.3       1 <0>        -0.0658
     13 C11        -1.3603   -8.3108   -2.6206 C.ar      1 <0>        -0.0906
     14 C12        -0.8277   -8.9800   -3.7066 C.ar      1 <0>        -0.0984
     15 C13        -1.0186  -10.3426   -3.8403 C.ar      1 <0>        -0.1173
     16 C14        -1.7416  -11.0360   -2.8878 C.ar      1 <0>        -0.1046
     17 C15        -2.2733  -10.3669   -1.8013 C.ar      1 <0>        -0.1182
     18 C16        -2.0788   -9.0051   -1.6654 C.ar      1 <0>        -0.0991
     19 N1          0.7126   -0.4907    1.1921 N.4       1 <0>        -0.6386
     20 H2          1.0039    1.9031    0.0027 H         1 <0>         0.0834
     21 H3         -0.5459    1.8868   -0.8726 H         1 <0>         0.1076
     22 H4         -0.5289    1.8773    0.9072 H         1 <0>         0.0842
     23 H5          0.2444   -0.0644   -2.1377 H         1 <0>         0.1199
     24 H6          1.7648   -0.1951   -1.2215 H         1 <0>         0.0984
     25 H7          2.4398   -2.3045   -0.2279 H         1 <0>         0.1267
     26 H8          2.3043   -4.7590   -0.3412 H         1 <0>         0.1362
     27 H9         -1.3401   -4.4447   -2.5597 H         1 <0>         0.1311
     28 H10        -1.1987   -1.9912   -2.4323 H         1 <0>         0.1323
     29 H11        -1.9983   -6.3904   -1.9428 H         1 <0>         0.0988
     30 H12        -1.0717   -6.3711   -3.4624 H         1 <0>         0.0997
     31 H13        -0.2629   -8.4383   -4.4508 H         1 <0>         0.1251
     32 H14        -0.6031  -10.8653   -4.6892 H         1 <0>         0.1289
     33 H15        -1.8913  -12.1004   -2.9926 H         1 <0>         0.1283
     34 H16        -2.8385  -10.9086   -1.0573 H         1 <0>         0.1284
     35 H17        -2.4911   -8.4830   -0.8146 H         1 <0>         0.1240
     36 H18         0.2403   -0.1653    2.0223 H         1 <0>         0.4361
     37 H19         0.7263   -1.4996    1.1866 H         1 <0>         0.4336
     38 H20         1.6592   -0.1414    1.1850 H         1 <0>         0.4320
@<TRIPOS>BOND
     1    1    2 1
     2    1   20 1
     3    1   21 1
     4    1   22 1
     5    2    3 1
     6    2    4 1
     7    2   19 1
     8    4    5 1
     9    4   23 1
    10    4   24 1
    11    5   10 ar
    12    5    6 ar
    13    6    7 ar
    14    6   25 1
    15    7    8 ar
    16    7   26 1
    17    8    9 ar
    18    8   11 1
    19    9   10 ar
    20    9   27 1
    21   10   28 1
    22   11   12 1
    23   12   13 1
    24   12   29 1
    25   12   30 1
    26   13   18 ar
    27   13   14 ar
    28   14   15 ar
    29   14   31 1
    30   15   16 ar
    31   15   32 1
    32   16   17 ar
    33   16   33 1
    34   17   18 ar
    35   17   34 1
    36   18   35 1
    37   19   36 1
    38   19   37 1
    39   19   38 1
@<TRIPOS>MOLECULE
ZINC49019848
   38    39     0     0     0
SMALL
USER_CHARGES

@<TRIPOS>ATOM
      1 C1         -0.0187    1.5258    0.0104 C.3       1 <0>        -0.1847
      2 C2          0.0021   -0.0041    0.0020 C.3       1 <0>         0.0320
      3 H1         -1.0205   -0.3814    0.0098 H         1 <0>         0.1429
      4 C3          0.7421   -0.5109    1.2415 C.3       1 <0>        -0.0975
      5 C4          0.6567   -2.0144    1.2978 C.ar      1 <0>        -0.1414
      6 C5         -0.3973   -2.6214    1.9560 C.ar      1 <0>        -0.0812
      7 C6         -0.4786   -3.9988    2.0100 C.ar      1 <0>        -0.0912
      8 C7          0.5002   -4.7752    1.4014 C.ar      1 <0>        -0.0715
      9 C8          1.5577   -4.1618    0.7404 C.ar      1 <0>        -0.1295
     10 C9          1.6296   -2.7839    0.6861 C.ar      1 <0>        -0.1168
     11 S1          0.4010   -6.5332    1.4681 S.3       1 <0>        -0.0806
     12 C10         1.8663   -7.0904    0.5554 C.3       1 <0>        -0.0657
     13 C11         1.9035   -8.5968    0.5363 C.ar      1 <0>        -0.0911
     14 C12         2.5494   -9.2850    1.5463 C.ar      1 <0>        -0.0985
     15 C13         2.5836  -10.6669    1.5288 C.ar      1 <0>        -0.1171
     16 C14         1.9714  -11.3604    0.5016 C.ar      1 <0>        -0.1044
     17 C15         1.3246  -10.6722   -0.5078 C.ar      1 <0>        -0.1181
     18 C16         1.2869   -9.2905   -0.4881 C.ar      1 <0>        -0.0993
     19 N1          0.6897   -0.4778   -1.2066 N.4       1 <0>        -0.6385
     20 H2          1.0039    1.9031    0.0027 H         1 <0>         0.0831
     21 H3         -0.5459    1.8868   -0.8726 H         1 <0>         0.0842
     22 H4         -0.5289    1.8773    0.9072 H         1 <0>         0.1080
     23 H5          1.7879   -0.2080    1.1895 H         1 <0>         0.0976
     24 H6          0.2852   -0.0874    2.1360 H         1 <0>         0.1208
     25 H7         -1.1576   -2.0173    2.4288 H         1 <0>         0.1350
     26 H8         -1.3016   -4.4721    2.5248 H         1 <0>         0.1370
     27 H9          2.3201   -4.7621    0.2663 H         1 <0>         0.1304
     28 H10         2.4489   -2.3066    0.1692 H         1 <0>         0.1242
     29 H11         1.8220   -6.7151   -0.4670 H         1 <0>         0.0974
     30 H12         2.7642   -6.7109    1.0431 H         1 <0>         0.0988
     31 H13         3.0278   -8.7432    2.3488 H         1 <0>         0.1250
     32 H14         3.0888  -11.2046    2.3175 H         1 <0>         0.1290
     33 H15         1.9986  -12.4400    0.4876 H         1 <0>         0.1284
     34 H16         0.8466  -11.2141   -1.3105 H         1 <0>         0.1285
     35 H17         0.7784   -8.7529   -1.2747 H         1 <0>         0.1238
     36 H18         1.6363   -0.1286   -1.2138 H         1 <0>         0.4316
     37 H19         0.7033   -1.4867   -1.2121 H         1 <0>         0.4331
     38 H20         0.2017   -0.1436   -2.0240 H         1 <0>         0.4361
@<TRIPOS>BOND
     1    1    2 1
     2    1   20 1
     3    1   21 1
     4    1   22 1
     5    2    3 1
     6    2    4 1
     7    2   19 1
     8    4    5 1
     9    4   23 1
    10    4   24 1
    11    5   10 ar
    12    5    6 ar
    13    6    7 ar
    14    6   25 1
    15    7    8 ar
    16    7   26 1
    17    8    9 ar
    18    8   11 1
    19    9   10 ar
    20    9   27 1
    21   10   28 1
    22   11   12 1
    23   12   13 1
    24   12   29 1
    25   12   30 1
    26   13   18 ar
    27   13   14 ar
    28   14   15 ar
    29   14   31 1
    30   15   16 ar
    31   15   32 1
    32   16   17 ar
    33   16   33 1
    34   17   18 ar
    35   17   34 1
    36   18   35 1
    37   19   36 1
    38   19   37 1
    39   19   38 1
@<TRIPOS>MOLECULE
ZINC49017020
   37    37     0     0     0
SMALL
USER_CHARGES

@<TRIPOS>ATOM
      1 C1          0.0811    1.4321   -0.1889 C.3       1 <0>        -0.1818
      2 C2          0.0268   -0.0889   -0.0320 C.3       1 <0>         0.0253
      3 H1          0.4485   -0.5610   -0.9194 H         1 <0>         0.1412
      4 C3          0.8351   -0.5037    1.1991 C.3       1 <0>        -0.0964
      5 C4          0.8843   -2.0075    1.2844 C.ar      1 <0>        -0.1372
      6 C5         -0.0977   -2.6916    1.9776 C.ar      1 <0>        -0.1194
      7 C6         -0.0556   -4.0694    2.0582 C.ar      1 <0>        -0.0920
      8 C7          0.9749   -4.7687    1.4414 C.ar      1 <0>        -0.0705
      9 C8          1.9596   -4.0779    0.7453 C.ar      1 <0>        -0.1261
     10 C9          1.9082   -2.7004    0.6645 C.ar      1 <0>        -0.0807
     11 S1          1.0331   -6.5269    1.5421 S.3       1 <0>        -0.0939
     12 C10         2.5221   -6.9710    0.6060 C.3       1 <0>        -0.1501
     13 N1         -1.3694   -0.5147    0.1326 N.4       1 <0>        -0.5082
     14 C11        -2.1159   -0.2330   -1.1009 C.3       1 <0>         0.0192
     15 C12        -1.5813   -1.1129   -2.2327 C.3       1 <0>        -0.1839
     16 C13        -3.5996   -0.5332   -0.8788 C.3       1 <0>        -0.1844
     17 H2          1.1208    1.7586   -0.2073 H         1 <0>         0.1072
     18 H3         -0.4063    1.7188   -1.1208 H         1 <0>         0.0832
     19 H4         -0.4327    1.9024    0.6495 H         1 <0>         0.0826
     20 H5          1.8486   -0.1110    1.1176 H         1 <0>         0.1202
     21 H6          0.3617   -0.1042    2.0960 H         1 <0>         0.0977
     22 H7         -0.8982   -2.1475    2.4567 H         1 <0>         0.1264
     23 H8         -0.8223   -4.6030    2.6003 H         1 <0>         0.1367
     24 H9          2.7619   -4.6181    0.2647 H         1 <0>         0.1320
     25 H10         2.6708   -2.1632    0.1203 H         1 <0>         0.1325
     26 H11         2.6450   -8.0540    0.6113 H         1 <0>         0.1178
     27 H12         2.4230   -6.6216   -0.4217 H         1 <0>         0.0874
     28 H13         3.3931   -6.5043    1.0660 H         1 <0>         0.0887
     29 H14        -1.3987   -1.5048    0.3247 H         1 <0>         0.4236
     30 H15        -1.9936    0.8166   -1.3679 H         1 <0>         0.1411
     31 H16        -1.7037   -2.1625   -1.9657 H         1 <0>         0.0810
     32 H17        -2.1352   -0.9038   -3.1479 H         1 <0>         0.1066
     33 H18        -0.5243   -0.8990   -2.3909 H         1 <0>         0.0802
     34 H19        -4.1656   -0.2421   -1.7637 H         1 <0>         0.1071
     35 H20        -3.7314   -1.6000   -0.6980 H         1 <0>         0.0816
     36 H21        -3.9590    0.0285   -0.0166 H         1 <0>         0.0813
     37 H22        -1.7865   -0.0106    0.9007 H         1 <0>         0.4238
@<TRIPOS>BOND
     1    1    2 1
     2    1   17 1
     3    1   18 1
     4    1   19 1
     5    2    3 1
     6    2    4 1
     7    2   13 1
     8    4    5 1
     9    4   20 1
    10    4   21 1
    11    5   10 ar
    12    5    6 ar
    13    6    7 ar
    14    6   22 1
    15    7    8 ar
    16    7   23 1
    17    8    9 ar
    18    8   11 1
    19    9   10 ar
    20    9   24 1
    21   10   25 1
    22   11   12 1
    23   12   26 1
    24   12   27 1
    25   12   28 1
    26   13   14 1
    27   13   29 1
    28   13   37 1
    29   14   15 1
    30   14   16 1
    31   14   30 1
    32   15   31 1
    33   15   32 1
    34   15   33 1
    35   16   34 1
    36   16   35 1
    37   16   36 1
@<TRIPOS>MOLECULE
ZINC49017024
   37    37     0     0     0
SMALL
USER_CHARGES

@<TRIPOS>ATOM
      1 C1         -0.0187    1.5258    0.0104 C.3       1 <0>        -0.1824
      2 C2          0.0021   -0.0041    0.0020 C.3       1 <0>         0.0249
      3 H1          0.5123   -0.3556   -0.8948 H         1 <0>         0.1421
      4 C3         -1.4333   -0.5336    0.0129 C.3       1 <0>        -0.0962
      5 C4         -1.4159   -2.0348   -0.1192 C.ar      1 <0>        -0.1369
      6 C5         -1.4498   -2.6174   -1.3731 C.ar      1 <0>        -0.0820
      7 C6         -1.4345   -3.9924   -1.4979 C.ar      1 <0>        -0.0903
      8 C7         -1.3845   -4.7911   -0.3617 C.ar      1 <0>        -0.0706
      9 C8         -1.3500   -4.2021    0.8966 C.ar      1 <0>        -0.1279
     10 C9         -1.3604   -2.8263    1.0136 C.ar      1 <0>        -0.1181
     11 S1         -1.3653   -6.5462   -0.5161 S.3       1 <0>        -0.0915
     12 C10        -1.2984   -7.1368    1.1978 C.3       1 <0>        -0.1506
     13 N1          0.7126   -0.4907    1.1921 N.4       1 <0>        -0.5081
     14 C11         2.1220   -0.0825    1.1220 C.3       1 <0>         0.0186
     15 C12         2.8331   -0.4802    2.4170 C.3       1 <0>        -0.1842
     16 C13         2.7956   -0.7766   -0.0635 C.3       1 <0>        -0.1842
     17 H2          1.0039    1.9031    0.0027 H         1 <0>         0.0828
     18 H3         -0.5459    1.8868   -0.8726 H         1 <0>         0.1076
     19 H4         -0.5289    1.8773    0.9072 H         1 <0>         0.0832
     20 H5         -1.9156   -0.2570    0.9504 H         1 <0>         0.0969
     21 H6         -1.9862   -0.1019   -0.8214 H         1 <0>         0.1212
     22 H7         -1.4887   -1.9961   -2.2556 H         1 <0>         0.1353
     23 H8         -1.4617   -4.4467   -2.4773 H         1 <0>         0.1375
     24 H9         -1.3111   -4.8197    1.7818 H         1 <0>         0.1313
     25 H10        -1.3296   -2.3678    1.9909 H         1 <0>         0.1237
     26 H11        -1.2829   -8.2267    1.2062 H         1 <0>         0.1177
     27 H12        -0.3967   -6.7569    1.6781 H         1 <0>         0.0860
     28 H13        -2.1754   -6.7817    1.7390 H         1 <0>         0.0879
     29 H14         0.2896   -0.0986    2.0201 H         1 <0>         0.4236
     30 H15         2.1813    0.9981    0.9920 H         1 <0>         0.1418
     31 H16         2.7738   -1.5608    2.5471 H         1 <0>         0.0801
     32 H17         3.8789   -0.1773    2.3650 H         1 <0>         0.1075
     33 H18         2.3532    0.0143    3.2616 H         1 <0>         0.0817
     34 H19         3.8414   -0.4737   -0.1155 H         1 <0>         0.1066
     35 H20         2.7363   -1.8572    0.0665 H         1 <0>         0.0808
     36 H21         2.2889   -0.4933   -0.9861 H         1 <0>         0.0811
     37 H22         0.6554   -1.4974    1.2298 H         1 <0>         0.4232
@<TRIPOS>BOND
     1    1    2 1
     2    1   17 1
     3    1   18 1
     4    1   19 1
     5    2    3 1
     6    2    4 1
     7    2   13 1
     8    4    5 1
     9    4   20 1
    10    4   21 1
    11    5   10 ar
    12    5    6 ar
    13    6    7 ar
    14    6   22 1
    15    7    8 ar
    16    7   23 1
    17    8    9 ar
    18    8   11 1
    19    9   10 ar
    20    9   24 1
    21   10   25 1
    22   11   12 1
    23   12   26 1
    24   12   27 1
    25   12   28 1
    26   13   14 1
    27   13   29 1
    28   13   37 1
    29   14   15 1
    30   14   16 1
    31   14   30 1
    32   15   31 1
    33   15   32 1
    34   15   33 1
    35   16   34 1
    36   16   35 1
    37   16   36 1
@<TRIPOS>MOLECULE
ZINC49017396
   35    36     0     0     0
SMALL
USER_CHARGES

@<TRIPOS>ATOM
      1 C1         -0.0187    1.5258    0.0104 C.3       1 <0>        -0.1796
      2 C2          0.0021   -0.0041    0.0020 C.3       1 <0>         0.0353
      3 H1          0.5123   -0.3556   -0.8948 H         1 <0>         0.1389
      4 C3          0.7421   -0.5109    1.2415 C.3       1 <0>        -0.0973
      5 C4          0.8700   -2.0108    1.1719 C.ar      1 <0>        -0.1381
      6 C5         -0.1189   -2.8133    1.7113 C.ar      1 <0>        -0.1199
      7 C6         -0.0049   -4.1880    1.6498 C.ar      1 <0>        -0.0918
      8 C7          1.1051   -4.7651    1.0444 C.ar      1 <0>        -0.0704
      9 C8          2.0966   -3.9556    0.5031 C.ar      1 <0>        -0.1259
     10 C9          1.9732   -2.5816    0.5637 C.ar      1 <0>        -0.0804
     11 S1          1.2552   -6.5188    0.9641 S.3       1 <0>        -0.0936
     12 C10         2.8302   -6.7855    0.1046 C.3       1 <0>        -0.1502
     13 N1         -1.3761   -0.5125    0.0124 N.4       1 <0>        -0.4804
     14 C11        -2.0500   -0.1262   -1.2343 C.3       1 <0>        -0.0825
     15 C12        -3.2527    0.8133   -1.1255 C.3       1 <0>        -0.1534
     16 C13        -3.4635   -0.6627   -1.4689 C.3       1 <0>        -0.1557
     17 H2          1.0039    1.9031    0.0027 H         1 <0>         0.1054
     18 H3         -0.5459    1.8868   -0.8726 H         1 <0>         0.0845
     19 H4         -0.5289    1.8773    0.9072 H         1 <0>         0.0811
     20 H5          1.7350   -0.0630    1.2804 H         1 <0>         0.1214
     21 H6          0.1838   -0.2350    2.1361 H         1 <0>         0.0975
     22 H7         -0.9812   -2.3641    2.1816 H         1 <0>         0.1258
     23 H8         -0.7771   -4.8140    2.0719 H         1 <0>         0.1368
     24 H9          2.9605   -4.4006    0.0319 H         1 <0>         0.1323
     25 H10         2.7413   -1.9519    0.1397 H         1 <0>         0.1328
     26 H11         3.6382   -6.3300    0.6771 H         1 <0>         0.0887
     27 H12         3.0135   -7.8554    0.0055 H         1 <0>         0.1179
     28 H13         2.7854   -6.3314   -0.8853 H         1 <0>         0.0875
     29 H14        -1.3629   -1.5185    0.0898 H         1 <0>         0.4264
     30 H15        -1.4025   -0.0165   -2.1043 H         1 <0>         0.1761
     31 H16        -3.5439    1.1446   -0.1287 H         1 <0>         0.1207
     32 H17        -3.3966    1.5413   -1.9238 H         1 <0>         0.1336
     33 H18        -3.7460   -0.9057   -2.4933 H         1 <0>         0.1341
     34 H19        -3.8934   -1.3024   -0.6982 H         1 <0>         0.1202
     35 H20        -1.8730   -0.1212    0.7986 H         1 <0>         0.4219
@<TRIPOS>BOND
     1    1    2 1
     2    1   17 1
     3    1   18 1
     4    1   19 1
     5    2    3 1
     6    2    4 1
     7    2   13 1
     8    4    5 1
     9    4   20 1
    10    4   21 1
    11    5   10 ar
    12    5    6 ar
    13    6    7 ar
    14    6   22 1
    15    7    8 ar
    16    7   23 1
    17    8    9 ar
    18    8   11 1
    19    9   10 ar
    20    9   24 1
    21   10   25 1
    22   11   12 1
    23   12   26 1
    24   12   27 1
    25   12   28 1
    26   13   14 1
    27   13   29 1
    28   13   35 1
    29   14   16 1
    30   14   15 1
    31   14   30 1
    32   15   16 1
    33   15   31 1
    34   15   32 1
    35   16   33 1
    36   16   34 1
@<TRIPOS>MOLECULE
ZINC49017400
   35    36     0     0     0
SMALL
USER_CHARGES

@<TRIPOS>ATOM
      1 C1         -0.0187    1.5258    0.0104 C.3       1 <0>        -0.1814
      2 C2          0.0021   -0.0041    0.0020 C.3       1 <0>         0.0343
      3 H1          0.5123   -0.3556   -0.8948 H         1 <0>         0.1406
      4 C3         -1.4333   -0.5336    0.0129 C.3       1 <0>        -0.0974
      5 C4         -1.4159   -2.0348   -0.1192 C.ar      1 <0>        -0.1375
      6 C5         -1.4498   -2.6174   -1.3731 C.ar      1 <0>        -0.0813
      7 C6         -1.4345   -3.9924   -1.4979 C.ar      1 <0>        -0.0900
      8 C7         -1.3845   -4.7911   -0.3617 C.ar      1 <0>        -0.0706
      9 C8         -1.3500   -4.2021    0.8966 C.ar      1 <0>        -0.1282
     10 C9         -1.3604   -2.8263    1.0136 C.ar      1 <0>        -0.1194
     11 S1         -1.3653   -6.5462   -0.5161 S.3       1 <0>        -0.0908
     12 C10        -1.2984   -7.1368    1.1978 C.3       1 <0>        -0.1507
     13 N1          0.7126   -0.4907    1.1921 N.4       1 <0>        -0.4800
     14 C11         2.1220   -0.0825    1.1220 C.3       1 <0>        -0.0874
     15 C12         3.1745   -1.1895    1.0334 C.3       1 <0>        -0.1546
     16 C13         3.0085   -0.3937    2.3296 C.3       1 <0>        -0.1538
     17 H2          1.0039    1.9031    0.0027 H         1 <0>         0.0826
     18 H3         -0.5459    1.8868   -0.8726 H         1 <0>         0.1075
     19 H4         -0.5289    1.8773    0.9072 H         1 <0>         0.0830
     20 H5         -1.9156   -0.2570    0.9504 H         1 <0>         0.0973
     21 H6         -1.9862   -0.1019   -0.8214 H         1 <0>         0.1226
     22 H7         -1.4887   -1.9961   -2.2556 H         1 <0>         0.1359
     23 H8         -1.4617   -4.4467   -2.4773 H         1 <0>         0.1379
     24 H9         -1.3111   -4.8197    1.7818 H         1 <0>         0.1314
     25 H10        -1.3296   -2.3678    1.9909 H         1 <0>         0.1233
     26 H11        -2.1754   -6.7817    1.7390 H         1 <0>         0.0879
     27 H12        -1.2829   -8.2267    1.2062 H         1 <0>         0.1178
     28 H13        -0.3967   -6.7569    1.6781 H         1 <0>         0.0859
     29 H14         0.2896   -0.0986    2.0201 H         1 <0>         0.4244
     30 H15         2.3171    0.8425    0.5795 H         1 <0>         0.1796
     31 H16         2.8211   -2.2206    1.0272 H         1 <0>         0.1190
     32 H17         4.0622   -0.9929    0.4324 H         1 <0>         0.1344
     33 H18         3.7870    0.3265    2.5813 H         1 <0>         0.1350
     34 H19         2.5459   -0.9012    3.1761 H         1 <0>         0.1198
     35 H20         0.6554   -1.4974    1.2298 H         1 <0>         0.4228
@<TRIPOS>BOND
     1    1    2 1
     2    1   17 1
     3    1   18 1
     4    1   19 1
     5    2    3 1
     6    2    4 1
     7    2   13 1
     8    4    5 1
     9    4   20 1
    10    4   21 1
    11    5   10 ar
    12    5    6 ar
    13    6    7 ar
    14    6   22 1
    15    7    8 ar
    16    7   23 1
    17    8    9 ar
    18    8   11 1
    19    9   10 ar
    20    9   24 1
    21   10   25 1
    22   11   12 1
    23   12   26 1
    24   12   27 1
    25   12   28 1
    26   13   14 1
    27   13   29 1
    28   13   35 1
    29   14   16 1
    30   14   15 1
    31   14   30 1
    32   15   16 1
    33   15   31 1
    34   15   32 1
    35   16   33 1
    36   16   34 1
@<TRIPOS>MOLECULE
ZINC00020245
   46    48     0     0     0
SMALL
USER_CHARGES

@<TRIPOS>ATOM
      1 C1         -5.6836    1.3838    0.0162 C.3       1 <0>        -0.0473
      2 N1         -5.6620   -0.0833   -0.0564 N.4       1 <0>        -0.3868
      3 C2         -6.3713   -0.5242   -1.2649 C.3       1 <0>        -0.0522
      4 C3         -4.2702   -0.5505   -0.1076 C.3       1 <0>        -0.0086
      5 C4         -4.2434   -2.0795   -0.0575 C.3       1 <0>        -0.1781
      6 C5         -2.7938   -2.5661   -0.1108 C.3       1 <0>         0.1490
      7 N2         -2.7704   -4.0309   -0.1190 N.pl3     1 <0>        -0.6108
      8 C6         -2.7295   -4.7451   -1.3212 C.ar      1 <0>         0.1758
      9 C7         -1.6865   -4.4783   -2.2022 C.ar      1 <0>        -0.1411
     10 C8         -1.5734   -5.1772   -3.3856 C.ar      1 <0>        -0.1022
     11 C9         -2.5089   -6.1508   -3.6854 C.ar      1 <0>        -0.1266
     12 C10        -3.5489   -6.4041   -2.8209 C.ar      1 <0>        -0.1101
     13 C11        -3.6933   -5.6947   -1.6266 C.ar      1 <0>        -0.0998
     14 C12        -4.9357   -6.0340   -0.8354 C.3       1 <0>        -0.0687
     15 C13        -5.1005   -5.1892    0.4158 C.3       1 <0>        -0.0773
     16 C14        -3.9592   -5.4030    1.3779 C.ar      1 <0>        -0.0996
     17 C15        -2.7824   -4.7590    1.0748 C.ar      1 <0>         0.1523
     18 C16        -1.6837   -4.8488    1.9126 C.ar      1 <0>        -0.1184
     19 C17        -1.7825   -5.6251    3.0560 C.ar      1 <0>        -0.1094
     20 C18        -2.9565   -6.2950    3.3488 C.ar      1 <0>        -0.1165
     21 C19        -4.0679   -6.1865    2.5030 C.ar      1 <0>        -0.1028
     22 H1         -6.7163    1.7305    0.0542 H         1 <0>         0.1245
     23 H2         -5.1573    1.7109    0.9129 H         1 <0>         0.1235
     24 H3         -5.1933    1.7984   -0.8646 H         1 <0>         0.1221
     25 H4         -6.3552   -1.6128   -1.3188 H         1 <0>         0.1231
     26 H5         -7.4040   -0.1775   -1.2269 H         1 <0>         0.1246
     27 H6         -5.8810   -0.1096   -2.1457 H         1 <0>         0.1227
     28 H7         -3.8061   -0.2091   -1.0329 H         1 <0>         0.1308
     29 H8         -3.7207   -0.1494    0.7440 H         1 <0>         0.1320
     30 H9         -4.7075   -2.4209    0.8678 H         1 <0>         0.0908
     31 H10        -4.7929   -2.4806   -0.9091 H         1 <0>         0.0915
     32 H11        -2.3174   -2.1901   -1.0161 H         1 <0>         0.0824
     33 H12        -2.2550   -2.1990    0.7627 H         1 <0>         0.0801
     34 H13        -0.9599   -3.7176   -1.9576 H         1 <0>         0.1215
     35 H14        -0.7646   -4.9667   -4.0697 H         1 <0>         0.1276
     36 H15        -2.4229   -6.7145   -4.6025 H         1 <0>         0.1250
     37 H16        -4.2693   -7.1687   -3.0712 H         1 <0>         0.1222
     38 H17        -5.8074   -5.8880   -1.4734 H         1 <0>         0.0793
     39 H18        -4.8898   -7.0837   -0.5452 H         1 <0>         0.0765
     40 H19        -5.1365   -4.1371    0.1334 H         1 <0>         0.0724
     41 H20        -6.0358   -5.4578    0.9068 H         1 <0>         0.0709
     42 H21        -0.7686   -4.3248    1.6795 H         1 <0>         0.1257
     43 H22        -0.9372   -5.7074    3.7231 H         1 <0>         0.1275
     44 H23        -3.0178   -6.9071    4.2365 H         1 <0>         0.1269
     45 H24        -4.9880   -6.7067    2.7249 H         1 <0>         0.1290
     46 H25        -6.1159   -0.4671    0.7589 H         1 <0>         0.4268
@<TRIPOS>BOND
     1    1    2 1
     2    1   22 1
     3    1   23 1
     4    1   24 1
     5    2    3 1
     6    2    4 1
     7    2   46 1
     8    3   25 1
     9    3   26 1
    10    3   27 1
    11    4    5 1
    12    4   28 1
    13    4   29 1
    14    5    6 1
    15    5   30 1
    16    5   31 1
    17    6    7 1
    18    6   32 1
    19    6   33 1
    20    7   17 1
    21    7    8 1
    22    8   13 ar
    23    8    9 ar
    24    9   10 ar
    25    9   34 1
    26   10   11 ar
    27   10   35 1
    28   11   12 ar
    29   11   36 1
    30   12   13 ar
    31   12   37 1
    32   13   14 1
    33   14   15 1
    34   14   38 1
    35   14   39 1
    36   15   16 1
    37   15   40 1
    38   15   41 1
    39   16   21 ar
    40   16   17 ar
    41   17   18 ar
    42   18   19 ar
    43   18   42 1
    44   19   20 ar
    45   19   43 1
    46   20   21 ar
    47   20   44 1
    48   21   45 1
@<TRIPOS>MOLECULE
ZINC13610039
   32    33     0     0     0
SMALL
USER_CHARGES
4-(3,4-dichlorophenyl)-1-methyl-piperidine-4-carbonitrile
@<TRIPOS>ATOM
      1 C1         -6.3852    5.0496    1.5314 C.3       1 <0>        -0.0433
      2 C2         -5.0359    3.6067    0.1323 C.3       1 <0>        -0.0066
      3 C3         -3.7043    2.8564    0.0546 C.3       1 <0>        -0.1426
      4 C4         -2.5542    3.8673    0.0457 C.3       1 <0>         0.0894
      5 C5         -2.6391    4.7381    1.3024 C.3       1 <0>        -0.1372
      6 C6         -4.0022    5.4326    1.3447 C.3       1 <0>        -0.0070
      7 C7         -2.6569    4.7188   -1.1506 C.1       1 <0>         0.1780
      8 N1         -2.7362    5.3759   -2.0739 N.1       1 <0>        -0.3708
      9 C8         -1.2383    3.1330    0.0297 C.ar      1 <0>        -0.0893
     10 C9         -1.2187    1.7505    0.0173 C.ar      1 <0>        -0.0915
     11 C10        -0.0126    1.0758    0.0080 C.ar      1 <0>        -0.0901
     12 C11         1.1760    1.7838    0.0004 C.ar      1 <0>        -0.0185
     13 C12         1.1563    3.1681    0.0076 C.ar      1 <0>        -0.0278
     14 C13        -0.0519    3.8418    0.0222 C.ar      1 <0>        -0.0841
     15 Cl1         2.6468    4.0579   -0.0025 Cl        1 <0>        -0.0266
     16 Cl2         2.6913    0.9369   -0.0186 Cl        1 <0>        -0.0250
     17 H1         -7.1486    4.2754    1.6083 H         1 <0>         0.1257
     18 H2         -6.3819    5.6484    2.4422 H         1 <0>         0.1256
     19 H3         -6.6021    5.6900    0.6764 H         1 <0>         0.1228
     20 H4         -5.1404    4.2523   -0.7397 H         1 <0>         0.1287
     21 H5         -5.8562    2.8893    0.1534 H         1 <0>         0.1437
     22 H6         -3.6739    2.2627   -0.8590 H         1 <0>         0.1286
     23 H7         -3.6053    2.2002    0.9193 H         1 <0>         0.1200
     24 H8         -2.5229    4.1123    2.1872 H         1 <0>         0.1186
     25 H9         -1.8481    5.4877    1.2797 H         1 <0>         0.1252
     26 H10        -4.1115    6.0697    0.4671 H         1 <0>         0.1286
     27 H11        -4.0717    6.0412    2.2463 H         1 <0>         0.1434
     28 H12        -2.1464    1.1975    0.0187 H         1 <0>         0.1479
     29 H13         0.0021   -0.0041    0.0020 H         1 <0>         0.1536
     30 H14        -0.0680    4.9217    0.0274 H         1 <0>         0.1435
     31 N2         -5.0649    4.4051    1.3761 N.4       1 <0>        -0.3954
     32 H15        -4.9020    3.7819    2.1757 H         1 <0>         0.4326
@<TRIPOS>BOND
     1    1   17 1
     2    1   18 1
     3    1   19 1
     4    1   31 1
     5    2    3 1
     6    2   20 1
     7    2   21 1
     8    2   31 1
     9    3    4 1
    10    3   22 1
    11    3   23 1
    12    4    5 1
    13    4    7 1
    14    4    9 1
    15    5    6 1
    16    5   24 1
    17    5   25 1
    18    6   26 1
    19    6   27 1
    20    6   31 1
    21    7    8 3
    22    9   14 ar
    23    9   10 ar
    24   10   11 ar
    25   10   28 1
    26   11   12 ar
    27   11   29 1
    28   12   13 ar
    29   12   16 1
    30   13   14 ar
    31   13   15 1
    32   14   30 1
    33   31   32 1
@<TRIPOS>MOLECULE
ZINC13776229
   58    61     0     0     0
SMALL
USER_CHARGES

@<TRIPOS>ATOM
      1 C1         -0.0187    1.5258    0.0104 C.3       1 <0>        -0.1585
      2 C2          0.0021   -0.0041    0.0020 C.3       1 <0>        -0.1208
      3 C3          0.7182   -0.4975   -1.2568 C.3       1 <0>        -0.1457
      4 C4          0.7390   -2.0273   -1.2652 C.3       1 <0>        -0.0053
      5 N1          1.4265   -2.5011   -2.4738 N.4       1 <0>        -0.3951
      6 C5          0.5944   -2.2526   -3.6811 C.3       1 <0>         0.0350
      7 H1          0.1580   -1.2538   -3.6829 H         1 <0>         0.1446
      8 C6         -0.4825   -3.3610   -3.6348 C.3       1 <0>        -0.1411
      9 C7          0.1606   -4.5033   -2.8211 C.3       1 <0>        -0.1345
     10 C8          1.5678   -3.9813   -2.4497 C.3       1 <0>         0.0355
     11 H2          1.9004   -4.3482   -1.4787 H         1 <0>         0.1478
     12 C9          2.5273   -4.3660   -3.5873 C.3       1 <0>        -0.1364
     13 C10         1.8857   -3.9890   -4.9257 C.3       1 <0>         0.0772
     14 C11         1.4876   -2.4964   -4.9081 C.3       1 <0>        -0.1644
     15 O1          0.7256   -4.7952   -5.1406 O.3       1 <0>        -0.3517
     16 C12         0.4422   -5.0506   -6.5177 C.3       1 <0>         0.1739
     17 C13         1.1464   -6.3108   -6.9503 C.ar      1 <0>        -0.1325
     18 C14         1.1927   -7.4018   -6.1025 C.ar      1 <0>        -0.0632
     19 C15         1.8378   -8.5581   -6.4983 C.ar      1 <0>        -0.1554
     20 C16         2.4379   -8.6236   -7.7443 C.ar      1 <0>         0.1125
     21 C17         2.3909   -7.5303   -8.5925 C.ar      1 <0>        -0.1516
     22 C18         1.7407   -6.3768   -8.1967 C.ar      1 <0>        -0.0774
     23 F1          3.0692   -9.7534   -8.1321 F         1 <0>        -0.1332
     24 C19        -1.0442   -5.2172   -6.7022 C.ar      1 <0>        -0.1061
     25 C20        -1.8003   -5.8156   -5.7116 C.ar      1 <0>        -0.0676
     26 C21        -3.1635   -5.9685   -5.8794 C.ar      1 <0>        -0.1545
     27 C22        -3.7719   -5.5220   -7.0403 C.ar      1 <0>         0.1122
     28 C23        -3.0136   -4.9228   -8.0318 C.ar      1 <0>        -0.1493
     29 C24        -1.6514   -4.7663   -7.8594 C.ar      1 <0>        -0.0758
     30 F2         -5.1044   -5.6714   -7.2057 F         1 <0>        -0.1330
     31 H3          1.0039    1.9031    0.0027 H         1 <0>         0.0588
     32 H4         -0.5459    1.8868   -0.8726 H         1 <0>         0.0585
     33 H5         -0.5289    1.8773    0.9072 H         1 <0>         0.0666
     34 H6          0.5293   -0.3651    0.8851 H         1 <0>         0.0727
     35 H7         -1.0205   -0.3814    0.0098 H         1 <0>         0.0724
     36 H8          0.1910   -0.1364   -2.1398 H         1 <0>         0.0831
     37 H9          1.7408   -0.1202   -1.2645 H         1 <0>         0.0840
     38 H10         1.2661   -2.3884   -0.3821 H         1 <0>         0.1267
     39 H11        -0.2836   -2.4046   -1.2575 H         1 <0>         0.1283
     40 H12        -1.3799   -2.9973   -3.1342 H         1 <0>         0.0832
     41 H13        -0.7207   -3.7008   -4.6427 H         1 <0>         0.1350
     42 H14        -0.4205   -4.7012   -1.9204 H         1 <0>         0.0872
     43 H15         0.2387   -5.4047   -3.4290 H         1 <0>         0.1315
     44 H16         3.4679   -3.8281   -3.4690 H         1 <0>         0.0994
     45 H17         2.7128   -5.4397   -3.5610 H         1 <0>         0.1205
     46 H18         2.5998   -4.1606   -5.7312 H         1 <0>         0.0948
     47 H19         0.9338   -2.2573   -5.8160 H         1 <0>         0.1134
     48 H20         2.3757   -1.8678   -4.8438 H         1 <0>         0.0980
     49 H21         0.7917   -4.2134   -7.1219 H         1 <0>         0.0867
     50 H22         0.7248   -7.3504   -5.1305 H         1 <0>         0.1333
     51 H23         1.8741   -9.4102   -5.8357 H         1 <0>         0.1386
     52 H24         2.8589   -7.5801   -9.5646 H         1 <0>         0.1403
     53 H25         1.7001   -5.5254   -8.8599 H         1 <0>         0.1329
     54 H26        -1.3255   -6.1640   -4.8063 H         1 <0>         0.1347
     55 H27        -3.7540   -6.4363   -5.1056 H         1 <0>         0.1389
     56 H28        -3.4871   -4.5745   -8.9378 H         1 <0>         0.1413
     57 H29        -1.0603   -4.2949   -8.6307 H         1 <0>         0.1342
     58 H30         2.3292   -2.0595   -2.5649 H         1 <0>         0.4195
@<TRIPOS>BOND
     1    1    2 1
     2    1   31 1
     3    1   32 1
     4    1   33 1
     5    2    3 1
     6    2   34 1
     7    2   35 1
     8    3    4 1
     9    3   36 1
    10    3   37 1
    11    4    5 1
    12    4   38 1
    13    4   39 1
    14    5   10 1
    15    5    6 1
    16    5   58 1
    17    6    7 1
    18    6   14 1
    19    6    8 1
    20    8    9 1
    21    8   40 1
    22    8   41 1
    23    9   10 1
    24    9   42 1
    25    9   43 1
    26   10   11 1
    27   10   12 1
    28   12   13 1
    29   12   44 1
    30   12   45 1
    31   13   14 1
    32   13   15 1
    33   13   46 1
    34   14   47 1
    35   14   48 1
    36   15   16 1
    37   16   17 1
    38   16   24 1
    39   16   49 1
    40   17   22 ar
    41   17   18 ar
    42   18   19 ar
    43   18   50 1
    44   19   20 ar
    45   19   51 1
    46   20   21 ar
    47   20   23 1
    48   21   22 ar
    49   21   52 1
    50   22   53 1
    51   24   29 ar
    52   24   25 ar
    53   25   26 ar
    54   25   54 1
    55   26   27 ar
    56   26   55 1
    57   27   28 ar
    58   27   30 1
    59   28   29 ar
    60   28   56 1
    61   29   57 1
@<TRIPOS>MOLECULE
ZINC01536779
   41    43     0     0     0
SMALL
USER_CHARGES

@<TRIPOS>ATOM
      1 C1         -0.7400    0.9331    0.2776 C.3       1 <0>        -0.0476
      2 N1         -0.4844   -0.5066    0.1362 N.4       1 <0>        -0.5085
      3 C2          0.3213   -0.7448   -1.0688 C.3       1 <0>        -0.0132
      4 C3          0.5875   -2.2442   -1.2161 C.3       1 <0>        -0.1420
      5 C4          1.4267   -2.4924   -2.4711 C.3       1 <0>         0.1856
      6 H1          2.3354   -1.8921   -2.4252 H         1 <0>         0.1031
      7 C5          1.7925   -3.9522   -2.5503 C.2       1 <0>        -0.2178
      8 C6          2.9174   -4.5748   -2.1210 C.2       1 <0>        -0.1229
      9 C7          3.0378   -5.9401   -2.3002 C.2       1 <0>        -0.1690
     10 C8          2.0274   -6.6160   -2.8999 C.2       1 <0>        -0.1537
     11 S1          0.8534   -5.3114   -3.2268 S.3       1 <0>         0.0860
     12 O1          0.6724   -2.1269   -3.6285 O.3       1 <0>        -0.3033
     13 C9          1.3745   -1.7982   -4.7435 C.ar      1 <0>         0.1312
     14 C10         2.7346   -1.9306   -4.7642 C.ar      1 <0>        -0.2054
     15 C11         3.4685   -1.5981   -5.8992 C.ar      1 <0>        -0.0827
     16 C12         2.8540   -1.1319   -7.0215 C.ar      1 <0>        -0.1285
     17 C13         1.4570   -0.9818   -7.0408 C.ar      1 <0>        -0.0223
     18 C14         0.7049   -1.3236   -5.8896 C.ar      1 <0>        -0.0635
     19 C15        -0.6915   -1.1779   -5.9104 C.ar      1 <0>        -0.0959
     20 C16        -1.3040   -0.7161   -7.0351 C.ar      1 <0>        -0.1186
     21 C17        -0.5654   -0.3847   -8.1695 C.ar      1 <0>        -0.1028
     22 C18         0.7904   -0.5031   -8.1819 C.ar      1 <0>        -0.1090
     23 H2          0.2082    1.4637    0.3638 H         1 <0>         0.1241
     24 H3         -1.2800    1.2940   -0.5978 H         1 <0>         0.1247
     25 H4         -1.3378    1.1099    1.1717 H         1 <0>         0.1281
     26 H5          0.0155   -0.8406    0.9465 H         1 <0>         0.4304
     27 H6         -0.2187   -0.3839   -1.9442 H         1 <0>         0.1408
     28 H7          1.2696   -0.2142   -0.9826 H         1 <0>         0.1345
     29 H8          1.1275   -2.6051   -0.3407 H         1 <0>         0.1121
     30 H9         -0.3607   -2.7749   -1.3023 H         1 <0>         0.1048
     31 H10         3.7079   -4.0125   -1.6464 H         1 <0>         0.1341
     32 H11         3.9238   -6.4605   -1.9677 H         1 <0>         0.1404
     33 H12         1.9508   -7.6707   -3.1194 H         1 <0>         0.1916
     34 H13         3.2471   -2.2981   -3.8875 H         1 <0>         0.1267
     35 H14         4.5425   -1.7112   -5.8895 H         1 <0>         0.1280
     36 H15         3.4384   -0.8782   -7.8935 H         1 <0>         0.1327
     37 H16        -1.2767   -1.4311   -5.0388 H         1 <0>         0.1266
     38 H17        -2.3782   -0.6052   -7.0486 H         1 <0>         0.1262
     39 H18        -1.0757   -0.0208   -9.0490 H         1 <0>         0.1287
     40 H19         1.3500   -0.2422   -9.0680 H         1 <0>         0.1339
     41 H20        -1.3622   -0.9977    0.0564 H         1 <0>         0.4321
@<TRIPOS>BOND
     1    1    2 1
     2    1   23 1
     3    1   24 1
     4    1   25 1
     5    2    3 1
     6    2   26 1
     7    2   41 1
     8    3    4 1
     9    3   27 1
    10    3   28 1
    11    4    5 1
    12    4   29 1
    13    4   30 1
    14    5    6 1
    15    5    7 1
    16    5   12 1
    17    7   11 1
    18    7    8 2
    19    8    9 1
    20    8   31 1
    21    9   10 2
    22    9   32 1
    23   10   11 1
    24   10   33 1
    25   12   13 1
    26   13   18 ar
    27   13   14 ar
    28   14   15 ar
    29   14   34 1
    30   15   16 ar
    31   15   35 1
    32   16   17 ar
    33   16   36 1
    34   17   22 ar
    35   17   18 ar
    36   18   19 ar
    37   19   20 ar
    38   19   37 1
    39   20   21 ar
    40   20   38 1
    41   21   22 ar
    42   21   39 1
    43   22   40 1
@<TRIPOS>MOLECULE
ZINC01530637
   41    42     0     0     0
SMALL
USER_CHARGES

@<TRIPOS>ATOM
      1 C1         -0.4120    1.0349    0.3013 C.3       1 <0>        -0.0488
      2 N1         -0.2330   -0.4168    0.1652 N.4       1 <0>        -0.5073
      3 C2          0.5049   -0.7054   -1.0718 C.3       1 <0>        -0.0229
      4 C3          0.6913   -2.2174   -1.2135 C.3       1 <0>        -0.1675
      5 C4          1.4598   -2.5179   -2.5019 C.3       1 <0>         0.1351
      6 H1          2.3976   -1.9623   -2.5036 H         1 <0>         0.0995
      7 C5          1.7506   -3.9945   -2.5806 C.ar      1 <0>        -0.1149
      8 C6          0.8070   -4.8578   -3.1052 C.ar      1 <0>        -0.0895
      9 C7          1.0737   -6.2123   -3.1773 C.ar      1 <0>        -0.1179
     10 C8          2.2842   -6.7034   -2.7252 C.ar      1 <0>        -0.1006
     11 C9          3.2282   -5.8399   -2.2014 C.ar      1 <0>        -0.1161
     12 C10         2.9632   -4.4849   -2.1333 C.ar      1 <0>        -0.1045
     13 O1          0.6724   -2.1269   -3.6285 O.3       1 <0>        -0.2928
     14 C11         0.8838   -0.8800   -4.1260 C.ar      1 <0>         0.1505
     15 C12         1.8748   -0.0745   -3.5841 C.ar      1 <0>        -0.2338
     16 C13         2.0880    1.1924   -4.0920 C.ar      1 <0>        -0.0253
     17 C14         1.3144    1.6580   -5.1391 C.ar      1 <0>        -0.2127
     18 C15         0.3257    0.8573   -5.6806 C.ar      1 <0>        -0.0216
     19 C16         0.1127   -0.4127   -5.1804 C.ar      1 <0>        -0.1468
     20 C17         1.5488    3.0406   -5.6908 C.3       1 <0>         0.5091
     21 F1          2.4914    2.9774   -6.7227 F         1 <0>        -0.1716
     22 F2          0.3464    3.5542   -6.1884 F         1 <0>        -0.1742
     23 F3          2.0262    3.8739   -4.6735 F         1 <0>        -0.1775
     24 H2          0.5637    1.5193    0.3388 H         1 <0>         0.1248
     25 H3         -0.9730    1.4134   -0.5531 H         1 <0>         0.1241
     26 H4         -0.9595    1.2490    1.2192 H         1 <0>         0.1296
     27 H5          0.2863   -0.7673    0.9561 H         1 <0>         0.4310
     28 H6         -0.0562   -0.3268   -1.9262 H         1 <0>         0.1339
     29 H7          1.4806   -0.2209   -1.0343 H         1 <0>         0.1355
     30 H8          1.2523   -2.5959   -0.3591 H         1 <0>         0.1101
     31 H9         -0.2844   -2.7018   -1.2511 H         1 <0>         0.1053
     32 H10        -0.1388   -4.4741   -3.4583 H         1 <0>         0.1283
     33 H11         0.3362   -6.8868   -3.5865 H         1 <0>         0.1298
     34 H12         2.4924   -7.7616   -2.7809 H         1 <0>         0.1301
     35 H13         4.1738   -6.2237   -1.8480 H         1 <0>         0.1308
     36 H14         3.7021   -3.8099   -1.7275 H         1 <0>         0.1243
     37 H15         2.4789   -0.4374   -2.7657 H         1 <0>         0.1409
     38 H16         2.8594    1.8199   -3.6705 H         1 <0>         0.1434
     39 H17        -0.2775    1.2233   -6.4983 H         1 <0>         0.1498
     40 H18        -0.6567   -1.0394   -5.6066 H         1 <0>         0.1488
     41 H19        -1.1362   -0.8653    0.1305 H         1 <0>         0.4318
@<TRIPOS>BOND
     1    1    2 1
     2    1   24 1
     3    1   25 1
     4    1   26 1
     5    2    3 1
     6    2   27 1
     7    2   41 1
     8    3    4 1
     9    3   28 1
    10    3   29 1
    11    4    5 1
    12    4   30 1
    13    4   31 1
    14    5    6 1
    15    5    7 1
    16    5   13 1
    17    7   12 ar
    18    7    8 ar
    19    8    9 ar
    20    8   32 1
    21    9   10 ar
    22    9   33 1
    23   10   11 ar
    24   10   34 1
    25   11   12 ar
    26   11   35 1
    27   12   36 1
    28   13   14 1
    29   14   19 ar
    30   14   15 ar
    31   15   16 ar
    32   15   37 1
    33   16   17 ar
    34   16   38 1
    35   17   18 ar
    36   17   20 1
    37   18   19 ar
    38   18   39 1
    39   19   40 1
    40   20   21 1
    41   20   22 1
    42   20   23 1
@<TRIPOS>MOLECULE
ZINC01530638
   41    42     0     0     0
SMALL
USER_CHARGES

@<TRIPOS>ATOM
      1 C1         -0.0117    1.2584    0.2941 C.3       1 <0>        -0.0489
      2 N1          0.0187   -0.2059    0.1807 N.4       1 <0>        -0.5073
      3 C2          0.6940   -0.5864   -1.0672 C.3       1 <0>        -0.0223
      4 C3          0.7257   -2.1115   -1.1853 C.3       1 <0>        -0.1659
      5 C4          1.4290   -2.5079   -2.4850 C.3       1 <0>         0.1346
      6 H1          0.9406   -2.0169   -3.3267 H         1 <0>         0.0995
      7 C5          1.3524   -4.0025   -2.6620 C.ar      1 <0>        -0.1166
      8 C6          2.2239   -4.8256   -1.9736 C.ar      1 <0>        -0.0896
      9 C7          2.1536   -6.1966   -2.1360 C.ar      1 <0>        -0.1183
     10 C8          1.2115   -6.7445   -2.9863 C.ar      1 <0>        -0.1002
     11 C9          0.3394   -5.9215   -3.6740 C.ar      1 <0>        -0.1161
     12 C10         0.4069   -4.5507   -3.5084 C.ar      1 <0>        -0.1036
     13 O1          2.7987   -2.1046   -2.4276 O.3       1 <0>        -0.2939
     14 C11         3.1290   -0.9498   -3.0632 C.ar      1 <0>         0.1513
     15 C12         4.4578   -0.5614   -3.1526 C.ar      1 <0>        -0.1453
     16 C13         4.7911    0.6128   -3.7997 C.ar      1 <0>        -0.0215
     17 C14         3.8014    1.4009   -4.3576 C.ar      1 <0>        -0.2121
     18 C15         2.4763    1.0162   -4.2695 C.ar      1 <0>        -0.0254
     19 C16         2.1384   -0.1601   -3.6288 C.ar      1 <0>        -0.2331
     20 C17         4.1677    2.6815   -5.0625 C.3       1 <0>         0.5092
     21 F1          4.3972    2.4189   -6.4174 F         1 <0>        -0.1720
     22 F2          3.1196    3.5994   -4.9365 F         1 <0>        -0.1774
     23 F3          5.3265    3.2150   -4.4881 F         1 <0>        -0.1740
     24 H2          1.0080    1.6436    0.3006 H         1 <0>         0.1243
     25 H3         -0.5529    1.6774   -0.5543 H         1 <0>         0.1247
     26 H4         -0.5127    1.5408    1.2200 H         1 <0>         0.1295
     27 H5          0.5197   -0.5937    0.9660 H         1 <0>         0.4319
     28 H6          0.1528   -0.1675   -1.9155 H         1 <0>         0.1348
     29 H7          1.7136   -0.2013   -1.0606 H         1 <0>         0.1349
     30 H8          1.2669   -2.5305   -0.3370 H         1 <0>         0.1053
     31 H9         -0.2940   -2.4967   -1.1919 H         1 <0>         0.1101
     32 H10         2.9600   -4.3975   -1.3092 H         1 <0>         0.1272
     33 H11         2.8350   -6.8396   -1.5987 H         1 <0>         0.1297
     34 H12         1.1571   -7.8156   -3.1137 H         1 <0>         0.1301
     35 H13        -0.3964   -6.3495   -4.3386 H         1 <0>         0.1308
     36 H14        -0.2770   -3.9079   -4.0428 H         1 <0>         0.1243
     37 H15         5.2311   -1.1763   -2.7163 H         1 <0>         0.1487
     38 H16         5.8254    0.9155   -3.8695 H         1 <0>         0.1498
     39 H17         1.7051    1.6337   -4.7058 H         1 <0>         0.1430
     40 H18         1.1036   -0.4624   -3.5641 H         1 <0>         0.1387
     41 H19        -0.9251   -0.5624    0.1746 H         1 <0>         0.4310
@<TRIPOS>BOND
     1    1    2 1
     2    1   24 1
     3    1   25 1
     4    1   26 1
     5    2    3 1
     6    2   27 1
     7    2   41 1
     8    3    4 1
     9    3   28 1
    10    3   29 1
    11    4    5 1
    12    4   30 1
    13    4   31 1
    14    5    6 1
    15    5    7 1
    16    5   13 1
    17    7   12 ar
    18    7    8 ar
    19    8    9 ar
    20    8   32 1
    21    9   10 ar
    22    9   33 1
    23   10   11 ar
    24   10   34 1
    25   11   12 ar
    26   11   35 1
    27   12   36 1
    28   13   14 1
    29   14   19 ar
    30   14   15 ar
    31   15   16 ar
    32   15   37 1
    33   16   17 ar
    34   16   38 1
    35   17   18 ar
    36   17   20 1
    37   18   19 ar
    38   18   39 1
    39   19   40 1
    40   20   21 1
    41   20   22 1
    42   20   23 1
@<TRIPOS>MOLECULE
ZINC00968360
   49    52     0     0     0
SMALL
USER_CHARGES

@<TRIPOS>ATOM
      1 C1          3.3904   -1.0686    1.3596 C.3       1 <0>        -0.0414
      2 N1          2.2270   -1.8016    0.8426 N.4       1 <0>        -0.3966
      3 C2          1.0087   -0.9500    0.8889 C.3       1 <0>         0.0345
      4 H1          1.1973    0.0598    0.5245 H         1 <0>         0.1466
      5 C3          0.5905   -0.9658    2.3773 C.3       1 <0>        -0.1338
      6 C4          1.1707   -2.2813    2.9369 C.3       1 <0>        -0.1396
      7 C5          1.8867   -2.9409    1.7358 C.3       1 <0>         0.0374
      8 H2          2.7689   -3.5040    2.0404 H         1 <0>         0.1457
      9 C6          0.8579   -3.8095    0.9944 C.3       1 <0>        -0.1626
     10 C7         -0.4211   -2.9937    0.7855 C.3       1 <0>         0.0760
     11 C8         -0.0791   -1.6663    0.0728 C.3       1 <0>        -0.1379
     12 O1         -1.0224   -2.7199    2.0525 O.3       1 <0>        -0.3507
     13 C9         -2.0131   -3.6726    2.4437 C.3       1 <0>         0.1708
     14 C10        -2.1179   -3.6999    3.9468 C.ar      1 <0>        -0.0904
     15 C11        -2.0585   -2.5205    4.6654 C.ar      1 <0>        -0.0943
     16 C12        -2.1546   -2.5456    6.0442 C.ar      1 <0>        -0.1204
     17 C13        -2.3105   -3.7501    6.7043 C.ar      1 <0>        -0.1092
     18 C14        -2.3708   -4.9294    5.9857 C.ar      1 <0>        -0.1151
     19 C15        -2.2790   -4.9039    4.6066 C.ar      1 <0>        -0.1074
     20 C16        -3.3444   -3.2836    1.8544 C.ar      1 <0>        -0.1188
     21 C17        -3.6951   -1.9499    1.7593 C.ar      1 <0>        -0.0957
     22 C18        -4.9163   -1.5931    1.2187 C.ar      1 <0>        -0.1207
     23 C19        -5.7867   -2.5701    0.7728 C.ar      1 <0>        -0.1099
     24 C20        -5.4356   -3.9038    0.8670 C.ar      1 <0>        -0.1159
     25 C21        -4.2126   -4.2604    1.4036 C.ar      1 <0>        -0.1088
     26 H3          4.2470   -1.7403    1.4169 H         1 <0>         0.1198
     27 H4          3.6232   -0.2391    0.6920 H         1 <0>         0.1202
     28 H5          3.1643   -0.6826    2.3536 H         1 <0>         0.1206
     29 H6          1.0175   -0.1101    2.9003 H         1 <0>         0.0864
     30 H7         -0.4958   -0.9622    2.4661 H         1 <0>         0.1317
     31 H8          1.8830   -2.0725    3.7351 H         1 <0>         0.0829
     32 H9          0.3696   -2.9246    3.3009 H         1 <0>         0.1348
     33 H10         1.2621   -4.1087    0.0273 H         1 <0>         0.0958
     34 H11         0.6329   -4.6956    1.5879 H         1 <0>         0.1134
     35 H12        -1.1176   -3.5627    0.1698 H         1 <0>         0.0934
     36 H13        -0.9701   -1.0404    0.0234 H         1 <0>         0.1187
     37 H14         0.2889   -1.8607   -0.9346 H         1 <0>         0.0996
     38 H15        -1.7300   -4.6608    2.0812 H         1 <0>         0.0802
     39 H16        -1.9366   -1.5795    4.1496 H         1 <0>         0.1222
     40 H17        -2.1075   -1.6242    6.6056 H         1 <0>         0.1245
     41 H18        -2.3849   -3.7697    7.7816 H         1 <0>         0.1256
     42 H19        -2.4923   -5.8705    6.5015 H         1 <0>         0.1269
     43 H20        -2.3299   -5.8249    4.0449 H         1 <0>         0.1218
     44 H21        -3.0151   -1.1866    2.1077 H         1 <0>         0.1218
     45 H22        -5.1906   -0.5511    1.1451 H         1 <0>         0.1241
     46 H23        -6.7411   -2.2914    0.3510 H         1 <0>         0.1253
     47 H24        -6.1158   -4.6671    0.5189 H         1 <0>         0.1260
     48 H25        -3.9368   -5.3022    1.4738 H         1 <0>         0.1208
     49 H26         2.4007   -2.1262   -0.0968 H         1 <0>         0.4215
@<TRIPOS>BOND
     1    1    2 1
     2    1   26 1
     3    1   27 1
     4    1   28 1
     5    2    7 1
     6    2    3 1
     7    2   49 1
     8    3    4 1
     9    3   11 1
    10    3    5 1
    11    5    6 1
    12    5   29 1
    13    5   30 1
    14    6    7 1
    15    6   31 1
    16    6   32 1
    17    7    8 1
    18    7    9 1
    19    9   10 1
    20    9   33 1
    21    9   34 1
    22   10   11 1
    23   10   12 1
    24   10   35 1
    25   11   36 1
    26   11   37 1
    27   12   13 1
    28   13   14 1
    29   13   20 1
    30   13   38 1
    31   14   19 ar
    32   14   15 ar
    33   15   16 ar
    34   15   39 1
    35   16   17 ar
    36   16   40 1
    37   17   18 ar
    38   17   41 1
    39   18   19 ar
    40   18   42 1
    41   19   43 1
    42   20   25 ar
    43   20   21 ar
    44   21   22 ar
    45   21   44 1
    46   22   23 ar
    47   22   45 1
    48   23   24 ar
    49   23   46 1
    50   24   25 ar
    51   24   47 1
    52   25   48 1
@<TRIPOS>MOLECULE
ZINC05912553
   45    47     0     0     0
SMALL
USER_CHARGES

@<TRIPOS>ATOM
      1 C1         -0.0178    1.4648    0.0101 C.3       1 <0>        -0.0540
      2 N1          0.0021   -0.0041    0.0020 N.4       1 <0>        -0.3870
      3 C2          0.7126   -0.4907    1.1921 C.3       1 <0>        -0.0475
      4 C3         -1.3761   -0.5125    0.0124 C.3       1 <0>        -0.0113
      5 C4         -2.0780   -0.1101   -1.2861 C.3       1 <0>        -0.1536
      6 C5         -3.5134   -0.6397   -1.2752 C.3       1 <0>        -0.1226
      7 C6         -4.2153   -0.2373   -2.5738 C.3       1 <0>         0.2007
      8 C7         -5.6567   -0.6895   -2.5482 C.ar      1 <0>        -0.1124
      9 C8         -6.7853   -0.1820   -1.9380 C.ar      1 <0>        -0.0765
     10 C9         -8.0009   -0.8224   -2.0938 C.ar      1 <0>        -0.0826
     11 C10        -8.0853   -1.9708   -2.8607 C.ar      1 <0>        -0.0788
     12 C11        -6.9531   -2.4795   -3.4726 C.ar      1 <0>        -0.0642
     13 C12        -5.7407   -1.8400   -3.3166 C.ar      1 <0>        -0.1216
     14 C13        -4.3537   -2.1325   -3.8395 C.3       1 <0>         0.0890
     15 O1         -3.6097   -0.9089   -3.6937 O.3       1 <0>        -0.3405
     16 Br1        -9.7482   -2.8459   -3.0725 Br        1 <0>        -0.0268
     17 C14        -4.1414    1.2561   -2.7621 C.ar      1 <0>        -0.0994
     18 C15        -4.0918    2.0895   -1.6602 C.ar      1 <0>        -0.0925
     19 C16        -4.0235    3.4591   -1.8317 C.ar      1 <0>        -0.1558
     20 C17        -4.0048    3.9965   -3.1076 C.ar      1 <0>         0.1109
     21 C18        -4.0546    3.1608   -4.2104 C.ar      1 <0>        -0.1487
     22 C19        -4.1175    1.7912   -4.0365 C.ar      1 <0>        -0.0586
     23 F1         -3.9386    5.3353   -3.2764 F         1 <0>        -0.1324
     24 H1          1.0047    1.8421    0.0024 H         1 <0>         0.1251
     25 H2         -0.5450    1.8259   -0.8730 H         1 <0>         0.1245
     26 H3         -0.5280    1.8163    0.9069 H         1 <0>         0.1228
     27 H4          0.2024   -0.1392    2.0889 H         1 <0>         0.1219
     28 H5          0.7273   -1.5806    1.1861 H         1 <0>         0.1234
     29 H6          1.7352   -0.1134    1.1844 H         1 <0>         0.1248
     30 H7         -1.3618   -1.5992    0.0961 H         1 <0>         0.1312
     31 H8         -1.9129   -0.0898    0.8617 H         1 <0>         0.1296
     32 H9         -2.0923    0.9766   -1.3697 H         1 <0>         0.0952
     33 H10        -1.5412   -0.5328   -2.1354 H         1 <0>         0.0970
     34 H11        -3.4991   -1.7264   -1.1916 H         1 <0>         0.0865
     35 H12        -4.0502   -0.2170   -0.4260 H         1 <0>         0.0901
     36 H13        -6.7193    0.7143   -1.3391 H         1 <0>         0.1343
     37 H14        -8.8848   -0.4261   -1.6162 H         1 <0>         0.1433
     38 H15        -7.0186   -3.3757   -4.0716 H         1 <0>         0.1404
     39 H16        -3.8907   -2.9258   -3.2527 H         1 <0>         0.0849
     40 H17        -4.4013   -2.4202   -4.8898 H         1 <0>         0.1087
     41 H18        -4.1067    1.6702   -0.6651 H         1 <0>         0.1330
     42 H19        -3.9851    4.1101   -0.9707 H         1 <0>         0.1402
     43 H20        -4.0404    3.5789   -5.2061 H         1 <0>         0.1420
     44 H21        -4.1518    1.1389   -4.8966 H         1 <0>         0.1399
     45 H22         0.4743   -0.3295   -0.8281 H         1 <0>         0.4277
@<TRIPOS>BOND
     1    1    2 1
     2    1   24 1
     3    1   25 1
     4    1   26 1
     5    2    3 1
     6    2    4 1
     7    2   45 1
     8    3   27 1
     9    3   28 1
    10    3   29 1
    11    4    5 1
    12    4   30 1
    13    4   31 1
    14    5    6 1
    15    5   32 1
    16    5   33 1
    17    6    7 1
    18    6   34 1
    19    6   35 1
    20    7   15 1
    21    7    8 1
    22    7   17 1
    23    8   13 ar
    24    8    9 ar
    25    9   10 ar
    26    9   36 1
    27   10   11 ar
    28   10   37 1
    29   11   12 ar
    30   11   16 1
    31   12   13 ar
    32   12   38 1
    33   13   14 1
    34   14   15 1
    35   14   39 1
    36   14   40 1
    37   17   22 ar
    38   17   18 ar
    39   18   19 ar
    40   18   41 1
    41   19   20 ar
    42   19   42 1
    43   20   21 ar
    44   20   23 1
    45   21   22 ar
    46   21   43 1
    47   22   44 1
@<TRIPOS>MOLECULE
ZINC05912566
   45    47     0     0     0
SMALL
USER_CHARGES

@<TRIPOS>ATOM
      1 C1         -0.1596    2.2843   -0.4797 C.3       1 <0>        -0.0531
      2 N1          0.0788    0.8393   -0.3653 N.4       1 <0>        -0.3873
      3 C2          0.9300    0.5743    0.8022 C.3       1 <0>        -0.0476
      4 C3         -1.2044    0.1425   -0.2041 C.3       1 <0>        -0.0112
      5 C4         -2.0416    0.3155   -1.4729 C.3       1 <0>        -0.1496
      6 C5         -3.3781   -0.4102   -1.3049 C.3       1 <0>        -0.1007
      7 C6         -4.2153   -0.2373   -2.5738 C.3       1 <0>         0.2018
      8 C7         -5.5594   -0.9066   -2.4059 C.ar      1 <0>        -0.1122
      9 C8         -5.9392   -2.1209   -1.8720 C.ar      1 <0>        -0.0828
     10 C9         -7.2749   -2.4779   -1.8513 C.ar      1 <0>        -0.0825
     11 C10        -8.2294   -1.6184   -2.3654 C.ar      1 <0>        -0.0791
     12 C11        -7.8481   -0.4006   -2.9007 C.ar      1 <0>        -0.0633
     13 C12        -6.5153   -0.0452   -2.9210 C.ar      1 <0>        -0.1176
     14 C13        -5.7899    1.1816   -3.4224 C.3       1 <0>         0.0892
     15 O1         -4.4930    1.1571   -2.7986 O.3       1 <0>        -0.3433
     16 Br1       -10.0557   -2.1081   -2.3370 Br        1 <0>        -0.0269
     17 C14        -3.4881   -0.8194   -3.7584 C.ar      1 <0>        -0.1210
     18 C15        -3.0483    0.0089   -4.7741 C.ar      1 <0>        -0.0744
     19 C16        -2.3809   -0.5238   -5.8608 C.ar      1 <0>        -0.1527
     20 C17        -2.1528   -1.8876   -5.9319 C.ar      1 <0>         0.1099
     21 C18        -2.5937   -2.7162   -4.9140 C.ar      1 <0>        -0.1506
     22 C19        -3.2562   -2.1806   -3.8258 C.ar      1 <0>        -0.0775
     23 F1         -1.5008   -2.4095   -6.9939 F         1 <0>        -0.1327
     24 H1          0.7925    2.8013   -0.5993 H         1 <0>         0.1241
     25 H2         -0.7912    2.4809   -1.3460 H         1 <0>         0.1258
     26 H3         -0.6570    2.6429    0.4215 H         1 <0>         0.1227
     27 H4          0.4326    0.9329    1.7034 H         1 <0>         0.1221
     28 H5          1.1069   -0.4979    0.8871 H         1 <0>         0.1230
     29 H6          1.8821    1.0913    0.6826 H         1 <0>         0.1245
     30 H7         -1.0226   -0.9181   -0.0304 H         1 <0>         0.1303
     31 H8         -1.7418    0.5629    0.6460 H         1 <0>         0.1307
     32 H9         -2.2234    1.3761   -1.6465 H         1 <0>         0.0980
     33 H10        -1.5042   -0.1050   -2.3229 H         1 <0>         0.0898
     34 H11        -3.1963   -1.4708   -1.1313 H         1 <0>         0.0900
     35 H12        -3.9155    0.0102   -0.4549 H         1 <0>         0.0898
     36 H13        -5.1940   -2.7919   -1.4710 H         1 <0>         0.1340
     37 H14        -7.5731   -3.4284   -1.4340 H         1 <0>         0.1435
     38 H15        -8.5929    0.2708   -3.3017 H         1 <0>         0.1404
     39 H16        -5.6860    1.1396   -4.5067 H         1 <0>         0.0866
     40 H17        -6.3299    2.0825   -3.1310 H         1 <0>         0.1090
     41 H18        -3.2267    1.0726   -4.7186 H         1 <0>         0.1407
     42 H19        -2.0378    0.1234   -6.6543 H         1 <0>         0.1404
     43 H20        -2.4165   -3.7802   -4.9685 H         1 <0>         0.1409
     44 H21        -3.5963   -2.8262   -3.0296 H         1 <0>         0.1321
     45 H22         0.5392    0.5073   -1.1995 H         1 <0>         0.4268
@<TRIPOS>BOND
     1    1    2 1
     2    1   24 1
     3    1   25 1
     4    1   26 1
     5    2    3 1
     6    2    4 1
     7    2   45 1
     8    3   27 1
     9    3   28 1
    10    3   29 1
    11    4    5 1
    12    4   30 1
    13    4   31 1
    14    5    6 1
    15    5   32 1
    16    5   33 1
    17    6    7 1
    18    6   34 1
    19    6   35 1
    20    7   15 1
    21    7    8 1
    22    7   17 1
    23    8   13 ar
    24    8    9 ar
    25    9   10 ar
    26    9   36 1
    27   10   11 ar
    28   10   37 1
    29   11   12 ar
    30   11   16 1
    31   12   13 ar
    32   12   38 1
    33   13   14 1
    34   14   15 1
    35   14   39 1
    36   14   40 1
    37   17   22 ar
    38   17   18 ar
    39   18   19 ar
    40   18   41 1
    41   19   20 ar
    42   19   42 1
    43   20   21 ar
    44   20   23 1
    45   21   22 ar
    46   21   43 1
    47   22   44 1
@<TRIPOS>MOLECULE
ZINC01319785
   47    49     0     0     0
SMALL
USER_CHARGES
ethyl 3-benzoyloxy-8-methyl-8-azabicyclo[3.2.1]octane-2-carboxylate
@<TRIPOS>ATOM
      1 C1          3.9995    4.7104   -3.9821 C.3       1 <0>        -0.1600
      2 C2          2.6475    4.0073   -3.8459 C.3       1 <0>         0.0603
      3 O1          2.1353    4.1996   -2.5009 O.3       1 <0>        -0.3339
      4 C3          0.9485    3.6414   -2.2152 C.2       1 <0>         0.4754
      5 O2          0.3572    3.0129   -3.0610 O.2       1 <0>        -0.5112
      6 C4          0.3535    3.7985   -0.8396 C.3       1 <0>        -0.1077
      7 H1          0.2000    4.8565   -0.6269 H         1 <0>         0.1670
      8 C5         -0.9912    3.0569   -0.7725 C.3       1 <0>         0.0538
      9 H2         -1.7543    3.5340   -1.3875 H         1 <0>         0.1659
     10 C6         -1.4090    2.9688    0.7135 C.3       1 <0>        -0.1406
     11 C7         -0.7571    1.6536    1.2384 C.3       1 <0>        -0.1400
     12 C8         -0.0127    1.0858    0.0080 C.3       1 <0>         0.0253
     13 H3          0.0021   -0.0041    0.0020 H         1 <0>         0.1592
     14 C9         -1.9895    0.9181   -1.4061 C.3       1 <0>        -0.0315
     15 C10         1.4031    1.6841   -0.0023 C.3       1 <0>        -0.1653
     16 C11         1.3029    3.1985    0.2015 C.3       1 <0>         0.0885
     17 H4          2.2910    3.6454    0.0912 H         1 <0>         0.1300
     18 O3          0.7953    3.4741    1.5337 O.3       1 <0>        -0.3351
     19 C12         1.7042    3.6073    2.5190 C.2       1 <0>         0.5048
     20 O4          2.8884    3.4964    2.2721 O.2       1 <0>        -0.4854
     21 C13         1.2608    3.8884    3.8998 C.ar      1 <0>        -0.1389
     22 C14        -0.0993    4.0222    4.1861 C.ar      1 <0>        -0.0679
     23 C15        -0.5067    4.2789    5.4788 C.ar      1 <0>        -0.1307
     24 C16         0.4295    4.4152    6.4884 C.ar      1 <0>        -0.0723
     25 C17         1.7792    4.2895    6.2107 C.ar      1 <0>        -0.1254
     26 C18         2.2002    4.0271    4.9235 C.ar      1 <0>        -0.0496
     27 H5          4.7018    4.2900   -3.2623 H         1 <0>         0.0721
     28 H6          4.3840    4.5661   -4.9917 H         1 <0>         0.0921
     29 H7          3.8760    5.7761   -3.7892 H         1 <0>         0.0733
     30 H8          2.7710    2.9417   -4.0387 H         1 <0>         0.0801
     31 H9          1.9452    4.4278   -4.5657 H         1 <0>         0.0832
     32 H10        -1.0268    3.8268    1.2665 H         1 <0>         0.1318
     33 H11        -2.4942    2.9136    0.7997 H         1 <0>         0.1040
     34 H12        -1.5155    0.9497    1.5811 H         1 <0>         0.0984
     35 H13        -0.0521    1.8731    2.0403 H         1 <0>         0.1217
     36 H14        -2.6302    0.9968   -0.5278 H         1 <0>         0.1187
     37 H15        -2.4995    1.3491   -2.2676 H         1 <0>         0.1250
     38 H16        -1.7688   -0.1312   -1.6019 H         1 <0>         0.1226
     39 H17         1.9907    1.2453    0.8041 H         1 <0>         0.1278
     40 H18         1.8807    1.4754   -0.9596 H         1 <0>         0.1011
     41 H19        -0.8308    3.9204    3.3981 H         1 <0>         0.1338
     42 H20        -1.5587    4.3778    5.7025 H         1 <0>         0.1357
     43 H21         0.1053    4.6202    7.4980 H         1 <0>         0.1358
     44 H22         2.5047    4.3967    7.0035 H         1 <0>         0.1391
     45 H23         3.2539    3.9289    4.7081 H         1 <0>         0.1401
     46 N1         -0.7144    1.6614   -1.1328 N.4       1 <0>        -0.3982
     47 H24        -0.1185    1.6248   -1.9681 H         1 <0>         0.4270
@<TRIPOS>BOND
     1    1    2 1
     2    1   27 1
     3    1   28 1
     4    1   29 1
     5    2    3 1
     6    2   30 1
     7    2   31 1
     8    3    4 1
     9    4    5 2
    10    4    6 1
    11    6    7 1
    12    6   16 1
    13    6    8 1
    14    8    9 1
    15    8   10 1
    16    8   46 1
    17   10   11 1
    18   10   32 1
    19   10   33 1
    20   11   12 1
    21   11   34 1
    22   11   35 1
    23   12   13 1
    24   12   15 1
    25   12   46 1
    26   14   36 1
    27   14   37 1
    28   14   38 1
    29   14   46 1
    30   15   16 1
    31   15   39 1
    32   15   40 1
    33   16   17 1
    34   16   18 1
    35   18   19 1
    36   19   20 2
    37   19   21 1
    38   21   26 ar
    39   21   22 ar
    40   22   23 ar
    41   22   41 1
    42   23   24 ar
    43   23   42 1
    44   24   25 ar
    45   24   43 1
    46   25   26 ar
    47   25   44 1
    48   26   45 1
    49   46   47 1
@<TRIPOS>MOLECULE
ZINC03872127
   47    49     0     0     0
SMALL
USER_CHARGES
ethyl 3-benzoyloxy-8-methyl-8-azabicyclo[3.2.1]octane-2-carboxylate
@<TRIPOS>ATOM
      1 C1          1.4713    1.2435    5.1404 C.3       1 <0>        -0.1576
      2 C2          0.5996    2.1672    4.2873 C.3       1 <0>         0.0656
      3 O1          1.2122    2.3420    2.9825 O.3       1 <0>        -0.3492
      4 C3          0.5682    3.1302    2.1075 C.2       1 <0>         0.4766
      5 O2         -0.4730    3.6567    2.4215 O.2       1 <0>        -0.4845
      6 C4          1.1438    3.3585    0.7336 C.3       1 <0>        -0.1009
      7 H1          2.1273    3.8203    0.8200 H         1 <0>         0.1493
      8 C5          0.2111    4.2800   -0.0664 C.3       1 <0>         0.0454
      9 H2         -0.0324    5.1977    0.4691 H         1 <0>         0.1686
     10 C6         -1.0508    3.4680   -0.4387 C.3       1 <0>        -0.1367
     11 C7         -0.7044    2.7931   -1.7822 C.3       1 <0>        -0.1448
     12 C8          0.7353    3.2588   -2.0997 C.3       1 <0>         0.0300
     13 H3          0.9165    3.3676   -3.1690 H         1 <0>         0.1629
     14 C9          0.1916    5.6336   -2.0920 C.3       1 <0>        -0.0344
     15 C10         1.7065    2.2624   -1.4463 C.3       1 <0>        -0.1582
     16 C11         1.2684    2.0196    0.0008 C.3       1 <0>         0.0839
     17 H4          2.0090    1.3982    0.5044 H         1 <0>         0.1301
     18 O3         -0.0162    1.3429    0.0094 O.3       1 <0>        -0.3402
     19 C12         0.0021   -0.0041    0.0020 C.2       1 <0>         0.5048
     20 O4          1.0621   -0.5970   -0.0113 O.2       1 <0>        -0.4849
     21 C13        -1.2671   -0.7600    0.0101 C.ar      1 <0>        -0.1398
     22 C14        -2.4873   -0.0816    0.0312 C.ar      1 <0>        -0.0678
     23 C15        -3.6687   -0.7938    0.0333 C.ar      1 <0>        -0.1303
     24 C16        -3.6463   -2.1772    0.0257 C.ar      1 <0>        -0.0723
     25 C17        -2.4406   -2.8559    0.0105 C.ar      1 <0>        -0.1255
     26 C18        -1.2518   -2.1562    0.0024 C.ar      1 <0>        -0.0497
     27 H5          1.5630    0.2747    4.6494 H         1 <0>         0.0693
     28 H6          2.4605    1.6855    5.2598 H         1 <0>         0.0708
     29 H7          1.0114    1.1124    6.1199 H         1 <0>         0.0893
     30 H8          0.5078    3.1360    4.7783 H         1 <0>         0.0785
     31 H9         -0.3896    1.7252    4.1679 H         1 <0>         0.0763
     32 H10        -1.2555    2.7150    0.3224 H         1 <0>         0.1284
     33 H11        -1.9079    4.1312   -0.5553 H         1 <0>         0.1006
     34 H12        -1.3907    3.1247   -2.5613 H         1 <0>         0.0963
     35 H13        -0.7387    1.7083   -1.6817 H         1 <0>         0.1215
     36 H14        -0.8684    5.3982   -2.1875 H         1 <0>         0.1207
     37 H15         0.3085    6.5656   -1.5391 H         1 <0>         0.1256
     38 H16         0.6306    5.7420   -3.0838 H         1 <0>         0.1277
     39 H17         2.7154    2.6749   -1.4580 H         1 <0>         0.1130
     40 H18         1.6886    1.3213   -1.9960 H         1 <0>         0.1260
     41 H19        -2.5061    0.9981    0.0418 H         1 <0>         0.1319
     42 H20        -4.6133   -0.2703    0.0452 H         1 <0>         0.1356
     43 H21        -4.5742   -2.7299    0.0320 H         1 <0>         0.1361
     44 H22        -2.4302   -3.9358    0.0046 H         1 <0>         0.1393
     45 H23        -0.3114   -2.6871   -0.0101 H         1 <0>         0.1402
     46 N1          0.8589    4.5135   -1.3524 N.4       1 <0>        -0.3932
     47 H24         1.8492    4.7451   -1.2114 H         1 <0>         0.4261
@<TRIPOS>BOND
     1    1    2 1
     2    1   27 1
     3    1   28 1
     4    1   29 1
     5    2    3 1
     6    2   30 1
     7    2   31 1
     8    3    4 1
     9    4    5 2
    10    4    6 1
    11    6    7 1
    12    6   16 1
    13    6    8 1
    14    8    9 1
    15    8   10 1
    16    8   46 1
    17   10   11 1
    18   10   32 1
    19   10   33 1
    20   11   12 1
    21   11   34 1
    22   11   35 1
    23   12   13 1
    24   12   15 1
    25   12   46 1
    26   14   36 1
    27   14   37 1
    28   14   38 1
    29   14   46 1
    30   15   16 1
    31   15   39 1
    32   15   40 1
    33   16   17 1
    34   16   18 1
    35   18   19 1
    36   19   20 2
    37   19   21 1
    38   21   26 ar
    39   21   22 ar
    40   22   23 ar
    41   22   41 1
    42   23   24 ar
    43   23   42 1
    44   24   25 ar
    45   24   43 1
    46   25   26 ar
    47   25   44 1
    48   26   45 1
    49   46   47 1
@<TRIPOS>MOLECULE
ZINC27408416
   47    49     0     0     0
SMALL
USER_CHARGES
isopropyl (1S,2S,3S,5R)-3-(4-iodophenyl)-8-methyl-8-azabicyclo[3.2.1]octane-2-carboxylate
@<TRIPOS>ATOM
      1 C1         -0.6509    1.4358   -1.2285 C.3       1 <0>        -0.1756
      2 C2          0.1136    0.7575   -0.0899 C.3       1 <0>         0.0835
      3 C3         -0.6238    0.9915    1.2300 C.3       1 <0>        -0.1563
      4 O1          1.4504    1.3177   -0.0034 O.3       1 <0>        -0.3507
      5 C4          2.4092    0.7214   -0.7294 C.2       1 <0>         0.4851
      6 O2          2.1403   -0.2368   -1.4145 O.2       1 <0>        -0.5004
      7 C5          3.8209    1.2472   -0.6900 C.3       1 <0>        -0.1070
      8 H1          3.8653    2.1581   -1.3051 H         1 <0>         0.1431
      9 C6          4.7828    0.1812   -1.2385 C.3       1 <0>         0.0570
     10 H2          4.4644   -0.1623   -2.2338 H         1 <0>         0.1609
     11 C7          4.8896   -0.9460   -0.1857 C.3       1 <0>        -0.2051
     12 C8          6.0401   -0.5095    0.7451 C.3       1 <0>        -0.2088
     13 C9          6.5240    0.8416    0.1700 C.3       1 <0>         0.0446
     14 H3          7.6001    1.0269    0.3028 H         1 <0>         0.1547
     15 N1          6.1413    0.7856   -1.2660 N.4       1 <0>        -0.4063
     16 C10         7.0758   -0.0541   -2.0274 C.3       1 <0>        -0.0502
     17 C11         5.6887    1.9557    0.8209 C.3       1 <0>        -0.1418
     18 C12         4.2087    1.5677    0.7564 C.3       1 <0>        -0.0501
     19 H4          3.5906    2.3965    1.1320 H         1 <0>         0.1350
     20 C13         3.9701    0.3557    1.6196 C.ar      1 <0>        -0.0757
     21 C14         2.9646   -0.5361    1.2960 C.ar      1 <0>        -0.1391
     22 C15         2.7493   -1.6508    2.0844 C.ar      1 <0>        -0.0916
     23 C16         3.5326   -1.8681    3.2031 C.ar      1 <0>        -0.0846
     24 C17         4.5347   -0.9728    3.5298 C.ar      1 <0>        -0.0970
     25 C18         4.7530    0.1390    2.7381 C.ar      1 <0>        -0.1018
     26 I1          3.2019   -3.5538    4.4024 I         1 <0>        -0.0160
     27 H5         -0.1207    1.2675   -2.1775 H         1 <0>         0.0625
     28 H6         -0.7180    2.5161   -1.0325 H         1 <0>         0.0731
     29 H7         -1.6636    1.0114   -1.2940 H         1 <0>         0.0857
     30 H8          0.2342   -0.3182   -0.2855 H         1 <0>         0.0888
     31 H9         -0.0741    0.5038    2.0485 H         1 <0>         0.0676
     32 H10        -1.6365    0.5671    1.1644 H         1 <0>         0.0892
     33 H11        -0.6909    2.0718    1.4260 H         1 <0>         0.0747
     34 H12         3.9368   -1.0322    0.3572 H         1 <0>         0.1647
     35 H13         5.1120   -1.8983   -0.6894 H         1 <0>         0.0968
     36 H14         5.6604   -0.4025    1.7720 H         1 <0>         0.1716
     37 H15         6.8357   -1.2688    0.7256 H         1 <0>         0.0949
     38 H16         8.0706    0.4154   -2.0316 H         1 <0>         0.1261
     39 H17         6.7154   -0.1590   -3.0614 H         1 <0>         0.1234
     40 H18         7.1411   -1.0474   -1.5593 H         1 <0>         0.1177
     41 H19         5.9956    2.0787    1.8700 H         1 <0>         0.1247
     42 H20         5.8498    2.8992    0.2788 H         1 <0>         0.1034
     43 H21         2.3502   -0.3642    0.4246 H         1 <0>         0.1547
     44 H22         1.9664   -2.3497    1.8293 H         1 <0>         0.1380
     45 H23         5.1469   -1.1424    4.4032 H         1 <0>         0.1423
     46 H24         5.5356    0.8383    2.9932 H         1 <0>         0.1472
     47 H25         6.1705    1.7668   -1.7623 H         1 <0>         0.4471
@<TRIPOS>BOND
     1    1    2 1
     2    1   27 1
     3    1   28 1
     4    1   29 1
     5    2    3 1
     6    2    4 1
     7    2   30 1
     8    3   31 1
     9    3   32 1
    10    3   33 1
    11    4    5 1
    12    5    6 2
    13    5    7 1
    14    7    8 1
    15    7   18 1
    16    7    9 1
    17    9   10 1
    18    9   15 1
    19    9   11 1
    20   11   12 1
    21   11   34 1
    22   11   35 1
    23   12   13 1
    24   12   36 1
    25   12   37 1
    26   13   14 1
    27   13   15 1
    28   13   17 1
    29   15   16 1
    30   15   47 1
    31   16   38 1
    32   16   39 1
    33   16   40 1
    34   17   18 1
    35   17   41 1
    36   17   42 1
    37   18   19 1
    38   18   20 1
    39   20   25 ar
    40   20   21 ar
    41   21   22 ar
    42   21   43 1
    43   22   23 ar
    44   22   44 1
    45   23   24 ar
    46   23   26 1
    47   24   25 ar
    48   24   45 1
    49   25   46 1
@<TRIPOS>MOLECULE
ZINC64559770
   57    60     0     0     0
SMALL
USER_CHARGES

@<TRIPOS>ATOM
      1 C1         -0.0178    1.4648    0.0101 C.3       1 <0>        -0.0470
      2 N1          0.0021   -0.0041    0.0020 N.4       1 <0>        -0.3845
      3 C2          0.6815   -0.4760   -1.2105 C.3       1 <0>        -0.0207
      4 C3          0.6339   -2.0045   -1.2642 C.3       1 <0>        -0.1297
      5 C4          1.3359   -2.5754   -0.0287 C.3       1 <0>        -0.0072
      6 C5          0.6658   -2.0178    1.2303 C.3       1 <0>        -0.1353
      7 C6          0.7122   -0.4888    1.1916 C.3       1 <0>        -0.0121
      8 C7          1.2246   -4.0783   -0.0353 C.ar      1 <0>        -0.1111
      9 C8          0.5637   -4.7158   -1.0698 C.ar      1 <0>        -0.1027
     10 C9          0.4588   -6.0919   -1.0809 C.ar      1 <0>        -0.1113
     11 C10         1.0201   -6.8392   -0.0474 C.ar      1 <0>        -0.0149
     12 C11         1.6847   -6.1918    0.9922 C.ar      1 <0>        -0.1089
     13 C12         1.7885   -4.8155    0.9902 C.ar      1 <0>        -0.0883
     14 C13         0.9101   -8.3190   -0.0537 C.ar      1 <0>        -0.0655
     15 C14         0.2501   -8.9667   -1.0960 C.ar      1 <0>        -0.1053
     16 C15         0.1512  -10.3433   -1.0970 C.ar      1 <0>        -0.1173
     17 C16         0.7053  -11.0798   -0.0656 C.ar      1 <0>        -0.1076
     18 C17         1.3611  -10.4420    0.9719 C.ar      1 <0>        -0.1170
     19 C18         1.4714   -9.0662    0.9798 C.ar      1 <0>        -0.1048
     20 C19         2.7889   -2.1761   -0.0452 C.2       1 <0>         0.4679
     21 O1          3.2204   -1.5036   -0.9516 O.2       1 <0>        -0.4977
     22 O2          3.6038   -2.5673    0.9471 O.3       1 <0>        -0.3333
     23 C20         4.9689   -2.1525    0.8672 C.3       1 <0>         0.1099
     24 C21         5.7253   -2.6817    2.0584 C.ar      1 <0>        -0.1090
     25 C22         5.8010   -1.9324    3.2176 C.ar      1 <0>        -0.0960
     26 C23         6.4948   -2.4178    4.3102 C.ar      1 <0>        -0.1211
     27 C24         7.1125   -3.6527    4.2439 C.ar      1 <0>        -0.1006
     28 C25         7.0360   -4.4024    3.0850 C.ar      1 <0>        -0.1188
     29 C26         6.3386   -3.9189    1.9938 C.ar      1 <0>        -0.0923
     30 H1          1.0047    1.8421    0.0024 H         1 <0>         0.1211
     31 H2         -0.5450    1.8259   -0.8730 H         1 <0>         0.1265
     32 H3         -0.5280    1.8163    0.9069 H         1 <0>         0.1256
     33 H4          0.1827   -0.0663   -2.0888 H         1 <0>         0.1386
     34 H5          1.7201   -0.1456   -1.1964 H         1 <0>         0.1456
     35 H6         -0.4044   -2.3361   -1.2786 H         1 <0>         0.1097
     36 H7          1.1404   -2.3531   -2.1643 H         1 <0>         0.1256
     37 H8         -0.3718   -2.3496    1.2677 H         1 <0>         0.1113
     38 H9          1.1951   -2.3758    2.1133 H         1 <0>         0.1277
     39 H10         1.7502   -0.1581    1.1545 H         1 <0>         0.1233
     40 H11         0.2361   -0.0886    2.0867 H         1 <0>         0.1425
     41 H12         0.1288   -4.1356   -1.8702 H         1 <0>         0.1298
     42 H13        -0.0577   -6.5886   -1.8889 H         1 <0>         0.1329
     43 H14         2.1213   -6.7662    1.7959 H         1 <0>         0.1326
     44 H15         2.3075   -4.3130    1.7930 H         1 <0>         0.1352
     45 H16        -0.1835   -8.3925   -1.9014 H         1 <0>         0.1252
     46 H17        -0.3602  -10.8464   -1.9044 H         1 <0>         0.1282
     47 H18         0.6252  -12.1568   -0.0701 H         1 <0>         0.1275
     48 H19         1.7916  -11.0219    1.7749 H         1 <0>         0.1282
     49 H20         1.9876   -8.5695    1.7880 H         1 <0>         0.1256
     50 H21         5.4141   -2.5423   -0.0483 H         1 <0>         0.0826
     51 H22         5.0180   -1.0637    0.8601 H         1 <0>         0.0796
     52 H23         5.3184   -0.9676    3.2694 H         1 <0>         0.1214
     53 H24         6.5545   -1.8321    5.2156 H         1 <0>         0.1284
     54 H25         7.6551   -4.0316    5.0973 H         1 <0>         0.1289
     55 H26         7.5189   -5.3670    3.0331 H         1 <0>         0.1293
     56 H27         6.2757   -4.5062    1.0897 H         1 <0>         0.1243
     57 H28        -0.9449   -0.3523    0.0117 H         1 <0>         0.4249
@<TRIPOS>BOND
     1    1    2 1
     2    1   30 1
     3    1   31 1
     4    1   32 1
     5    2    7 1
     6    2    3 1
     7    2   57 1
     8    3    4 1
     9    3   33 1
    10    3   34 1
    11    4    5 1
    12    4   35 1
    13    4   36 1
    14    5    6 1
    15    5    8 1
    16    5   20 1
    17    6    7 1
    18    6   37 1
    19    6   38 1
    20    7   39 1
    21    7   40 1
    22    8   13 ar
    23    8    9 ar
    24    9   10 ar
    25    9   41 1
    26   10   11 ar
    27   10   42 1
    28   11   12 ar
    29   11   14 1
    30   12   13 ar
    31   12   43 1
    32   13   44 1
    33   14   19 ar
    34   14   15 ar
    35   15   16 ar
    36   15   45 1
    37   16   17 ar
    38   16   46 1
    39   17   18 ar
    40   17   47 1
    41   18   19 ar
    42   18   48 1
    43   19   49 1
    44   20   21 2
    45   20   22 1
    46   22   23 1
    47   23   24 1
    48   23   50 1
    49   23   51 1
    50   24   29 ar
    51   24   25 ar
    52   25   26 ar
    53   25   52 1
    54   26   27 ar
    55   26   53 1
    56   27   28 ar
    57   27   54 1
    58   28   29 ar
    59   28   55 1
    60   29   56 1
@<TRIPOS>MOLECULE
ZINC64560550
   37    38     0     0     0
SMALL
USER_CHARGES

@<TRIPOS>ATOM
      1 C1         -0.0187    1.5258    0.0104 C.3       1 <0>        -0.1573
      2 C2          0.0021   -0.0041    0.0020 C.3       1 <0>         0.0597
      3 O1          0.6709   -0.4649   -1.1737 O.3       1 <0>        -0.3407
      4 C3          0.7755   -1.7935   -1.3341 C.2       1 <0>         0.4659
      5 O2          0.3143   -2.5404   -0.5039 O.2       1 <0>        -0.4927
      6 C4          1.4679   -2.3535   -2.5498 C.3       1 <0>        -0.0096
      7 C5          2.9209   -1.8705   -2.5795 C.3       1 <0>        -0.1382
      8 C6          3.6576   -2.4114   -1.3523 C.3       1 <0>        -0.0116
      9 N1          3.6279   -3.8789   -1.3667 N.4       1 <0>        -0.5048
     10 C7          2.2414   -4.3500   -1.2661 C.3       1 <0>        -0.0203
     11 C8          1.4501   -3.8836   -2.4900 C.3       1 <0>        -0.1324
     12 C9          0.7555   -1.8895   -3.7941 C.ar      1 <0>        -0.0929
     13 C10         0.2053   -2.8154   -4.6611 C.ar      1 <0>        -0.0930
     14 C11        -0.4480   -2.3913   -5.8028 C.ar      1 <0>        -0.0932
     15 C12        -0.5521   -1.0395   -6.0784 C.ar      1 <0>        -0.0185
     16 C13        -0.0017   -0.1124   -5.2099 C.ar      1 <0>        -0.0301
     17 C14         0.6474   -0.5386   -4.0649 C.ar      1 <0>        -0.0772
     18 Cl1        -0.1311    1.5841   -5.5546 Cl        1 <0>        -0.0277
     19 Cl2        -1.3721   -0.5062   -7.5126 Cl        1 <0>        -0.0264
     20 H1          1.0039    1.9031    0.0027 H         1 <0>         0.0694
     21 H2         -0.5459    1.8868   -0.8726 H         1 <0>         0.0717
     22 H3         -0.5289    1.8773    0.9072 H         1 <0>         0.0880
     23 H4          0.5293   -0.3651    0.8851 H         1 <0>         0.0725
     24 H5         -1.0205   -0.3814    0.0098 H         1 <0>         0.0753
     25 H6          3.4068   -2.2336   -3.4851 H         1 <0>         0.1143
     26 H7          2.9425   -0.7808   -2.5660 H         1 <0>         0.1291
     27 H8          4.6924   -2.0692   -1.3702 H         1 <0>         0.1474
     28 H9          3.1711   -2.0475   -0.4473 H         1 <0>         0.1263
     29 H10         4.0343   -4.2140   -2.2273 H         1 <0>         0.4290
     30 H11         2.2305   -5.4389   -1.2203 H         1 <0>         0.1436
     31 H12         1.7851   -3.9447   -0.3629 H         1 <0>         0.1476
     32 H13         0.4205   -4.2329   -2.4125 H         1 <0>         0.1278
     33 H14         1.9055   -4.2885   -3.3937 H         1 <0>         0.1126
     34 H15         0.2865   -3.8707   -4.4463 H         1 <0>         0.1449
     35 H16        -0.8768   -3.1150   -6.4800 H         1 <0>         0.1523
     36 H17         1.0735    0.1843   -3.3850 H         1 <0>         0.1532
     37 H18         4.1598   -4.2327   -0.5857 H         1 <0>         0.4359
@<TRIPOS>BOND
     1    1    2 1
     2    1   20 1
     3    1   21 1
     4    1   22 1
     5    2    3 1
     6    2   23 1
     7    2   24 1
     8    3    4 1
     9    4    5 2
    10    4    6 1
    11    6   11 1
    12    6    7 1
    13    6   12 1
    14    7    8 1
    15    7   25 1
    16    7   26 1
    17    8    9 1
    18    8   27 1
    19    8   28 1
    20    9   10 1
    21    9   29 1
    22    9   37 1
    23   10   11 1
    24   10   30 1
    25   10   31 1
    26   11   32 1
    27   11   33 1
    28   12   17 ar
    29   12   13 ar
    30   13   14 ar
    31   13   34 1
    32   14   15 ar
    33   14   35 1
    34   15   16 ar
    35   15   19 1
    36   16   17 ar
    37   16   18 1
    38   17   36 1
@<TRIPOS>MOLECULE
ZINC05719749
   40    42     0     0     0
SMALL
USER_CHARGES

@<TRIPOS>ATOM
      1 C1         -0.0178    1.4648    0.0101 C.3       1 <0>        -0.0430
      2 N1          0.0021   -0.0041    0.0020 N.4       1 <0>        -0.3990
      3 C2          0.7720   -0.5069   -1.1648 C.3       1 <0>         0.0015
      4 C3          1.1903   -1.9387   -0.7670 C.3       1 <0>        -0.0522
      5 H1          0.4766   -2.6639   -1.1577 H         1 <0>         0.1303
      6 C4          1.1732   -1.9474    0.7755 C.3       1 <0>        -0.1602
      7 H2          2.1671   -2.1694    1.1639 H         1 <0>         0.1484
      8 C5          0.7459   -0.5201    1.1799 C.3       1 <0>         0.0079
      9 C6          0.1764   -2.9578    1.2821 C.2       1 <0>         0.4064
     10 O1         -0.7629   -3.2837    0.5877 O.2       1 <0>        -0.4334
     11 C7          0.3428   -3.5484    2.6181 C.ar      1 <0>        -0.2022
     12 C8          1.4224   -3.1702    3.4241 C.ar      1 <0>        -0.0441
     13 C9          1.5725   -3.7274    4.6749 C.ar      1 <0>        -0.1649
     14 C10         0.6567   -4.6618    5.1358 C.ar      1 <0>         0.1524
     15 C11        -0.4158   -5.0410    4.3418 C.ar      1 <0>        -0.1637
     16 C12        -0.5810   -4.4869    3.0916 C.ar      1 <0>        -0.0203
     17 F1          0.8101   -5.2052    6.3631 F         1 <0>        -0.1220
     18 C13         2.5752   -2.2406   -1.2789 C.ar      1 <0>        -0.1177
     19 C14         3.6424   -1.4526   -0.8899 C.ar      1 <0>        -0.0886
     20 C15         4.9129   -1.7288   -1.3583 C.ar      1 <0>        -0.1477
     21 C16         5.1168   -2.7952   -2.2175 C.ar      1 <0>         0.1209
     22 C17         4.0472   -3.5838   -2.6064 C.ar      1 <0>        -0.1455
     23 C18         2.7784   -3.3088   -2.1325 C.ar      1 <0>        -0.0677
     24 F2          6.3583   -3.0659   -2.6763 F         1 <0>        -0.1278
     25 H3          1.0047    1.8421    0.0024 H         1 <0>         0.1240
     26 H4         -0.5450    1.8259   -0.8730 H         1 <0>         0.1271
     27 H5         -0.5280    1.8163    0.9069 H         1 <0>         0.1258
     28 H6          0.1431   -0.5280   -2.0547 H         1 <0>         0.1438
     29 H7          1.6524    0.1129   -1.3350 H         1 <0>         0.1400
     30 H8          1.6221    0.0976    1.3767 H         1 <0>         0.1496
     31 H9          0.0972   -0.5512    2.0554 H         1 <0>         0.1410
     32 H10         2.1366   -2.4433    3.0662 H         1 <0>         0.1402
     33 H11         2.4053   -3.4364    5.2980 H         1 <0>         0.1496
     34 H12        -1.1253   -5.7690    4.7065 H         1 <0>         0.1506
     35 H13        -1.4188   -4.7797    2.4762 H         1 <0>         0.1481
     36 H14         3.4831   -0.6206   -0.2200 H         1 <0>         0.1299
     37 H15         5.7464   -1.1128   -1.0545 H         1 <0>         0.1440
     38 H16         4.2050   -4.4157   -3.2768 H         1 <0>         0.1456
     39 H17         1.9447   -3.9265   -2.4322 H         1 <0>         0.1391
     40 H18        -0.9383   -0.3697   -0.0094 H         1 <0>         0.4336
@<TRIPOS>BOND
     1    1    2 1
     2    1   25 1
     3    1   26 1
     4    1   27 1
     5    2    8 1
     6    2    3 1
     7    2   40 1
     8    3    4 1
     9    3   28 1
    10    3   29 1
    11    4    5 1
    12    4    6 1
    13    4   18 1
    14    6    7 1
    15    6    8 1
    16    6    9 1
    17    8   30 1
    18    8   31 1
    19    9   10 2
    20    9   11 1
    21   11   16 ar
    22   11   12 ar
    23   12   13 ar
    24   12   32 1
    25   13   14 ar
    26   13   33 1
    27   14   15 ar
    28   14   17 1
    29   15   16 ar
    30   15   34 1
    31   16   35 1
    32   18   23 ar
    33   18   19 ar
    34   19   20 ar
    35   19   36 1
    36   20   21 ar
    37   20   37 1
    38   21   22 ar
    39   21   24 1
    40   22   23 ar
    41   22   38 1
    42   23   39 1
@<TRIPOS>MOLECULE
ZINC05719749
   39    41     0     0     0
SMALL
USER_CHARGES

@<TRIPOS>ATOM
      1 C1         -0.0178    1.4648    0.0101 C.3       1 <0>         0.0119
      2 N1          0.0021   -0.0041    0.0020 N.3       1 <0>        -0.5108
      3 C2          0.7880   -0.5195   -1.1485 C.3       1 <0>         0.0413
      4 C3          1.1729   -1.9586   -0.7431 C.3       1 <0>        -0.0439
      5 H1          0.4552   -2.6712   -1.1496 H         1 <0>         0.1072
      6 C4          1.1226   -1.9677    0.7986 C.3       1 <0>        -0.1336
      7 H2          2.1040   -2.2071    1.2080 H         1 <0>         0.1075
      8 C5          0.7115   -0.5335    1.1951 C.3       1 <0>         0.0456
      9 C6          0.0980   -2.9610    1.2830 C.2       1 <0>         0.4100
     10 O1         -0.8318   -3.2703    0.5685 O.2       1 <0>        -0.4320
     11 C7          0.2255   -3.5550    2.6217 C.ar      1 <0>        -0.1807
     12 C8          1.2940   -3.1959    3.4510 C.ar      1 <0>        -0.0444
     13 C9          1.4077   -3.7562    4.7042 C.ar      1 <0>        -0.1658
     14 C10         0.4662   -4.6749    5.1446 C.ar      1 <0>         0.1324
     15 C11        -0.5954   -5.0352    4.3276 C.ar      1 <0>        -0.1652
     16 C12        -0.7243   -4.4776    3.0746 C.ar      1 <0>        -0.0303
     17 F1          0.5839   -5.2214    6.3745 F         1 <0>        -0.1317
     18 C13         2.5630   -2.2841   -1.2255 C.ar      1 <0>        -0.0901
     19 C14         3.6351   -1.5149   -0.8131 C.ar      1 <0>        -0.0873
     20 C15         4.9103   -1.8128   -1.2545 C.ar      1 <0>        -0.1502
     21 C16         5.1141   -2.8822   -2.1100 C.ar      1 <0>         0.0980
     22 C17         4.0396   -3.6519   -2.5224 C.ar      1 <0>        -0.1491
     23 C18         2.7659   -3.3553   -2.0755 C.ar      1 <0>        -0.0806
     24 F2          6.3603   -3.1741   -2.5425 F         1 <0>        -0.1385
     25 H3          1.0047    1.8421    0.0024 H         1 <0>         0.0311
     26 H4         -0.5450    1.8259   -0.8730 H         1 <0>         0.0739
     27 H5         -0.5280    1.8163    0.9069 H         1 <0>         0.0720
     28 H6          0.1779   -0.5293   -2.0517 H         1 <0>         0.0896
     29 H7          1.6823    0.0850   -1.2993 H         1 <0>         0.0529
     30 H8          1.5939    0.0689    1.4111 H         1 <0>         0.0598
     31 H9          0.0438   -0.5537    2.0565 H         1 <0>         0.0880
     32 H10         2.0281   -2.4813    3.1090 H         1 <0>         0.1415
     33 H11         2.2318   -3.4800    5.3452 H         1 <0>         0.1438
     34 H12        -1.3251   -5.7509    4.6764 H         1 <0>         0.1441
     35 H13        -1.5537   -4.7556    2.4412 H         1 <0>         0.1455
     36 H14         3.4759   -0.6806   -0.1460 H         1 <0>         0.1294
     37 H15         5.7477   -1.2115   -0.9324 H         1 <0>         0.1365
     38 H16         4.1973   -4.4861   -3.1900 H         1 <0>         0.1376
     39 H17         1.9282   -3.9583   -2.3935 H         1 <0>         0.1349
@<TRIPOS>BOND
     1    1    2 1
     2    1   25 1
     3    1   26 1
     4    1   27 1
     5    2    8 1
     6    2    3 1
     7    3    4 1
     8    3   28 1
     9    3   29 1
    10    4    5 1
    11    4    6 1
    12    4   18 1
    13    6    7 1
    14    6    8 1
    15    6    9 1
    16    8   30 1
    17    8   31 1
    18    9   10 2
    19    9   11 1
    20   11   16 ar
    21   11   12 ar
    22   12   13 ar
    23   12   32 1
    24   13   14 ar
    25   13   33 1
    26   14   15 ar
    27   14   17 1
    28   15   16 ar
    29   15   34 1
    30   16   35 1
    31   18   23 ar
    32   18   19 ar
    33   19   20 ar
    34   19   36 1
    35   20   21 ar
    36   20   37 1
    37   21   22 ar
    38   21   24 1
    39   22   23 ar
    40   22   38 1
    41   23   39 1
@<TRIPOS>MOLECULE
ZINC19367174
   47    49     0     0     0
SMALL
USER_CHARGES

@<TRIPOS>ATOM
      1 C1         -0.0167    1.3781    0.0096 C.ar      1 <0>        -0.1141
      2 C2          1.1709    2.0855    0.0021 C.ar      1 <0>        -0.1191
      3 C3          2.3773    1.4107   -0.0130 C.ar      1 <0>        -0.1102
      4 C4          2.3960    0.0285   -0.0201 C.ar      1 <0>        -0.0837
      5 C5          1.2084   -0.6789   -0.0117 C.ar      1 <0>        -0.0871
      6 C6          0.0021   -0.0041    0.0020 C.ar      1 <0>        -0.1234
      7 C7          3.7112   -0.7071   -0.0376 C.3       1 <0>         0.1791
      8 C8          4.0438   -1.1746    1.3559 C.ar      1 <0>        -0.1165
      9 C9          3.5369   -2.3732    1.8222 C.ar      1 <0>        -0.0931
     10 C10         3.8420   -2.8021    3.1005 C.ar      1 <0>        -0.1219
     11 C11         4.6543   -2.0326    3.9122 C.ar      1 <0>        -0.1127
     12 C12         5.1619   -0.8345    3.4456 C.ar      1 <0>        -0.1184
     13 C13         4.8603   -0.4077    2.1658 C.ar      1 <0>        -0.1101
     14 O1          3.6140   -1.8361   -0.9083 O.3       1 <0>        -0.3556
     15 C14         4.8476   -2.1962   -1.5330 C.3       1 <0>         0.0616
     16 C15         4.6260   -3.4103   -2.4373 C.3       1 <0>         0.0585
     17 N1          3.7255   -3.0430   -3.5383 N.3       1 <0>        -0.5290
     18 C16         4.3573   -2.0602   -4.4300 C.3       1 <0>         0.0191
     19 C17         3.3675   -1.6603   -5.5263 C.3       1 <0>        -0.0019
     20 N2          2.9706   -2.8527   -6.2866 N.4       1 <0>        -0.5081
     21 C18         2.3192   -3.8144   -5.3875 C.3       1 <0>        -0.0023
     22 C19         3.3003   -4.2322   -4.2900 C.3       1 <0>         0.0245
     23 H1         -0.9591    1.9053    0.0259 H         1 <0>         0.1236
     24 H2          1.1563    3.1654    0.0076 H         1 <0>         0.1249
     25 H3          3.3051    1.9634   -0.0196 H         1 <0>         0.1203
     26 H4          1.2231   -1.7588   -0.0179 H         1 <0>         0.1238
     27 H5         -0.9258   -0.5567    0.0082 H         1 <0>         0.1227
     28 H6          4.4960   -0.0399   -0.3940 H         1 <0>         0.0742
     29 H7          2.9023   -2.9744    1.1880 H         1 <0>         0.1242
     30 H8          3.4455   -3.7381    3.4650 H         1 <0>         0.1235
     31 H9          4.8921   -2.3673    4.9112 H         1 <0>         0.1243
     32 H10         5.7962   -0.2331    4.0800 H         1 <0>         0.1250
     33 H11         5.2599    0.5266    1.7999 H         1 <0>         0.1200
     34 H12         5.2102   -1.3596   -2.1304 H         1 <0>         0.0503
     35 H13         5.5840   -2.4424   -0.7681 H         1 <0>         0.0642
     36 H14         5.5821   -3.7395   -2.8443 H         1 <0>         0.0621
     37 H15         4.1803   -4.2186   -1.8576 H         1 <0>         0.0990
     38 H16         4.6406   -1.1778   -3.8562 H         1 <0>         0.1228
     39 H17         5.2454   -2.4995   -4.8843 H         1 <0>         0.0600
     40 H18         2.4855   -1.2086   -5.0724 H         1 <0>         0.1404
     41 H19         3.8390   -0.9420   -6.1971 H         1 <0>         0.1375
     42 H20         2.3276   -2.5869   -7.0173 H         1 <0>         0.4341
     43 H21         1.4425   -3.3517   -4.9343 H         1 <0>         0.1403
     44 H22         2.0135   -4.6931   -5.9554 H         1 <0>         0.1381
     45 H23         4.1710   -4.7073   -4.7420 H         1 <0>         0.0596
     46 H24         2.8123   -4.9344   -3.6141 H         1 <0>         0.1239
     47 H25         3.7887   -3.2773   -6.6972 H         1 <0>         0.4254
@<TRIPOS>BOND
     1    1    6 ar
     2    1    2 ar
     3    1   23 1
     4    2    3 ar
     5    2   24 1
     6    3    4 ar
     7    3   25 1
     8    4    5 ar
     9    4    7 1
    10    5    6 ar
    11    5   26 1
    12    6   27 1
    13    7    8 1
    14    7   14 1
    15    7   28 1
    16    8   13 ar
    17    8    9 ar
    18    9   10 ar
    19    9   29 1
    20   10   11 ar
    21   10   30 1
    22   11   12 ar
    23   11   31 1
    24   12   13 ar
    25   12   32 1
    26   13   33 1
    27   14   15 1
    28   15   16 1
    29   15   34 1
    30   15   35 1
    31   16   17 1
    32   16   36 1
    33   16   37 1
    34   17   22 1
    35   17   18 1
    36   18   19 1
    37   18   38 1
    38   18   39 1
    39   19   20 1
    40   19   40 1
    41   19   41 1
    42   20   21 1
    43   20   42 1
    44   20   47 1
    45   21   22 1
    46   21   43 1
    47   21   44 1
    48   22   45 1
    49   22   46 1
@<TRIPOS>MOLECULE
ZINC00002275
   47    49     0     0     0
SMALL
USER_CHARGES
2-[(2-ethoxyphenoxy)-phenyl-methyl]morpholine
@<TRIPOS>ATOM
      1 C1          3.7658   -0.8597   -0.0076 C.3       1 <0>        -0.1535
      2 C2          2.3425   -0.3045   -0.0892 C.3       1 <0>         0.0523
      3 O1          2.3855    1.1235   -0.0552 O.3       1 <0>        -0.3045
      4 C3          1.1955    1.7787   -0.1193 C.ar      1 <0>         0.1159
      5 C4          0.0128    1.0628   -0.2128 C.ar      1 <0>        -0.1686
      6 C5         -1.1955    1.7306   -0.2836 C.ar      1 <0>        -0.1015
      7 C6         -1.2282    3.1124   -0.2507 C.ar      1 <0>        -0.1167
      8 C7         -0.0519    3.8326   -0.1575 C.ar      1 <0>        -0.1897
      9 C8          1.1630    3.1696   -0.0915 C.ar      1 <0>         0.0771
     10 O2          2.3211    3.8766   -0.0002 O.3       1 <0>        -0.2816
     11 C9          2.2230    5.2986   -0.1031 C.3       1 <0>         0.1406
     12 H1          1.2847    5.5637   -0.5904 H         1 <0>         0.1038
     13 C10         3.3775    5.8243   -0.9165 C.ar      1 <0>        -0.1062
     14 C11         4.6184    5.2220   -0.8249 C.ar      1 <0>        -0.0901
     15 C12         5.6763    5.7012   -1.5748 C.ar      1 <0>        -0.1212
     16 C13         5.4957    6.7889   -2.4086 C.ar      1 <0>        -0.1022
     17 C14         4.2562    7.3947   -2.4959 C.ar      1 <0>        -0.1196
     18 C15         3.1971    6.9122   -1.7500 C.ar      1 <0>        -0.0892
     19 C16         2.2627    5.9151    1.2966 C.3       1 <0>         0.0583
     20 H2          3.2001    5.6491    1.7850 H         1 <0>         0.1003
     21 C17         1.0869    5.3857    2.1220 C.3       1 <0>        -0.0472
     22 C18         0.9843    7.4991    3.2957 C.3       1 <0>        -0.0426
     23 C19         2.1611    8.0073    2.4585 C.3       1 <0>         0.0365
     24 O3          2.1645    7.3382    1.1945 O.3       1 <0>        -0.3419
     25 H3          4.3477   -0.4935   -0.8534 H         1 <0>         0.0688
     26 H4          4.2308   -0.5323    0.9223 H         1 <0>         0.0663
     27 H5          3.7330   -1.9489   -0.0335 H         1 <0>         0.0832
     28 H6          1.7605   -0.6707    0.7566 H         1 <0>         0.0639
     29 H7          1.8775   -0.6319   -1.0191 H         1 <0>         0.0657
     30 H8          0.0354   -0.0167   -0.2349 H         1 <0>         0.1409
     31 H9         -2.1164    1.1716   -0.3606 H         1 <0>         0.1340
     32 H10        -2.1745    3.6303   -0.3021 H         1 <0>         0.1318
     33 H11        -0.0799    4.9120   -0.1358 H         1 <0>         0.1335
     34 H12         4.7605    4.3748   -0.1704 H         1 <0>         0.1268
     35 H13         6.6448    5.2282   -1.5063 H         1 <0>         0.1275
     36 H14         6.3231    7.1656   -2.9916 H         1 <0>         0.1277
     37 H15         4.1153    8.2447   -3.1471 H         1 <0>         0.1286
     38 H16         2.2287    7.3855   -1.8182 H         1 <0>         0.1235
     39 H17         0.1521    5.6048    1.6060 H         1 <0>         0.1433
     40 H18         1.1885    4.3081    2.2507 H         1 <0>         0.1473
     41 H19         1.0110    7.9641    4.2811 H         1 <0>         0.1471
     42 H20         0.0479    7.7526    2.7988 H         1 <0>         0.1411
     43 H21         3.0952    7.8021    2.9814 H         1 <0>         0.0832
     44 H22         2.0593    9.0811    2.3017 H         1 <0>         0.1456
     45 N1          1.0862    6.0351    3.4467 N.4       1 <0>        -0.5141
     46 H23         1.9579    5.8045    3.9379 H         1 <0>         0.4340
     47 H24         0.2857    5.6936    3.9915 H         1 <0>         0.4415
@<TRIPOS>BOND
     1    1    2 1
     2    1   25 1
     3    1   26 1
     4    1   27 1
     5    2    3 1
     6    2   28 1
     7    2   29 1
     8    3    4 1
     9    4    9 ar
    10    4    5 ar
    11    5    6 ar
    12    5   30 1
    13    6    7 ar
    14    6   31 1
    15    7    8 ar
    16    7   32 1
    17    8    9 ar
    18    8   33 1
    19    9   10 1
    20   10   11 1
    21   11   12 1
    22   11   13 1
    23   11   19 1
    24   13   18 ar
    25   13   14 ar
    26   14   15 ar
    27   14   34 1
    28   15   16 ar
    29   15   35 1
    30   16   17 ar
    31   16   36 1
    32   17   18 ar
    33   17   37 1
    34   18   38 1
    35   19   20 1
    36   19   24 1
    37   19   21 1
    38   21   39 1
    39   21   40 1
    40   21   45 1
    41   22   23 1
    42   22   41 1
    43   22   42 1
    44   22   45 1
    45   23   24 1
    46   23   43 1
    47   23   44 1
    48   45   46 1
    49   45   47 1
@<TRIPOS>MOLECULE
ZINC00002284
   47    49     0     0     0
SMALL
USER_CHARGES
2-[(2-ethoxyphenoxy)-phenyl-methyl]morpholine
@<TRIPOS>ATOM
      1 C1         -0.2577    1.4416    0.0894 C.3       1 <0>        -0.1513
      2 C2          0.0072   -0.0609   -0.0264 C.3       1 <0>         0.0521
      3 O1          0.6878   -0.5163    1.1447 O.3       1 <0>        -0.3107
      4 C3          1.0003   -1.8386    1.2023 C.ar      1 <0>         0.1096
      5 C4          0.6592   -2.6789    0.1547 C.ar      1 <0>        -0.1731
      6 C5          0.9775   -4.0228    0.2148 C.ar      1 <0>        -0.1022
      7 C6          1.6362   -4.5316    1.3188 C.ar      1 <0>        -0.1164
      8 C7          1.9794   -3.6987    2.3674 C.ar      1 <0>        -0.1622
      9 C8          1.6683   -2.3495    2.3109 C.ar      1 <0>         0.0877
     10 O2          2.0102   -1.5277    3.3391 O.3       1 <0>        -0.2963
     11 C9          2.5815   -2.1403    4.4968 C.3       1 <0>         0.1428
     12 H1          2.1155   -3.1119    4.6611 H         1 <0>         0.0968
     13 C10         4.0630   -2.3224    4.2895 C.ar      1 <0>        -0.1274
     14 C11         4.7994   -1.3355    3.6613 C.ar      1 <0>        -0.0926
     15 C12         6.1592   -1.5006    3.4750 C.ar      1 <0>        -0.1196
     16 C13         6.7808   -2.6567    3.9084 C.ar      1 <0>        -0.1023
     17 C14         6.0436   -3.6456    4.5324 C.ar      1 <0>        -0.1182
     18 C15         4.6846   -3.4787    4.7225 C.ar      1 <0>        -0.0929
     19 C16         2.3431   -1.2476    5.7163 C.3       1 <0>         0.0824
     20 H2          2.8088   -0.2758    5.5526 H         1 <0>         0.1000
     21 C17         0.8381   -1.0639    5.9290 C.3       1 <0>        -0.0381
     22 C18         1.2113   -0.9294    8.3158 C.3       1 <0>        -0.0426
     23 C19         2.7125   -1.1145    8.0792 C.3       1 <0>         0.0381
     24 O3          2.9128   -1.8610    6.8759 O.3       1 <0>        -0.3431
     25 H3          0.6900    1.9710    0.1878 H         1 <0>         0.0669
     26 H4         -0.7768    1.7889   -0.8038 H         1 <0>         0.0825
     27 H5         -0.8748    1.6351    0.9668 H         1 <0>         0.0636
     28 H6         -0.9405   -0.5903   -0.1248 H         1 <0>         0.0637
     29 H7          0.6243   -0.2545   -0.9037 H         1 <0>         0.0650
     30 H8          0.1450   -2.2839   -0.7090 H         1 <0>         0.1386
     31 H9          0.7114   -4.6767   -0.6025 H         1 <0>         0.1326
     32 H10         1.8835   -5.5820    1.3619 H         1 <0>         0.1314
     33 H11         2.4939   -4.0986    3.2286 H         1 <0>         0.1347
     34 H12         4.3130   -0.4340    3.3190 H         1 <0>         0.1240
     35 H13         6.7352   -0.7278    2.9878 H         1 <0>         0.1266
     36 H14         7.8426   -2.7871    3.7599 H         1 <0>         0.1273
     37 H15         6.5293   -4.5489    4.8710 H         1 <0>         0.1280
     38 H16         4.1085   -4.2515    5.2097 H         1 <0>         0.1226
     39 H17         0.4100   -0.5448    5.0715 H         1 <0>         0.1536
     40 H18         0.3642   -2.0394    6.0385 H         1 <0>         0.1408
     41 H19         1.0557   -0.3121    9.2006 H         1 <0>         0.1467
     42 H20         0.7434   -1.9027    8.4634 H         1 <0>         0.1410
     43 H21         3.1891   -0.1387    7.9850 H         1 <0>         0.0834
     44 H22         3.1497   -1.6535    8.9197 H         1 <0>         0.1457
     45 N1          0.6093   -0.2620    7.1460 N.4       1 <0>        -0.5152
     46 H23        -0.4007   -0.1567    7.2979 H         1 <0>         0.4418
     47 H24         1.0359    0.6643    7.0270 H         1 <0>         0.4344
@<TRIPOS>BOND
     1    1    2 1
     2    1   25 1
     3    1   26 1
     4    1   27 1
     5    2    3 1
     6    2   28 1
     7    2   29 1
     8    3    4 1
     9    4    9 ar
    10    4    5 ar
    11    5    6 ar
    12    5   30 1
    13    6    7 ar
    14    6   31 1
    15    7    8 ar
    16    7   32 1
    17    8    9 ar
    18    8   33 1
    19    9   10 1
    20   10   11 1
    21   11   12 1
    22   11   13 1
    23   11   19 1
    24   13   18 ar
    25   13   14 ar
    26   14   15 ar
    27   14   34 1
    28   15   16 ar
    29   15   35 1
    30   16   17 ar
    31   16   36 1
    32   17   18 ar
    33   17   37 1
    34   18   38 1
    35   19   20 1
    36   19   24 1
    37   19   21 1
    38   21   39 1
    39   21   40 1
    40   21   45 1
    41   22   23 1
    42   22   41 1
    43   22   42 1
    44   22   45 1
    45   23   24 1
    46   23   43 1
    47   23   44 1
    48   45   46 1
    49   45   47 1
@<TRIPOS>MOLECULE
ZINC00006923
   47    49     0     0     0
SMALL
USER_CHARGES

@<TRIPOS>ATOM
      1 C1         -0.0241    1.4833   -0.0247 C.3       1 <0>        -0.1532
      2 C2          0.1908   -0.0289   -0.1147 C.3       1 <0>         0.0525
      3 O1          0.8097   -0.4943    1.0863 O.3       1 <0>        -0.3036
      4 C3          1.0721   -1.8261    1.1696 C.ar      1 <0>         0.1113
      5 C4          0.7463   -2.6652    0.1162 C.ar      1 <0>        -0.1682
      6 C5          1.0142   -4.0187    0.2023 C.ar      1 <0>        -0.1050
      7 C6          1.6066   -4.5383    1.3382 C.ar      1 <0>        -0.1148
      8 C7          1.9338   -3.7068    2.3930 C.ar      1 <0>        -0.1943
      9 C8          1.6737   -2.3482    2.3106 C.ar      1 <0>         0.0786
     10 O2          2.0003   -1.5279    3.3449 O.3       1 <0>        -0.2770
     11 C9          2.5664   -2.1407    4.5051 C.3       1 <0>         0.1393
     12 H1          3.0287   -3.0878    4.2269 H         1 <0>         0.1108
     13 C10         3.6090   -1.2277    5.0973 C.ar      1 <0>        -0.1106
     14 C11         3.3847    0.1353    5.1497 C.ar      1 <0>        -0.0647
     15 C12         4.3410    0.9727    5.6930 C.ar      1 <0>        -0.1241
     16 C13         5.5214    0.4471    6.1842 C.ar      1 <0>        -0.1007
     17 C14         5.7453   -0.9160    6.1326 C.ar      1 <0>        -0.1215
     18 C15         4.7872   -1.7539    5.5933 C.ar      1 <0>        -0.1060
     19 C16         1.4653   -2.3942    5.5367 C.3       1 <0>         0.0572
     20 H2          1.8791   -2.9409    6.3840 H         1 <0>         0.1027
     21 C17         0.3443   -3.2164    4.8961 C.3       1 <0>        -0.0524
     22 N1         -0.7378   -3.4087    5.8715 N.4       1 <0>        -0.5031
     23 C18        -1.2628   -2.0996    6.2834 C.3       1 <0>        -0.0459
     24 C19        -0.1388   -1.2794    6.9214 C.3       1 <0>         0.0331
     25 O3          0.9360   -1.1442    5.9874 O.3       1 <0>        -0.3322
     26 H3          0.9375    1.9799    0.1045 H         1 <0>         0.0691
     27 H4         -0.4962    1.8383   -0.9408 H         1 <0>         0.0828
     28 H5         -0.6668    1.7089    0.8262 H         1 <0>         0.0658
     29 H6         -0.7708   -0.5255   -0.2438 H         1 <0>         0.0627
     30 H7          0.8335   -0.2545   -0.9656 H         1 <0>         0.0654
     31 H8          0.2828   -2.2619   -0.7720 H         1 <0>         0.1399
     32 H9          0.7598   -4.6716   -0.6195 H         1 <0>         0.1333
     33 H10         1.8140   -5.5963    1.4018 H         1 <0>         0.1319
     34 H11         2.3962   -4.1153    3.2794 H         1 <0>         0.1343
     35 H12         2.4625    0.5460    4.7660 H         1 <0>         0.1304
     36 H13         4.1661    2.0377    5.7333 H         1 <0>         0.1270
     37 H14         6.2688    1.1014    6.6079 H         1 <0>         0.1274
     38 H15         6.6676   -1.3267    6.5160 H         1 <0>         0.1285
     39 H16         4.9605   -2.8193    5.5563 H         1 <0>         0.1222
     40 H17        -0.0417   -2.6880    4.0244 H         1 <0>         0.1463
     41 H18         0.7346   -4.1870    4.5900 H         1 <0>         0.1464
     42 H19        -1.4776   -3.9507    5.4508 H         1 <0>         0.4367
     43 H20        -1.6482   -1.5716    5.4112 H         1 <0>         0.1412
     44 H21        -2.0655   -2.2411    7.0071 H         1 <0>         0.1470
     45 H22        -0.5153   -0.2920    7.1887 H         1 <0>         0.1438
     46 H23         0.2196   -1.7877    7.8166 H         1 <0>         0.0815
     47 H24        -0.3801   -3.8969    6.6789 H         1 <0>         0.4281
@<TRIPOS>BOND
     1    1    2 1
     2    1   26 1
     3    1   27 1
     4    1   28 1
     5    2    3 1
     6    2   29 1
     7    2   30 1
     8    3    4 1
     9    4    9 ar
    10    4    5 ar
    11    5    6 ar
    12    5   31 1
    13    6    7 ar
    14    6   32 1
    15    7    8 ar
    16    7   33 1
    17    8    9 ar
    18    8   34 1
    19    9   10 1
    20   10   11 1
    21   11   12 1
    22   11   13 1
    23   11   19 1
    24   13   18 ar
    25   13   14 ar
    26   14   15 ar
    27   14   35 1
    28   15   16 ar
    29   15   36 1
    30   16   17 ar
    31   16   37 1
    32   17   18 ar
    33   17   38 1
    34   18   39 1
    35   19   20 1
    36   19   25 1
    37   19   21 1
    38   21   22 1
    39   21   40 1
    40   21   41 1
    41   22   23 1
    42   22   42 1
    43   22   47 1
    44   23   24 1
    45   23   43 1
    46   23   44 1
    47   24   25 1
    48   24   45 1
    49   24   46 1
@<TRIPOS>MOLECULE
ZINC03996032
   47    49     0     0     0
SMALL
USER_CHARGES

@<TRIPOS>ATOM
      1 C1         -0.0138    1.5481    0.0281 C.3       1 <0>        -0.1532
      2 C2         -0.0597    0.0189    0.0504 C.3       1 <0>         0.0524
      3 O1          0.6552   -0.4624    1.1903 O.3       1 <0>        -0.3033
      4 C3          0.7112   -1.8106    1.3598 C.ar      1 <0>         0.1140
      5 C4          0.0966   -2.6515    0.4460 C.ar      1 <0>        -0.1684
      6 C5          0.1549   -4.0217    0.6195 C.ar      1 <0>        -0.1038
      7 C6          0.8252   -4.5563    1.7041 C.ar      1 <0>        -0.1160
      8 C7          1.4402   -3.7230    2.6198 C.ar      1 <0>        -0.1938
      9 C8          1.3908   -2.3489    2.4483 C.ar      1 <0>         0.0788
     10 O2          2.0003   -1.5279    3.3449 O.3       1 <0>        -0.2779
     11 C9          2.5664   -2.1407    4.5051 C.3       1 <0>         0.1400
     12 H1          2.1003   -3.1126    4.6668 H         1 <0>         0.1107
     13 C10         2.3254   -1.2620    5.7055 C.ar      1 <0>        -0.1101
     14 C11         2.3352    0.1135    5.5684 C.ar      1 <0>        -0.0659
     15 C12         2.1141    0.9194    6.6695 C.ar      1 <0>        -0.1231
     16 C13         1.8827    0.3499    7.9076 C.ar      1 <0>        -0.1015
     17 C14         1.8719   -1.0256    8.0446 C.ar      1 <0>        -0.1210
     18 C15         2.0888   -1.8316    6.9427 C.ar      1 <0>        -0.1076
     19 C16         4.0717   -2.3245    4.3017 C.3       1 <0>         0.0579
     20 H2          4.4892   -2.8712    5.1473 H         1 <0>         0.1026
     21 C17         4.3210   -3.1101    3.0119 C.3       1 <0>        -0.0532
     22 N1          5.7680   -3.2348    2.7889 N.4       1 <0>        -0.5032
     23 C18         6.3615   -1.8958    2.6708 C.3       1 <0>        -0.0459
     24 C19         6.1084   -1.1125    3.9614 C.3       1 <0>         0.0331
     25 O3          4.7004   -1.0436    4.2037 O.3       1 <0>        -0.3318
     26 H3          1.0230    1.8797   -0.0267 H         1 <0>         0.0662
     27 H4         -0.5592    1.9152   -0.8414 H         1 <0>         0.0829
     28 H5         -0.4727    1.9387    0.9363 H         1 <0>         0.0689
     29 H6         -1.0966   -0.3127    0.1052 H         1 <0>         0.0653
     30 H7          0.3992   -0.3717   -0.8578 H         1 <0>         0.0631
     31 H8         -0.4283   -2.2364   -0.4017 H         1 <0>         0.1401
     32 H9         -0.3246   -4.6760   -0.0935 H         1 <0>         0.1334
     33 H10         0.8682   -5.6273    1.8364 H         1 <0>         0.1316
     34 H11         1.9628   -4.1432    3.4663 H         1 <0>         0.1320
     35 H12         2.5160    0.5584    4.6011 H         1 <0>         0.1303
     36 H13         2.1225    1.9941    6.5625 H         1 <0>         0.1270
     37 H14         1.7106    0.9796    8.7680 H         1 <0>         0.1273
     38 H15         1.6915   -1.4706    9.0120 H         1 <0>         0.1283
     39 H16         2.0767   -2.9063    7.0489 H         1 <0>         0.1218
     40 H17         3.8797   -4.1029    3.0997 H         1 <0>         0.1465
     41 H18         3.8678   -2.5835    2.1720 H         1 <0>         0.1472
     42 H19         6.1876   -3.7214    3.5670 H         1 <0>         0.4280
     43 H20         7.4350   -1.9872    2.5056 H         1 <0>         0.1470
     44 H21         5.9075   -1.3696    1.8311 H         1 <0>         0.1414
     45 H22         6.5963   -1.6173    4.7952 H         1 <0>         0.0815
     46 H23         6.5101   -0.1043    3.8599 H         1 <0>         0.1438
     47 H24         5.9341   -3.7526    1.9390 H         1 <0>         0.4368
@<TRIPOS>BOND
     1    1    2 1
     2    1   26 1
     3    1   27 1
     4    1   28 1
     5    2    3 1
     6    2   29 1
     7    2   30 1
     8    3    4 1
     9    4    9 ar
    10    4    5 ar
    11    5    6 ar
    12    5   31 1
    13    6    7 ar
    14    6   32 1
    15    7    8 ar
    16    7   33 1
    17    8    9 ar
    18    8   34 1
    19    9   10 1
    20   10   11 1
    21   11   12 1
    22   11   13 1
    23   11   19 1
    24   13   18 ar
    25   13   14 ar
    26   14   15 ar
    27   14   35 1
    28   15   16 ar
    29   15   36 1
    30   16   17 ar
    31   16   37 1
    32   17   18 ar
    33   17   38 1
    34   18   39 1
    35   19   20 1
    36   19   25 1
    37   19   21 1
    38   21   22 1
    39   21   40 1
    40   21   41 1
    41   22   23 1
    42   22   42 1
    43   22   47 1
    44   23   24 1
    45   23   43 1
    46   23   44 1
    47   24   25 1
    48   24   45 1
    49   24   46 1
@<TRIPOS>MOLECULE
ZINC22916571
   36    37     0     0     0
SMALL
USER_CHARGES

@<TRIPOS>ATOM
      1 C1         -0.0167    1.3781    0.0096 C.ar      1 <0>        -0.1197
      2 C2          1.1709    2.0855    0.0021 C.ar      1 <0>        -0.1159
      3 C3          2.3773    1.4107   -0.0130 C.ar      1 <0>        -0.1167
      4 C4          2.3960    0.0285   -0.0201 C.ar      1 <0>        -0.0898
      5 C5          1.2084   -0.6789   -0.0117 C.ar      1 <0>        -0.1193
      6 C6          0.0021   -0.0041    0.0020 C.ar      1 <0>        -0.1170
      7 C7          3.7112   -0.7071   -0.0376 C.3       1 <0>        -0.0794
      8 C8          4.1714   -0.9633    1.3989 C.3       1 <0>        -0.1112
      9 C9          5.5066   -1.7102    1.3812 C.3       1 <0>         0.0534
     10 N1          5.9484   -1.9561    2.7604 N.3       1 <0>        -0.5401
     11 C10         5.0416   -2.8879    3.4457 C.3       1 <0>         0.0185
     12 C11         5.5018   -3.0706    4.8937 C.3       1 <0>        -0.0030
     13 N2          6.8737   -3.5950    4.9091 N.4       1 <0>        -0.5082
     14 C12         7.7715   -2.6423    4.2430 C.3       1 <0>        -0.0027
     15 C13         7.3302   -2.4560    2.7896 C.3       1 <0>         0.0230
     16 H1         -0.9591    1.9053    0.0259 H         1 <0>         0.1241
     17 H2          1.1563    3.1654    0.0076 H         1 <0>         0.1242
     18 H3          3.3051    1.9634   -0.0196 H         1 <0>         0.1211
     19 H4          1.2231   -1.7588   -0.0176 H         1 <0>         0.1187
     20 H5         -0.9258   -0.5567    0.0082 H         1 <0>         0.1234
     21 H6          3.5884   -1.6586   -0.5549 H         1 <0>         0.0725
     22 H7          4.4573   -0.1052   -0.5563 H         1 <0>         0.0760
     23 H8          4.2941   -0.0118    1.9163 H         1 <0>         0.0778
     24 H9          3.4252   -1.5652    1.9176 H         1 <0>         0.0644
     25 H10         5.3838   -2.6617    0.8639 H         1 <0>         0.0478
     26 H11         6.2527   -1.1082    0.8625 H         1 <0>         0.0900
     27 H12         4.0290   -2.4847    3.4341 H         1 <0>         0.1256
     28 H13         5.0560   -3.8509    2.9353 H         1 <0>         0.0612
     29 H14         5.4743   -2.1098    5.4076 H         1 <0>         0.1397
     30 H15         4.8389   -3.7724    5.3998 H         1 <0>         0.1384
     31 H16         7.1724   -3.7271    5.8638 H         1 <0>         0.4343
     32 H17         7.7324   -1.6836    4.7602 H         1 <0>         0.1397
     33 H18         8.7913   -3.0265    4.2666 H         1 <0>         0.1386
     34 H19         7.3822   -3.4119    2.2684 H         1 <0>         0.0609
     35 H20         7.9872   -1.7377    2.2992 H         1 <0>         0.1237
     36 H21         6.9012   -4.4789    4.4232 H         1 <0>         0.4260
@<TRIPOS>BOND
     1    1    6 ar
     2    1    2 ar
     3    1   16 1
     4    2    3 ar
     5    2   17 1
     6    3    4 ar
     7    3   18 1
     8    4    5 ar
     9    4    7 1
    10    5    6 ar
    11    5   19 1
    12    6   20 1
    13    7    8 1
    14    7   21 1
    15    7   22 1
    16    8    9 1
    17    8   23 1
    18    8   24 1
    19    9   10 1
    20    9   25 1
    21    9   26 1
    22   10   15 1
    23   10   11 1
    24   11   12 1
    25   11   27 1
    26   11   28 1
    27   12   13 1
    28   12   29 1
    29   12   30 1
    30   13   14 1
    31   13   31 1
    32   13   36 1
    33   14   15 1
    34   14   32 1
    35   14   33 1
    36   15   34 1
    37   15   35 1
@<TRIPOS>MOLECULE
ZINC00598412
   41    43     0     0     0
SMALL
USER_CHARGES
methyl 3-(4-iodophenyl)-8-methyl-8-azabicyclo[3.2.1]octane-4-carboxylate
@<TRIPOS>ATOM
      1 C1         -2.8162    0.7064    0.2330 C.3       1 <0>        -0.0354
      2 C2         -1.8992    2.8594    0.9108 C.3       1 <0>         0.0308
      3 H1         -2.7484    2.9369    1.5897 H         1 <0>         0.1599
      4 C3         -0.6427    2.2612    1.5901 C.3       1 <0>        -0.2081
      5 C4          0.0690    1.4715    0.4719 C.3       1 <0>        -0.2064
      6 C5         -0.8182    1.6649   -0.7794 C.3       1 <0>         0.0471
      7 H2         -0.8095    0.7905   -1.4300 H         1 <0>         0.1666
      8 C6         -0.3475    2.9402   -1.4968 C.3       1 <0>        -0.1060
      9 H3         -1.0824    3.2286   -2.2484 H         1 <0>         0.1432
     10 C7         -0.2003    4.0632   -0.4662 C.3       1 <0>        -0.0505
     11 H4          0.0312    4.9972   -0.9782 H         1 <0>         0.1354
     12 C8         -1.5071    4.2215    0.3162 C.3       1 <0>        -0.1427
     13 C9          0.9166    3.7240    0.4870 C.ar      1 <0>        -0.0784
     14 C10         0.8760    4.1828    1.7904 C.ar      1 <0>        -0.1008
     15 C11         1.8976    3.8671    2.6665 C.ar      1 <0>        -0.0964
     16 C12         2.9656    3.1013    2.2359 C.ar      1 <0>        -0.0843
     17 C13         3.0087    2.6473    0.9304 C.ar      1 <0>        -0.0914
     18 C14         1.9844    2.9589    0.0562 C.ar      1 <0>        -0.1387
     19 I1          4.5176    2.6286    3.5614 I         1 <0>        -0.0151
     20 C15         0.9820    2.6854   -2.1590 C.2       1 <0>         0.4848
     21 O1          1.3590    1.5519   -2.3406 O.2       1 <0>        -0.4969
     22 O2          1.7472    3.7175   -2.5472 O.3       1 <0>        -0.3510
     23 C16         3.0151    3.3974   -3.1783 C.3       1 <0>         0.0292
     24 H5         -2.2082    0.2491    1.0136 H         1 <0>         0.1188
     25 H6         -3.8040    0.9385    0.6310 H         1 <0>         0.1278
     26 H7         -2.9148    0.0142   -0.6032 H         1 <0>         0.1245
     27 H8         -0.9312    1.5932    2.4016 H         1 <0>         0.0950
     28 H9          0.0032    3.0560    1.9632 H         1 <0>         0.1683
     29 H10         0.1305    0.4152    0.7337 H         1 <0>         0.0979
     30 H11         1.0656    1.8767    0.2966 H         1 <0>         0.1638
     31 H12        -2.2941    4.5675   -0.3539 H         1 <0>         0.1039
     32 H13        -1.3682    4.9444    1.1201 H         1 <0>         0.1251
     33 H14         0.0439    4.7842    2.1255 H         1 <0>         0.1475
     34 H15         1.8634    4.2215    3.6861 H         1 <0>         0.1426
     35 H16         3.8425    2.0489    0.5939 H         1 <0>         0.1386
     36 H17         2.0180    2.6044   -0.9634 H         1 <0>         0.1537
     37 H18         3.5328    4.3197   -3.4421 H         1 <0>         0.1165
     38 H19         3.6297    2.8208   -2.4870 H         1 <0>         0.0707
     39 H20         2.8347    2.8114   -4.0795 H         1 <0>         0.0750
     40 N1         -2.1338    1.9607   -0.2230 N.4       1 <0>        -0.3896
     41 H21        -2.7182    2.4256   -0.9277 H         1 <0>         0.4251
@<TRIPOS>BOND
     1    1   24 1
     2    1   25 1
     3    1   26 1
     4    1   40 1
     5    2    3 1
     6    2   12 1
     7    2    4 1
     8    2   40 1
     9    4    5 1
    10    4   27 1
    11    4   28 1
    12    5    6 1
    13    5   29 1
    14    5   30 1
    15    6    7 1
    16    6    8 1
    17    6   40 1
    18    8    9 1
    19    8   10 1
    20    8   20 1
    21   10   11 1
    22   10   12 1
    23   10   13 1
    24   12   31 1
    25   12   32 1
    26   13   18 ar
    27   13   14 ar
    28   14   15 ar
    29   14   33 1
    30   15   16 ar
    31   15   34 1
    32   16   17 ar
    33   16   19 1
    34   17   18 ar
    35   17   35 1
    36   18   36 1
    37   20   21 2
    38   20   22 1
    39   22   23 1
    40   23   37 1
    41   23   38 1
    42   23   39 1
    43   40   41 1
@<TRIPOS>MOLECULE
ZINC03872906
   35    37     0     0     0
SMALL
USER_CHARGES

@<TRIPOS>ATOM
      1 C1         -0.0178    1.4648    0.0101 C.3       1 <0>        -0.0525
      2 N1          0.0021   -0.0041    0.0020 N.4       1 <0>        -0.5038
      3 C2         -1.3761   -0.5125    0.0124 C.3       1 <0>         0.0749
      4 H1         -1.9289   -0.0879    0.8504 H         1 <0>         0.1501
      5 C3         -1.3777   -2.0537    0.0958 C.3       1 <0>        -0.1299
      6 C4         -1.4270   -2.4659   -1.3908 C.3       1 <0>        -0.0166
      7 H2         -0.4182   -2.6139   -1.7759 H         1 <0>         0.1086
      8 C5         -2.0957   -1.3084   -2.1009 C.ar      1 <0>        -0.0630
      9 C6         -2.0672   -0.1835   -1.2934 C.ar      1 <0>        -0.1667
     10 C7         -2.6255    1.0025   -1.7393 C.ar      1 <0>        -0.0801
     11 C8         -3.2115    1.0686   -2.9886 C.ar      1 <0>        -0.1116
     12 C9         -3.2414   -0.0523   -3.7966 C.ar      1 <0>        -0.0775
     13 C10        -2.6831   -1.2424   -3.3529 C.ar      1 <0>        -0.0937
     14 C11        -2.2395   -3.7241   -1.5579 C.ar      1 <0>        -0.0782
     15 C12        -3.5690   -3.7435   -1.1790 C.ar      1 <0>        -0.0929
     16 C13        -4.3151   -4.8969   -1.3312 C.ar      1 <0>        -0.0928
     17 C14        -3.7317   -6.0328   -1.8634 C.ar      1 <0>        -0.0256
     18 C15        -2.4005   -6.0133   -2.2432 C.ar      1 <0>        -0.0294
     19 C16        -1.6566   -4.8563   -2.0949 C.ar      1 <0>        -0.0903
     20 Cl1        -1.6668   -7.4381   -2.9107 Cl        1 <0>        -0.0332
     21 Cl2        -4.6682   -7.4821   -2.0544 Cl        1 <0>        -0.0321
     22 H3          1.0047    1.8421    0.0024 H         1 <0>         0.1282
     23 H4         -0.5450    1.8259   -0.8730 H         1 <0>         0.1233
     24 H5         -0.5280    1.8163    0.9069 H         1 <0>         0.1251
     25 H6          0.4744   -0.3295   -0.8281 H         1 <0>         0.4282
     26 H7         -0.4652   -2.4171    0.5685 H         1 <0>         0.1062
     27 H8         -2.2596   -2.4121    0.6267 H         1 <0>         0.1225
     28 H9         -2.6025    1.8788   -1.1085 H         1 <0>         0.1313
     29 H10        -3.6461    1.9952   -3.3334 H         1 <0>         0.1396
     30 H11        -3.6993   -0.0024   -4.7734 H         1 <0>         0.1394
     31 H12        -2.7065   -2.1190   -3.9833 H         1 <0>         0.1333
     32 H13        -4.0248   -2.8569   -0.7634 H         1 <0>         0.1360
     33 H14        -5.3534   -4.9115   -1.0344 H         1 <0>         0.1477
     34 H15        -0.6192   -4.8392   -2.3948 H         1 <0>         0.1440
     35 H16         0.4901   -0.3383    0.8195 H         1 <0>         0.4316
@<TRIPOS>BOND
     1    1    2 1
     2    1   22 1
     3    1   23 1
     4    1   24 1
     5    2    3 1
     6    2   25 1
     7    2   35 1
     8    3    4 1
     9    3    9 1
    10    3    5 1
    11    5    6 1
    12    5   26 1
    13    5   27 1
    14    6    7 1
    15    6    8 1
    16    6   14 1
    17    8   13 ar
    18    8    9 ar
    19    9   10 ar
    20   10   11 ar
    21   10   28 1
    22   11   12 ar
    23   11   29 1
    24   12   13 ar
    25   12   30 1
    26   13   31 1
    27   14   19 ar
    28   14   15 ar
    29   15   16 ar
    30   15   32 1
    31   16   17 ar
    32   16   33 1
    33   17   18 ar
    34   17   21 1
    35   18   19 ar
    36   18   20 1
    37   19   34 1
@<TRIPOS>MOLECULE
ZINC28016618
   38    40     0     0     0
SMALL
USER_CHARGES
methyl (1S,2S,3S,5R)-3-(4-iodophenyl)-8-azabicyclo[3.2.1]octane-2-carboxylate
@<TRIPOS>ATOM
      1 C1          1.8402    3.9910    4.8111 C.3       1 <0>         0.0238
      2 O1          2.0930    4.7913    3.6262 O.3       1 <0>        -0.3646
      3 C2          2.2156    4.1345    2.4620 C.2       1 <0>         0.4740
      4 O2          2.1150    2.9308    2.4340 O.2       1 <0>        -0.4785
      5 C3          2.4786    4.8985    1.1900 C.3       1 <0>        -0.1019
      6 H1          3.5493    4.8123    0.9529 H         1 <0>         0.1456
      7 C4          2.0884    6.3725    1.3846 C.3       1 <0>         0.0447
      8 H2          2.5848    6.7983    2.2691 H         1 <0>         0.1644
      9 C5          0.5449    6.4513    1.4275 C.3       1 <0>        -0.2091
     10 C6          0.1169    6.6213   -0.0450 C.3       1 <0>        -0.2116
     11 C7          1.4405    6.6297   -0.8438 C.3       1 <0>         0.0504
     12 H3          1.4179    7.2615   -1.7440 H         1 <0>         0.1560
     13 N1          2.4567    7.0943    0.1376 N.4       1 <0>        -0.5440
     14 C8          1.7837    5.1744   -1.2005 C.3       1 <0>        -0.1421
     15 C9          1.6375    4.3088    0.0543 C.3       1 <0>        -0.0477
     16 H4          1.9710    3.2829   -0.1610 H         1 <0>         0.1330
     17 C10         0.1897    4.2702    0.4707 C.ar      1 <0>        -0.0773
     18 C11        -0.1421    4.1200    1.8043 C.ar      1 <0>        -0.1343
     19 C12        -1.4699    4.0845    2.1865 C.ar      1 <0>        -0.0934
     20 C13        -2.4666    4.1946    1.2342 C.ar      1 <0>        -0.0843
     21 C14        -2.1344    4.3501   -0.0992 C.ar      1 <0>        -0.0975
     22 C15        -0.8064    4.3855   -0.4809 C.ar      1 <0>        -0.1013
     23 I1         -4.4794    4.1329    1.8122 I         1 <0>        -0.0153
     24 H5          1.7621    4.6497    5.6886 H         1 <0>         0.1179
     25 H6          2.6679    3.2815    4.9577 H         1 <0>         0.0771
     26 H7          0.8992    3.4356    4.6845 H         1 <0>         0.0725
     27 H8          0.1425    5.5254    1.8644 H         1 <0>         0.1631
     28 H9          0.2385    7.3103    2.0425 H         1 <0>         0.0991
     29 H10        -0.5303    5.7815   -0.3380 H         1 <0>         0.1704
     30 H11        -0.4342    7.5663   -0.1599 H         1 <0>         0.0965
     31 H12         2.4048    8.1790    0.3129 H         1 <0>         0.4565
     32 H13         1.0966    4.8165   -1.9814 H         1 <0>         0.1251
     33 H14         2.8184    5.1217   -1.5702 H         1 <0>         0.1039
     34 H15         0.6364    4.0299    2.5475 H         1 <0>         0.1517
     35 H16        -1.7290    3.9664    3.2283 H         1 <0>         0.1380
     36 H17        -2.9126    4.4399   -0.8428 H         1 <0>         0.1427
     37 H18        -0.5470    4.5029   -1.5227 H         1 <0>         0.1472
     38 H19         3.4802    6.8190   -0.1568 H         1 <0>         0.4495
@<TRIPOS>BOND
     1    1    2 1
     2    1   24 1
     3    1   25 1
     4    1   26 1
     5    2    3 1
     6    3    4 2
     7    3    5 1
     8    5    6 1
     9    5   15 1
    10    5    7 1
    11    7    8 1
    12    7   13 1
    13    7    9 1
    14    9   10 1
    15    9   27 1
    16    9   28 1
    17   10   11 1
    18   10   29 1
    19   10   30 1
    20   11   12 1
    21   11   13 1
    22   11   14 1
    23   13   31 1
    24   13   38 1
    25   14   15 1
    26   14   32 1
    27   14   33 1
    28   15   16 1
    29   15   17 1
    30   17   22 ar
    31   17   18 ar
    32   18   19 ar
    33   18   34 1
    34   19   20 ar
    35   19   35 1
    36   20   21 ar
    37   20   23 1
    38   21   22 ar
    39   21   36 1
    40   22   37 1
@<TRIPOS>MOLECULE
ZINC33744856
   38    40     0     0     0
SMALL
USER_CHARGES
methyl (1S,2R,3S,5R)-3-(4-iodophenyl)-8-azabicyclo[3.2.1]octane-2-carboxylate
@<TRIPOS>ATOM
      1 C1          0.0478   -0.0270   -0.2278 C.3       1 <0>         0.0254
      2 O1          0.0155    1.4246   -0.2273 O.3       1 <0>        -0.3540
      3 C2          1.1936    2.0604   -0.1292 C.2       1 <0>         0.4359
      4 O2          2.2179    1.4249   -0.0465 O.2       1 <0>        -0.4738
      5 C3          1.2387    3.5667   -0.1222 C.3       1 <0>        -0.1024
      6 H1          0.8105    3.9274   -1.0691 H         1 <0>         0.1574
      7 C4          0.4301    4.1004    1.0712 C.3       1 <0>         0.0490
      8 H2         -0.6417    3.8854    0.9490 H         1 <0>         0.1634
      9 C5          0.7586    5.6027    1.2310 C.3       1 <0>        -0.2060
     10 C6          1.9909    5.6412    2.1586 C.3       1 <0>        -0.2086
     11 C7          2.2950    4.1587    2.4749 C.3       1 <0>         0.0486
     12 H3          2.7118    3.9864    3.4782 H         1 <0>         0.1532
     13 N1          0.9879    3.4718    2.2981 N.4       1 <0>        -0.5484
     14 C8          3.2517    3.6337    1.3924 C.3       1 <0>        -0.1495
     15 C9          2.6901    4.0358    0.0131 C.3       1 <0>        -0.0406
     16 H4          3.2926    3.5811   -0.7871 H         1 <0>         0.1283
     17 C10         2.7473    5.5353   -0.1252 C.ar      1 <0>        -0.0748
     18 C11         1.8189    6.1928   -0.9106 C.ar      1 <0>        -0.1102
     19 C12         1.8676    7.5687   -1.0331 C.ar      1 <0>        -0.0952
     20 C13         2.8518    8.2866   -0.3784 C.ar      1 <0>        -0.0852
     21 C14         3.7838    7.6281    0.4028 C.ar      1 <0>        -0.0963
     22 C15         3.7314    6.2526    0.5290 C.ar      1 <0>        -0.1018
     23 I1          2.9312   10.3713   -0.5706 I         1 <0>        -0.0163
     24 H5         -0.9774   -0.4165   -0.3128 H         1 <0>         0.1173
     25 H6          0.4991   -0.3840    0.7097 H         1 <0>         0.0711
     26 H7          0.6461   -0.3801   -1.0806 H         1 <0>         0.0765
     27 H8          0.9776    6.0371    0.2444 H         1 <0>         0.1692
     28 H9         -0.1031    6.1211    1.6767 H         1 <0>         0.1000
     29 H10         2.8284    6.1262    1.6357 H         1 <0>         0.1712
     30 H11         1.7476    6.2101    3.0681 H         1 <0>         0.0965
     31 H12         0.3050    3.6466    3.1425 H         1 <0>         0.4566
     32 H13         4.2481    4.0765    1.5376 H         1 <0>         0.1230
     33 H14         3.3230    2.5385    1.4659 H         1 <0>         0.1095
     34 H15         1.0528    5.6317   -1.4251 H         1 <0>         0.1424
     35 H16         1.1394    8.0828   -1.6429 H         1 <0>         0.1415
     36 H17         4.5523    8.1885    0.9144 H         1 <0>         0.1417
     37 H18         4.4592    5.7383    1.1390 H         1 <0>         0.1462
     38 H19         1.1016    2.3897    2.1365 H         1 <0>         0.4394
@<TRIPOS>BOND
     1    1    2 1
     2    1   24 1
     3    1   25 1
     4    1   26 1
     5    2    3 1
     6    3    4 2
     7    3    5 1
     8    5    6 1
     9    5   15 1
    10    5    7 1
    11    7    8 1
    12    7   13 1
    13    7    9 1
    14    9   10 1
    15    9   27 1
    16    9   28 1
    17   10   11 1
    18   10   29 1
    19   10   30 1
    20   11   12 1
    21   11   13 1
    22   11   14 1
    23   13   31 1
    24   13   38 1
    25   14   15 1
    26   14   32 1
    27   14   33 1
    28   15   16 1
    29   15   17 1
    30   17   22 ar
    31   17   18 ar
    32   18   19 ar
    33   18   34 1
    34   19   20 ar
    35   19   35 1
    36   20   21 ar
    37   20   23 1
    38   21   22 ar
    39   21   36 1
    40   22   37 1
@<TRIPOS>MOLECULE
ZINC13530804
   42    44     0     0     0
SMALL
USER_CHARGES
4-[(S)-(2-fluorophenoxy)-phenyl-methyl]piperidine
@<TRIPOS>ATOM
      1 C1         -0.1884    0.9303   -0.5766 C.ar      1 <0>        -0.1048
      2 C2          0.9164    1.7612   -0.5712 C.ar      1 <0>        -0.1178
      3 C3          2.1803    1.2295   -0.3965 C.ar      1 <0>        -0.0983
      4 C4          2.3396   -0.1332   -0.2271 C.ar      1 <0>        -0.1320
      5 C5          1.2348   -0.9641   -0.2320 C.ar      1 <0>        -0.1082
      6 C6         -0.0292   -0.4323   -0.4067 C.ar      1 <0>        -0.1141
      7 C7          3.7175   -0.7129   -0.0365 C.3       1 <0>         0.1355
      8 H1          3.7207   -1.7549   -0.3562 H         1 <0>         0.0917
      9 C8          4.1051   -0.6316    1.4413 C.3       1 <0>        -0.0858
     10 C9          4.1087    0.8325    1.8896 C.3       1 <0>        -0.1490
     11 C10         4.5559    0.9124    3.3510 C.3       1 <0>        -0.0018
     12 C11         5.9118   -1.0809    3.1050 C.3       1 <0>        -0.0002
     13 C12         5.5051   -1.2203    1.6363 C.3       1 <0>        -0.1475
     14 O1          4.6579    0.0277   -0.8170 O.3       1 <0>        -0.3009
     15 C13         4.7921   -0.3276   -2.1225 C.ar      1 <0>         0.0911
     16 C14         3.9571   -1.2898   -2.6698 C.ar      1 <0>        -0.1755
     17 C15         4.0923   -1.6463   -3.9980 C.ar      1 <0>        -0.0872
     18 C16         5.0658   -1.0521   -4.7797 C.ar      1 <0>        -0.1184
     19 C17         5.9036   -0.0957   -4.2367 C.ar      1 <0>        -0.1152
     20 C18         5.7696    0.2686   -2.9090 C.ar      1 <0>         0.0700
     21 F1          6.5887    1.2025   -2.3778 F         1 <0>        -0.1346
     22 H2         -1.1754    1.3451   -0.7180 H         1 <0>         0.1279
     23 H3          0.7920    2.8258   -0.7039 H         1 <0>         0.1269
     24 H4          3.0434    1.8786   -0.3923 H         1 <0>         0.1249
     25 H5          1.3592   -2.0287   -0.0996 H         1 <0>         0.1236
     26 H6         -0.8923   -1.0815   -0.4109 H         1 <0>         0.1286
     27 H7          3.3870   -1.1944    2.0377 H         1 <0>         0.1075
     28 H8          4.7981    1.4022    1.2664 H         1 <0>         0.0987
     29 H9          3.1044    1.2451    1.7933 H         1 <0>         0.1171
     30 H10         3.8584    0.3540    3.9753 H         1 <0>         0.1294
     31 H11         4.5733    1.9549    3.6689 H         1 <0>         0.1332
     32 H12         5.2079   -1.6300    3.7305 H         1 <0>         0.1300
     33 H13         6.9140   -1.4862    3.2444 H         1 <0>         0.1336
     34 H14         5.4984   -2.2744    1.3590 H         1 <0>         0.1121
     35 H15         6.2163   -0.6834    1.0086 H         1 <0>         0.0985
     36 H16         3.1990   -1.7578   -2.0594 H         1 <0>         0.1367
     37 H17         3.4394   -2.3931   -4.4250 H         1 <0>         0.1357
     38 H18         5.1721   -1.3359   -5.8163 H         1 <0>         0.1395
     39 H19         6.6632    0.3670   -4.8494 H         1 <0>         0.1458
     40 N1          5.9102    0.3437    3.4887 N.4       1 <0>        -0.5171
     41 H20         6.2163    0.4314    4.4648 H         1 <0>         0.4362
     42 H21         6.5568    0.8587    2.8796 H         1 <0>         0.4339
@<TRIPOS>BOND
     1    1    6 ar
     2    1    2 ar
     3    1   22 1
     4    2    3 ar
     5    2   23 1
     6    3    4 ar
     7    3   24 1
     8    4    5 ar
     9    4    7 1
    10    5    6 ar
    11    5   25 1
    12    6   26 1
    13    7    8 1
    14    7    9 1
    15    7   14 1
    16    9   13 1
    17    9   10 1
    18    9   27 1
    19   10   11 1
    20   10   28 1
    21   10   29 1
    22   11   30 1
    23   11   31 1
    24   11   40 1
    25   12   13 1
    26   12   32 1
    27   12   33 1
    28   12   40 1
    29   13   34 1
    30   13   35 1
    31   14   15 1
    32   15   20 ar
    33   15   16 ar
    34   16   17 ar
    35   16   36 1
    36   17   18 ar
    37   17   37 1
    38   18   19 ar
    39   18   38 1
    40   19   20 ar
    41   19   39 1
    42   20   21 1
    43   40   41 1
    44   40   42 1
@<TRIPOS>MOLECULE
ZINC13530807
   42    44     0     0     0
SMALL
USER_CHARGES
4-[(R)-(2-fluorophenoxy)-phenyl-methyl]piperidine
@<TRIPOS>ATOM
      1 C1          1.3194    2.6625   -0.1742 C.ar      1 <0>        -0.1046
      2 C2          0.2835    1.7483   -0.1287 C.ar      1 <0>        -0.1153
      3 C3         -1.0254    2.1891   -0.0717 C.ar      1 <0>        -0.0919
      4 C4         -1.2980    3.5441   -0.0492 C.ar      1 <0>        -0.1332
      5 C5         -0.2622    4.4584   -0.0951 C.ar      1 <0>        -0.1125
      6 C6          1.0465    4.0176   -0.1574 C.ar      1 <0>        -0.1162
      7 C7         -2.7247    4.0247    0.0192 C.3       1 <0>         0.1380
      8 H1         -2.7445    5.0548    0.3751 H         1 <0>         0.0864
      9 C8         -3.3540    3.9541   -1.3736 C.3       1 <0>        -0.0909
     10 C9         -2.5647    4.8443   -2.3374 C.3       1 <0>        -0.1435
     11 C10        -3.2352    4.8186   -3.7129 C.3       1 <0>         0.0005
     12 C11        -5.4075    4.4298   -2.7117 C.3       1 <0>        -0.0012
     13 C12        -4.8027    4.4451   -1.3060 C.3       1 <0>        -0.1451
     14 O1         -3.4639    3.1959    0.9185 O.3       1 <0>        -0.2970
     15 C13        -3.3958    3.5054    2.2406 C.ar      1 <0>         0.0906
     16 C14        -2.5450    4.5101    2.6758 C.ar      1 <0>        -0.1774
     17 C15        -2.4805    4.8260    4.0195 C.ar      1 <0>        -0.0890
     18 C16        -3.2557    4.1348    4.9322 C.ar      1 <0>        -0.1187
     19 C17        -4.1018    3.1291    4.5031 C.ar      1 <0>        -0.1149
     20 C18        -4.1740    2.8118    3.1586 C.ar      1 <0>         0.0724
     21 F1         -5.0000    1.8284    2.7391 F         1 <0>        -0.1317
     22 H2          2.3418    2.3181   -0.2232 H         1 <0>         0.1280
     23 H3          0.4967    0.6896   -0.1421 H         1 <0>         0.1277
     24 H4         -1.8349    1.4748   -0.0407 H         1 <0>         0.1255
     25 H5         -0.4754    5.5171   -0.0821 H         1 <0>         0.1214
     26 H6          1.8558    4.7319   -0.1933 H         1 <0>         0.1280
     27 H7         -3.3347    2.9243   -1.7302 H         1 <0>         0.1028
     28 H8         -2.5504    5.8666   -1.9596 H         1 <0>         0.0918
     29 H9         -1.5435    4.4728   -2.4224 H         1 <0>         0.1189
     30 H10        -3.2358    3.7984   -4.0966 H         1 <0>         0.1315
     31 H11        -2.6845    5.4636   -4.3975 H         1 <0>         0.1353
     32 H12        -5.3979    3.4114   -3.1001 H         1 <0>         0.1316
     33 H13        -6.4345    4.7924   -2.6692 H         1 <0>         0.1346
     34 H14        -5.3795    3.7886   -0.6545 H         1 <0>         0.1205
     35 H15        -4.8247    5.4610   -0.9115 H         1 <0>         0.0891
     36 H16        -1.9359    5.0480    1.9645 H         1 <0>         0.1354
     37 H17        -1.8206    5.6111    4.3578 H         1 <0>         0.1350
     38 H18        -3.2000    4.3808    5.9823 H         1 <0>         0.1394
     39 H19        -4.7063    2.5906    5.2180 H         1 <0>         0.1464
     40 N1         -4.6226    5.3076   -3.6006 N.4       1 <0>        -0.5173
     41 H20        -5.0540    5.3183   -4.5323 H         1 <0>         0.4374
     42 H21        -4.6156    6.2595   -3.2157 H         1 <0>         0.4322
@<TRIPOS>BOND
     1    1    6 ar
     2    1    2 ar
     3    1   22 1
     4    2    3 ar
     5    2   23 1
     6    3    4 ar
     7    3   24 1
     8    4    5 ar
     9    4    7 1
    10    5    6 ar
    11    5   25 1
    12    6   26 1
    13    7    8 1
    14    7    9 1
    15    7   14 1
    16    9   13 1
    17    9   10 1
    18    9   27 1
    19   10   11 1
    20   10   28 1
    21   10   29 1
    22   11   30 1
    23   11   31 1
    24   11   40 1
    25   12   13 1
    26   12   32 1
    27   12   33 1
    28   12   40 1
    29   13   34 1
    30   13   35 1
    31   14   15 1
    32   15   20 ar
    33   15   16 ar
    34   16   17 ar
    35   16   36 1
    36   17   18 ar
    37   17   37 1
    38   18   19 ar
    39   18   38 1
    40   19   20 ar
    41   19   39 1
    42   20   21 1
    43   40   41 1
    44   40   42 1
@<TRIPOS>MOLECULE
ZINC03800706
   46    48     0     0     0
SMALL
USER_CHARGES

@<TRIPOS>ATOM
      1 C1         -0.0178    1.4648    0.0101 C.3       1 <0>        -0.0477
      2 N1          0.0021   -0.0041    0.0020 N.4       1 <0>        -0.3873
      3 C2          0.7126   -0.4907    1.1921 C.3       1 <0>        -0.0533
      4 C3         -1.3761   -0.5125    0.0124 C.3       1 <0>        -0.0115
      5 C4         -1.3584   -2.0365   -0.1216 C.3       1 <0>        -0.1541
      6 C5         -2.7938   -2.5661   -0.1108 C.3       1 <0>        -0.1232
      7 C6         -2.7762   -4.0901   -0.2449 C.3       1 <0>         0.1992
      8 C7         -4.1888   -4.6236   -0.3096 C.ar      1 <0>        -0.0991
      9 C8         -5.1200   -4.6778   -1.3285 C.ar      1 <0>        -0.0822
     10 C9         -6.3628   -5.2329   -1.1018 C.ar      1 <0>        -0.0623
     11 C10        -6.6783   -5.7409    0.1602 C.ar      1 <0>        -0.0038
     12 C11        -5.7322   -5.6836    1.1861 C.ar      1 <0>        -0.0451
     13 C12        -4.4959   -5.1266    0.9466 C.ar      1 <0>        -0.1272
     14 C13        -3.2820   -4.9180    1.8221 C.3       1 <0>         0.0885
     15 O1         -2.1820   -4.6839    0.9239 O.3       1 <0>        -0.3402
     16 C14        -7.9666   -6.3178    0.4015 C.1       1 <0>         0.2390
     17 N2         -8.9886   -6.7754    0.5930 N.1       1 <0>        -0.3890
     18 C15        -2.0103   -4.4934   -1.4785 C.ar      1 <0>        -0.1013
     19 C16        -1.9792   -3.6548   -2.5771 C.ar      1 <0>        -0.0911
     20 C17        -1.2768   -4.0233   -3.7088 C.ar      1 <0>        -0.1554
     21 C18        -0.6042   -5.2331   -3.7421 C.ar      1 <0>         0.1115
     22 C19        -0.6360   -6.0722   -2.6412 C.ar      1 <0>        -0.1493
     23 C20        -1.3347   -5.6992   -1.5087 C.ar      1 <0>        -0.0583
     24 F1          0.0824   -5.5946   -4.8480 F         1 <0>        -0.1325
     25 H1          1.0047    1.8421    0.0024 H         1 <0>         0.1245
     26 H2         -0.5450    1.8259   -0.8730 H         1 <0>         0.1233
     27 H3         -0.5280    1.8163    0.9069 H         1 <0>         0.1220
     28 H4          0.2024   -0.1392    2.0889 H         1 <0>         0.1225
     29 H5          0.7273   -1.5806    1.1861 H         1 <0>         0.1260
     30 H6          1.7352   -0.1134    1.1844 H         1 <0>         0.1243
     31 H7         -1.8584   -0.2358    0.9500 H         1 <0>         0.1302
     32 H8         -1.9290   -0.0808   -0.8218 H         1 <0>         0.1307
     33 H9         -0.8762   -2.3132   -1.0592 H         1 <0>         0.0947
     34 H10        -0.8055   -2.4683    0.7126 H         1 <0>         0.0979
     35 H11        -3.2761   -2.2894    0.8267 H         1 <0>         0.0874
     36 H12        -3.3467   -2.1344   -0.9450 H         1 <0>         0.0914
     37 H13        -4.8751   -4.2847   -2.3041 H         1 <0>         0.1371
     38 H14        -7.0904   -5.2740   -1.8989 H         1 <0>         0.1444
     39 H15        -5.9698   -6.0744    2.1645 H         1 <0>         0.1413
     40 H16        -3.4295   -4.0531    2.4687 H         1 <0>         0.0856
     41 H17        -3.0941   -5.8085    2.4219 H         1 <0>         0.1096
     42 H18        -2.5043   -2.7113   -2.5510 H         1 <0>         0.1338
     43 H19        -1.2530   -3.3681   -4.5670 H         1 <0>         0.1401
     44 H20        -0.1120   -7.0162   -2.6661 H         1 <0>         0.1417
     45 H21        -1.3560   -6.3515   -0.6482 H         1 <0>         0.1404
     46 H22         0.4744   -0.3295   -0.8281 H         1 <0>         0.4271
@<TRIPOS>BOND
     1    1    2 1
     2    1   25 1
     3    1   26 1
     4    1   27 1
     5    2    3 1
     6    2    4 1
     7    2   46 1
     8    3   28 1
     9    3   29 1
    10    3   30 1
    11    4    5 1
    12    4   31 1
    13    4   32 1
    14    5    6 1
    15    5   33 1
    16    5   34 1
    17    6    7 1
    18    6   35 1
    19    6   36 1
    20    7   15 1
    21    7    8 1
    22    7   18 1
    23    8   13 ar
    24    8    9 ar
    25    9   10 ar
    26    9   37 1
    27   10   11 ar
    28   10   38 1
    29   11   12 ar
    30   11   16 1
    31   12   13 ar
    32   12   39 1
    33   13   14 1
    34   14   15 1
    35   14   40 1
    36   14   41 1
    37   16   17 3
    38   18   23 ar
    39   18   19 ar
    40   19   20 ar
    41   19   42 1
    42   20   21 ar
    43   20   43 1
    44   21   22 ar
    45   21   24 1
    46   22   23 ar
    47   22   44 1
    48   23   45 1
@<TRIPOS>MOLECULE
ZINC00025764
   42    44     0     0     0
SMALL
USER_CHARGES
4-[(4-fluorophenoxy)-phenyl-methyl]piperidine
@<TRIPOS>ATOM
      1 C1         -4.0221   -0.7238    1.8648 C.ar      1 <0>        -0.1046
      2 C2         -2.8507   -1.0569    2.5189 C.ar      1 <0>        -0.1138
      3 C3         -1.7113   -0.2987    2.3250 C.ar      1 <0>        -0.1082
      4 C4         -1.7431    0.7926    1.4771 C.ar      1 <0>        -0.1322
      5 C5         -2.9159    1.1288    0.8270 C.ar      1 <0>        -0.0992
      6 C6         -4.0540    0.3675    1.0169 C.ar      1 <0>        -0.1184
      7 C7         -0.5010    1.6194    1.2660 C.3       1 <0>         0.1356
      8 H1          0.1920    1.4509    2.0903 H         1 <0>         0.0906
      9 C8          0.1642    1.2136   -0.0506 C.3       1 <0>        -0.0865
     10 C9         -0.7567    1.5684   -1.2214 C.3       1 <0>        -0.1495
     11 C10        -0.0599    1.2150   -2.5373 C.3       1 <0>        -0.0024
     12 C11         2.1206    1.6003   -1.5529 C.3       1 <0>        -0.0007
     13 C12         1.4890    1.9652   -0.2076 C.3       1 <0>        -0.1472
     14 O1         -0.8530    3.0034    1.2151 O.3       1 <0>        -0.3048
     15 C13        -0.9693    3.6549    2.4026 C.ar      1 <0>         0.1125
     16 C14        -1.1893    5.0242    2.4246 C.ar      1 <0>        -0.1194
     17 C15        -1.3133    5.6839    3.6321 C.ar      1 <0>        -0.1136
     18 C16        -1.2064    4.9808    4.8200 C.ar      1 <0>         0.0725
     19 C17        -0.9806    3.6149    4.7996 C.ar      1 <0>        -0.1127
     20 C18        -0.8623    2.9517    3.5935 C.ar      1 <0>        -0.1728
     21 F1         -1.3228    5.6280    6.0002 F         1 <0>        -0.1346
     22 H2         -4.9125   -1.3159    2.0166 H         1 <0>         0.1279
     23 H3         -2.8259   -1.9092    3.1816 H         1 <0>         0.1286
     24 H4         -0.7962   -0.5587    2.8363 H         1 <0>         0.1234
     25 H5         -2.9420    1.9840    0.1680 H         1 <0>         0.1257
     26 H6         -4.9693    0.6279    0.5061 H         1 <0>         0.1269
     27 H7          0.3526    0.1400   -0.0478 H         1 <0>         0.1069
     28 H8         -1.6852    1.0036   -1.1381 H         1 <0>         0.1179
     29 H9         -0.9762    2.6358   -1.2011 H         1 <0>         0.0995
     30 H10        -0.7072    1.4796   -3.3734 H         1 <0>         0.1332
     31 H11         0.1469    0.1451   -2.5627 H         1 <0>         0.1293
     32 H12         3.0571    2.1447   -1.6741 H         1 <0>         0.1337
     33 H13         2.3171    0.5285   -1.5831 H         1 <0>         0.1300
     34 H14         1.3047    3.0389   -0.1713 H         1 <0>         0.0979
     35 H15         2.1649    1.6839    0.6000 H         1 <0>         0.1123
     36 H16        -1.2679    5.5737    1.4982 H         1 <0>         0.1399
     37 H17        -1.4898    6.7492    3.6495 H         1 <0>         0.1460
     38 H18        -0.8974    3.0676    5.7269 H         1 <0>         0.1409
     39 H19        -0.6869    1.8861    3.5778 H         1 <0>         0.1365
     40 N1          1.2039    1.9679   -2.6489 N.4       1 <0>        -0.5169
     41 H20         1.0039    2.9737   -2.5995 H         1 <0>         0.4333
     42 H21         1.6484    1.7511   -3.5487 H         1 <0>         0.4364
@<TRIPOS>BOND
     1    1    6 ar
     2    1    2 ar
     3    1   22 1
     4    2    3 ar
     5    2   23 1
     6    3    4 ar
     7    3   24 1
     8    4    5 ar
     9    4    7 1
    10    5    6 ar
    11    5   25 1
    12    6   26 1
    13    7    8 1
    14    7    9 1
    15    7   14 1
    16    9   13 1
    17    9   10 1
    18    9   27 1
    19   10   11 1
    20   10   28 1
    21   10   29 1
    22   11   30 1
    23   11   31 1
    24   11   40 1
    25   12   13 1
    26   12   32 1
    27   12   33 1
    28   12   40 1
    29   13   34 1
    30   13   35 1
    31   14   15 1
    32   15   20 ar
    33   15   16 ar
    34   16   17 ar
    35   16   36 1
    36   17   18 ar
    37   17   37 1
    38   18   19 ar
    39   18   21 1
    40   19   20 ar
    41   19   38 1
    42   20   39 1
    43   40   41 1
    44   40   42 1
@<TRIPOS>MOLECULE
ZINC13530884
   42    44     0     0     0
SMALL
USER_CHARGES
4-[(S)-(4-fluorophenoxy)-phenyl-methyl]piperidine
@<TRIPOS>ATOM
      1 C1         -1.3420    2.4036    6.3250 C.ar      1 <0>        -0.1051
      2 C2         -0.3520    3.0894    5.6464 C.ar      1 <0>        -0.1140
      3 C3          0.0741    2.6434    4.4093 C.ar      1 <0>        -0.1088
      4 C4         -0.4901    1.5118    3.8506 C.ar      1 <0>        -0.1320
      5 C5         -1.4841    0.8293    4.5266 C.ar      1 <0>        -0.0985
      6 C6         -1.9063    1.2721    5.7662 C.ar      1 <0>        -0.1181
      7 C7         -0.0259    1.0258    2.5018 C.3       1 <0>         0.1356
      8 H1          0.9927    1.3699    2.3224 H         1 <0>         0.0910
      9 C8         -0.9498    1.5787    1.4148 C.3       1 <0>        -0.0862
     10 C9         -0.4791    1.0856    0.0437 C.3       1 <0>        -0.1468
     11 C10        -1.4411    1.5915   -1.0337 C.3       1 <0>        -0.0009
     12 C11        -3.2876    1.5954    0.5356 C.3       1 <0>        -0.0023
     13 C12        -2.3808    1.0896    1.6598 C.3       1 <0>        -0.1483
     14 O1         -0.0581   -0.4025    2.4731 O.3       1 <0>        -0.3049
     15 C13         1.0233   -1.0545    2.9766 C.ar      1 <0>         0.1125
     16 C14         2.0460   -0.3386    3.5813 C.ar      1 <0>        -0.1724
     17 C15         3.1415   -1.0030    4.0980 C.ar      1 <0>        -0.1127
     18 C16         3.2245   -2.3817    4.0020 C.ar      1 <0>         0.0726
     19 C17         2.2073   -3.0970    3.3933 C.ar      1 <0>        -0.1137
     20 C18         1.1077   -2.4357    2.8811 C.ar      1 <0>        -0.1194
     21 F1          4.2988   -3.0297    4.5032 F         1 <0>        -0.1346
     22 H2         -1.6745    2.7517    7.2918 H         1 <0>         0.1277
     23 H3          0.0888    3.9735    6.0829 H         1 <0>         0.1284
     24 H4          0.8476    3.1792    3.8792 H         1 <0>         0.1233
     25 H5         -1.9280   -0.0522    4.0881 H         1 <0>         0.1255
     26 H6         -2.6795    0.7361    6.2965 H         1 <0>         0.1268
     27 H7         -0.9286    2.6683    1.4370 H         1 <0>         0.1067
     28 H8         -0.4633   -0.0042    0.0347 H         1 <0>         0.0988
     29 H9          0.5228    1.4658   -0.1555 H         1 <0>         0.1121
     30 H10        -1.4460    2.6815   -1.0333 H         1 <0>         0.1298
     31 H11        -1.1163    1.2301   -2.0093 H         1 <0>         0.1336
     32 H12        -3.2839    2.6853    0.5286 H         1 <0>         0.1293
     33 H13        -4.3038    1.2367    0.6997 H         1 <0>         0.1331
     34 H14        -2.7377    1.4732    2.6156 H         1 <0>         0.1171
     35 H15        -2.3954   -0.0002    1.6767 H         1 <0>         0.0985
     36 H16         1.9838    0.7373    3.6520 H         1 <0>         0.1365
     37 H17         3.9356   -0.4463    4.5735 H         1 <0>         0.1409
     38 H18         2.2732   -4.1724    3.3190 H         1 <0>         0.1460
     39 H19         0.3141   -2.9939    2.4070 H         1 <0>         0.1399
     40 N1         -2.8013    1.0888   -0.7619 N.4       1 <0>        -0.5169
     41 H20        -2.7844    0.0625   -0.7394 H         1 <0>         0.4333
     42 H21        -3.4336    1.4045   -1.5067 H         1 <0>         0.4363
@<TRIPOS>BOND
     1    1    6 ar
     2    1    2 ar
     3    1   22 1
     4    2    3 ar
     5    2   23 1
     6    3    4 ar
     7    3   24 1
     8    4    5 ar
     9    4    7 1
    10    5    6 ar
    11    5   25 1
    12    6   26 1
    13    7    8 1
    14    7    9 1
    15    7   14 1
    16    9   13 1
    17    9   10 1
    18    9   27 1
    19   10   11 1
    20   10   28 1
    21   10   29 1
    22   11   30 1
    23   11   31 1
    24   11   40 1
    25   12   13 1
    26   12   32 1
    27   12   33 1
    28   12   40 1
    29   13   34 1
    30   13   35 1
    31   14   15 1
    32   15   20 ar
    33   15   16 ar
    34   16   17 ar
    35   16   36 1
    36   17   18 ar
    37   17   37 1
    38   18   19 ar
    39   18   21 1
    40   19   20 ar
    41   19   38 1
    42   20   39 1
    43   40   41 1
    44   40   42 1
@<TRIPOS>MOLECULE
ZINC22792413
   57    59     0     0     0
SMALL
USER_CHARGES

@<TRIPOS>ATOM
      1 C1          2.0288    1.6274    1.3601 C.3       1 <0>        -0.1907
      2 C2          2.1341    0.1164    1.1440 C.3       1 <0>         0.0785
      3 H1          2.7816   -0.3155    1.9072 H         1 <0>         0.0792
      4 C3          0.7421   -0.5109    1.2415 C.3       1 <0>        -0.0001
      5 N1          0.8458   -1.9643    1.0550 N.4       1 <0>        -0.3842
      6 C4         -0.5009   -2.5484    1.0032 C.3       1 <0>        -0.0021
      7 C5         -0.3937   -4.0599    0.7900 C.3       1 <0>         0.0268
      8 N2          0.3745   -4.6541    1.8931 N.3       1 <0>        -0.5275
      9 C6          1.7170   -4.0611    1.9730 C.3       1 <0>         0.0226
     10 C7          1.5924   -2.5495    2.1764 C.3       1 <0>        -0.0050
     11 C8          0.4515   -6.1145    1.7543 C.3       1 <0>         0.0575
     12 C9          1.0346   -6.7183    3.0335 C.3       1 <0>         0.0611
     13 O1          0.1365   -6.4887    4.1210 O.3       1 <0>        -0.3548
     14 C10         0.5890   -7.0160    5.3697 C.3       1 <0>         0.1800
     15 C11         1.4032   -5.9724    6.0902 C.ar      1 <0>        -0.1226
     16 C12         1.0022   -4.6495    6.0718 C.ar      1 <0>        -0.0611
     17 C13         1.7477   -3.6916    6.7325 C.ar      1 <0>        -0.1621
     18 C14         2.8967   -4.0574    7.4132 C.ar      1 <0>         0.1054
     19 C15         3.2973   -5.3826    7.4309 C.ar      1 <0>        -0.1524
     20 C16         2.5473   -6.3395    6.7739 C.ar      1 <0>        -0.0773
     21 F1          3.6265   -3.1218    8.0591 F         1 <0>        -0.1367
     22 C17        -0.5994   -7.3973    6.2143 C.ar      1 <0>        -0.1019
     23 C18        -1.7595   -6.6479    6.1526 C.ar      1 <0>        -0.0595
     24 C19        -2.8501   -6.9969    6.9262 C.ar      1 <0>        -0.1570
     25 C20        -2.7806   -8.0976    7.7634 C.ar      1 <0>         0.1083
     26 C21        -1.6182   -8.8474    7.8243 C.ar      1 <0>        -0.1519
     27 C22        -0.5307   -8.4996    7.0458 C.ar      1 <0>        -0.0774
     28 F2         -3.8461   -8.4394    8.5205 F         1 <0>        -0.1352
     29 O2          2.6838   -0.1426   -0.1493 O.3       1 <0>        -0.5765
     30 H2          1.6096    1.8251    2.3466 H         1 <0>         0.0792
     31 H3          3.0206    2.0744    1.2906 H         1 <0>         0.0810
     32 H4          1.3814    2.0594    0.5970 H         1 <0>         0.0772
     33 H5          0.3164   -0.3000    2.2226 H         1 <0>         0.1426
     34 H6          0.0990   -0.0903    0.4684 H         1 <0>         0.1380
     35 H7         -1.0195   -2.3496    1.9411 H         1 <0>         0.1381
     36 H8         -1.0583   -2.1038    0.1787 H         1 <0>         0.1352
     37 H9         -1.3926   -4.4956    0.7665 H         1 <0>         0.1252
     38 H10         0.1126   -4.2590   -0.1544 H         1 <0>         0.0599
     39 H11         2.2580   -4.4977    2.8125 H         1 <0>         0.1230
     40 H12         2.2581   -4.2602    1.0480 H         1 <0>         0.0599
     41 H13         2.5870   -2.1058    2.2217 H         1 <0>         0.1317
     42 H14         1.0632   -2.3508    3.1084 H         1 <0>         0.1379
     43 H15        -0.5474   -6.5165    1.5853 H         1 <0>         0.1001
     44 H16         1.0921   -6.3658    0.9090 H         1 <0>         0.0630
     45 H17         1.1746   -7.7908    2.8980 H         1 <0>         0.0655
     46 H18         1.9952   -6.2512    3.2507 H         1 <0>         0.0527
     47 H19         1.2050   -7.8972    5.1903 H         1 <0>         0.0817
     48 H20         0.1061   -4.3644    5.5406 H         1 <0>         0.1363
     49 H21         1.4344   -2.6582    6.7177 H         1 <0>         0.1335
     50 H22         4.1935   -5.6690    7.9612 H         1 <0>         0.1392
     51 H23         2.8572   -7.3740    6.7913 H         1 <0>         0.1339
     52 H24        -1.8133   -5.7892    5.4998 H         1 <0>         0.1358
     53 H25        -3.7562   -6.4111    6.8782 H         1 <0>         0.1373
     54 H26        -1.5628   -9.7059    8.4772 H         1 <0>         0.1401
     55 H27         0.3746   -9.0869    7.0899 H         1 <0>         0.1333
     56 H28         3.5675    0.2269   -0.2823 H         1 <0>         0.4078
     57 H29         1.3297   -2.1586    0.1912 H         1 <0>         0.4280
@<TRIPOS>BOND
     1    1    2 1
     2    1   30 1
     3    1   31 1
     4    1   32 1
     5    2    3 1
     6    2    4 1
     7    2   29 1
     8    4    5 1
     9    4   33 1
    10    4   34 1
    11    5   10 1
    12    5    6 1
    13    5   57 1
    14    6    7 1
    15    6   35 1
    16    6   36 1
    17    7    8 1
    18    7   37 1
    19    7   38 1
    20    8    9 1
    21    8   11 1
    22    9   10 1
    23    9   39 1
    24    9   40 1
    25   10   41 1
    26   10   42 1
    27   11   12 1
    28   11   43 1
    29   11   44 1
    30   12   13 1
    31   12   45 1
    32   12   46 1
    33   13   14 1
    34   14   15 1
    35   14   22 1
    36   14   47 1
    37   15   20 ar
    38   15   16 ar
    39   16   17 ar
    40   16   48 1
    41   17   18 ar
    42   17   49 1
    43   18   19 ar
    44   18   21 1
    45   19   20 ar
    46   19   50 1
    47   20   51 1
    48   22   27 ar
    49   22   23 ar
    50   23   24 ar
    51   23   52 1
    52   24   25 ar
    53   24   53 1
    54   25   26 ar
    55   25   28 1
    56   26   27 ar
    57   26   54 1
    58   27   55 1
    59   29   56 1
@<TRIPOS>MOLECULE
ZINC00025765
   42    44     0     0     0
SMALL
USER_CHARGES
4-[(3-fluorophenoxy)-phenyl-methyl]piperidine
@<TRIPOS>ATOM
      1 C1          2.3038   -0.1249   -0.2734 C.ar      1 <0>        -0.1041
      2 C2          1.0909   -0.7846   -0.2046 C.ar      1 <0>        -0.1171
      3 C3         -0.0842   -0.0627   -0.1107 C.ar      1 <0>        -0.1091
      4 C4         -0.0465    1.3189   -0.0857 C.ar      1 <0>        -0.1108
      5 C5          1.1663    1.9786   -0.1541 C.ar      1 <0>        -0.0903
      6 C6          2.3414    1.2567   -0.2484 C.ar      1 <0>        -0.1172
      7 C7         -1.3281    2.1060    0.0098 C.3       1 <0>         0.1349
      8 H1         -2.1634    1.4794   -0.3028 H         1 <0>         0.0938
      9 C8         -1.5425    2.5578    1.4557 C.3       1 <0>        -0.1143
     10 C9         -1.6318    1.3309    2.3673 C.3       1 <0>        -0.1436
     11 C10        -1.9085    1.7864    3.8020 C.3       1 <0>        -0.0004
     12 C11        -3.0860    3.7520    3.0131 C.3       1 <0>        -0.0005
     13 C12        -2.8460    3.3551    1.5547 C.3       1 <0>        -0.1525
     14 O1         -1.2478    3.2518   -0.8404 O.3       1 <0>        -0.2942
     15 C13        -2.3708    3.5907   -1.5266 C.ar      1 <0>         0.1542
     16 C14        -3.5559    2.9046   -1.3020 C.ar      1 <0>        -0.2330
     17 C15        -4.6978    3.2528   -1.9969 C.ar      1 <0>        -0.0476
     18 C16        -4.6594    4.2781   -2.9236 C.ar      1 <0>        -0.1860
     19 C17        -3.4773    4.9614   -3.1542 C.ar      1 <0>         0.1495
     20 C18        -2.3324    4.6187   -2.4565 C.ar      1 <0>        -0.1878
     21 F1         -3.4416    5.9625   -4.0608 F         1 <0>        -0.1263
     22 H2          3.2218   -0.6889   -0.3471 H         1 <0>         0.1285
     23 H3          1.0615   -1.8641   -0.2245 H         1 <0>         0.1289
     24 H4         -1.0318   -0.5781   -0.0573 H         1 <0>         0.1220
     25 H5          1.1958    3.0580   -0.1348 H         1 <0>         0.1271
     26 H6          3.2890    1.7721   -0.3025 H         1 <0>         0.1285
     27 H7         -0.7075    3.1845    1.7692 H         1 <0>         0.1032
     28 H8         -2.4417    0.6844    2.0292 H         1 <0>         0.0908
     29 H9         -0.6900    0.7832    2.3337 H         1 <0>         0.1193
     30 H10        -1.0910    2.4207    4.1447 H         1 <0>         0.1313
     31 H11        -1.9881    0.9143    4.4509 H         1 <0>         0.1350
     32 H12        -2.2629    4.3771    3.3595 H         1 <0>         0.1313
     33 H13        -4.0208    4.3074    3.0892 H         1 <0>         0.1345
     34 H14        -2.7711    4.2527    0.9409 H         1 <0>         0.1165
     35 H15        -3.6755    2.7414    1.2034 H         1 <0>         0.0927
     36 H16        -3.5864    2.1010   -0.5811 H         1 <0>         0.1332
     37 H17        -5.6206    2.7207   -1.8192 H         1 <0>         0.1383
     38 H18        -5.5525    4.5462   -3.4685 H         1 <0>         0.1421
     39 H19        -1.4102    5.1516   -2.6356 H         1 <0>         0.1465
     40 N1         -3.1758    2.5405    3.8502 N.4       1 <0>        -0.5169
     41 H20        -3.3702    2.8136    4.8207 H         1 <0>         0.4376
     42 H21        -3.9370    1.9452    3.5031 H         1 <0>         0.4319
@<TRIPOS>BOND
     1    1    6 ar
     2    1    2 ar
     3    1   22 1
     4    2    3 ar
     5    2   23 1
     6    3    4 ar
     7    3   24 1
     8    4    5 ar
     9    4    7 1
    10    5    6 ar
    11    5   25 1
    12    6   26 1
    13    7    8 1
    14    7    9 1
    15    7   14 1
    16    9   13 1
    17    9   10 1
    18    9   27 1
    19   10   11 1
    20   10   28 1
    21   10   29 1
    22   11   30 1
    23   11   31 1
    24   11   40 1
    25   12   13 1
    26   12   32 1
    27   12   33 1
    28   12   40 1
    29   13   34 1
    30   13   35 1
    31   14   15 1
    32   15   20 ar
    33   15   16 ar
    34   16   17 ar
    35   16   36 1
    36   17   18 ar
    37   17   37 1
    38   18   19 ar
    39   18   38 1
    40   19   20 ar
    41   19   21 1
    42   20   39 1
    43   40   41 1
    44   40   42 1
@<TRIPOS>MOLECULE
ZINC13530851
   42    44     0     0     0
SMALL
USER_CHARGES
4-[(S)-(3-fluorophenoxy)-phenyl-methyl]piperidine
@<TRIPOS>ATOM
      1 C1         -3.7135   -2.0485    0.4475 C.ar      1 <0>        -0.1048
      2 C2         -2.9790   -1.6998    1.5654 C.ar      1 <0>        -0.1135
      3 C3         -1.7744   -1.0371    1.4218 C.ar      1 <0>        -0.1082
      4 C4         -1.3046   -0.7226    0.1604 C.ar      1 <0>        -0.1325
      5 C5         -2.0419   -1.0663   -0.9573 C.ar      1 <0>        -0.0989
      6 C6         -3.2437   -1.7341   -0.8140 C.ar      1 <0>        -0.1181
      7 C7          0.0084    0.0003    0.0039 C.3       1 <0>         0.1343
      8 H1          0.6357   -0.1931    0.8741 H         1 <0>         0.0914
      9 C8         -0.2483    1.5039   -0.1157 C.3       1 <0>        -0.0862
     10 C9         -1.1228    1.7777   -1.3423 C.3       1 <0>        -0.1483
     11 C10        -1.3256    3.2872   -1.4915 C.3       1 <0>        -0.0023
     12 C11         0.8183    3.7357   -0.4548 C.3       1 <0>        -0.0006
     13 C12         1.0851    2.2396   -0.2747 C.3       1 <0>        -0.1470
     14 O1          0.6709   -0.4649   -1.1737 O.3       1 <0>        -0.3023
     15 C13         1.4145   -1.5964   -1.0570 C.ar      1 <0>         0.1529
     16 C14         2.1734   -2.0427   -2.1297 C.ar      1 <0>        -0.1606
     17 C15         2.9293   -3.1926   -2.0098 C.ar      1 <0>        -0.0488
     18 C16         2.9309   -3.9002   -0.8221 C.ar      1 <0>        -0.1839
     19 C17         2.1752   -3.4576    0.2506 C.ar      1 <0>         0.1423
     20 C18         1.4204   -2.3033    0.1359 C.ar      1 <0>        -0.2415
     21 F1          2.1788   -4.1499    1.4107 F         1 <0>        -0.1316
     22 H2         -4.6543   -2.5670    0.5596 H         1 <0>         0.1280
     23 H3         -3.3460   -1.9455    2.5509 H         1 <0>         0.1287
     24 H4         -1.2005   -0.7647    2.2952 H         1 <0>         0.1232
     25 H5         -1.6769   -0.8167   -1.9427 H         1 <0>         0.1257
     26 H6         -3.8174   -2.0068   -1.6874 H         1 <0>         0.1271
     27 H7         -0.7557    1.8592    0.7812 H         1 <0>         0.1072
     28 H8         -0.6322    1.3866   -2.2337 H         1 <0>         0.0986
     29 H9         -2.0901    1.2914   -1.2156 H         1 <0>         0.1174
     30 H10        -1.8287    3.6753   -0.6058 H         1 <0>         0.1294
     31 H11        -1.9360    3.4862   -2.3723 H         1 <0>         0.1333
     32 H12         0.3052    4.1217    0.4260 H         1 <0>         0.1299
     33 H13         1.7650    4.2606   -0.5826 H         1 <0>         0.1338
     34 H14         1.6954    2.0832    0.6148 H         1 <0>         0.1122
     35 H15         1.6108    1.8553   -1.1488 H         1 <0>         0.0989
     36 H16         2.1734   -1.4908   -3.0580 H         1 <0>         0.1367
     37 H17         3.5200   -3.5393   -2.8449 H         1 <0>         0.1443
     38 H18         3.5226   -4.7990   -0.7306 H         1 <0>         0.1416
     39 H19         0.8340   -1.9554    0.9735 H         1 <0>         0.1394
     40 N1         -0.0180    3.9515   -1.6509 N.4       1 <0>        -0.5168
     41 H20        -0.1645    4.9590   -1.7839 H         1 <0>         0.4363
     42 H21         0.4604    3.5638   -2.4726 H         1 <0>         0.4333
@<TRIPOS>BOND
     1    1    6 ar
     2    1    2 ar
     3    1   22 1
     4    2    3 ar
     5    2   23 1
     6    3    4 ar
     7    3   24 1
     8    4    5 ar
     9    4    7 1
    10    5    6 ar
    11    5   25 1
    12    6   26 1
    13    7    8 1
    14    7    9 1
    15    7   14 1
    16    9   13 1
    17    9   10 1
    18    9   27 1
    19   10   11 1
    20   10   28 1
    21   10   29 1
    22   11   30 1
    23   11   31 1
    24   11   40 1
    25   12   13 1
    26   12   32 1
    27   12   33 1
    28   12   40 1
    29   13   34 1
    30   13   35 1
    31   14   15 1
    32   15   20 ar
    33   15   16 ar
    34   16   17 ar
    35   16   36 1
    36   17   18 ar
    37   17   37 1
    38   18   19 ar
    39   18   38 1
    40   19   20 ar
    41   19   21 1
    42   20   39 1
    43   40   41 1
    44   40   42 1
@<TRIPOS>MOLECULE
ZINC22034135
   66    69     0     0     0
SMALL
USER_CHARGES

@<TRIPOS>ATOM
      1 C1         -0.0167    1.3781    0.0096 C.ar      1 <0>        -0.1131
      2 C2          1.1709    2.0855    0.0021 C.ar      1 <0>        -0.1153
      3 C3          2.3773    1.4107   -0.0130 C.ar      1 <0>        -0.1156
      4 C4          2.3960    0.0285   -0.0201 C.ar      1 <0>        -0.1009
      5 C5          1.2084   -0.6789   -0.0117 C.ar      1 <0>        -0.1157
      6 C6          0.0021   -0.0041    0.0020 C.ar      1 <0>        -0.1154
      7 C7          3.7112   -0.7071   -0.0376 C.3       1 <0>        -0.0726
      8 C8          4.1714   -0.9633    1.3989 C.3       1 <0>        -0.1434
      9 C9          5.5066   -1.7102    1.3812 C.3       1 <0>        -0.0095
     10 N1          5.9484   -1.9561    2.7604 N.4       1 <0>        -0.3863
     11 C10         6.2271   -0.6741    3.4209 C.3       1 <0>        -0.0057
     12 C11         6.6694   -0.9289    4.8636 C.3       1 <0>         0.0272
     13 N2          7.8739   -1.7710    4.8622 N.3       1 <0>        -0.5275
     14 C12         7.6170   -3.0483    4.1820 C.3       1 <0>         0.0211
     15 C13         7.1670   -2.7761    2.7450 C.3       1 <0>        -0.0010
     16 C14         8.3634   -1.9918    6.2295 C.3       1 <0>         0.0576
     17 C15         9.7419   -2.6536    6.1771 C.3       1 <0>         0.0611
     18 O1         10.6793   -1.7551    5.5805 O.3       1 <0>        -0.3549
     19 C16        12.0053   -2.2788    5.4830 C.3       1 <0>         0.1802
     20 C17        12.1668   -2.9959    4.1674 C.ar      1 <0>        -0.1229
     21 C18        11.6122   -2.4639    3.0182 C.ar      1 <0>        -0.0610
     22 C19        11.7600   -3.1204    1.8112 C.ar      1 <0>        -0.1619
     23 C20        12.4639   -4.3113    1.7531 C.ar      1 <0>         0.1058
     24 C21        13.0188   -4.8431    2.9047 C.ar      1 <0>        -0.1524
     25 C22        12.8742   -4.1822    4.1097 C.ar      1 <0>        -0.0774
     26 F1         12.6086   -4.9542    0.5737 F         1 <0>        -0.1364
     27 C23        12.9989   -1.1487    5.5644 C.ar      1 <0>        -0.1020
     28 C24        12.6924    0.0816    5.0134 C.ar      1 <0>        -0.0595
     29 C25        13.6026    1.1188    5.0879 C.ar      1 <0>        -0.1570
     30 C26        14.8220    0.9254    5.7146 C.ar      1 <0>         0.1083
     31 C27        15.1279   -0.3072    6.2661 C.ar      1 <0>        -0.1519
     32 C28        14.2140   -1.3414    6.1951 C.ar      1 <0>        -0.0774
     33 F2         15.7128    1.9385    5.7876 F         1 <0>        -0.1352
     34 H1         -0.9591    1.9053    0.0259 H         1 <0>         0.1265
     35 H2          1.1563    3.1654    0.0076 H         1 <0>         0.1262
     36 H3          3.3051    1.9634   -0.0196 H         1 <0>         0.1215
     37 H4          1.2231   -1.7588   -0.0176 H         1 <0>         0.1212
     38 H5         -0.9258   -0.5567    0.0082 H         1 <0>         0.1260
     39 H6          3.5884   -1.6586   -0.5549 H         1 <0>         0.0828
     40 H7          4.4573   -0.1052   -0.5563 H         1 <0>         0.0831
     41 H8          4.2941   -0.0118    1.9163 H         1 <0>         0.0886
     42 H9          3.4252   -1.5652    1.9176 H         1 <0>         0.0874
     43 H10         5.3838   -2.6617    0.8639 H         1 <0>         0.1318
     44 H11         6.2527   -1.1082    0.8625 H         1 <0>         0.1319
     45 H12         7.0204   -0.1538    2.8842 H         1 <0>         0.1386
     46 H13         5.3256   -0.0614    3.4201 H         1 <0>         0.1357
     47 H14         6.8906    0.0215    5.3494 H         1 <0>         0.1242
     48 H15         5.8710   -1.4370    5.4044 H         1 <0>         0.0590
     49 H16         8.5296   -3.6442    4.1706 H         1 <0>         0.1234
     50 H17         6.8343   -3.5914    4.7116 H         1 <0>         0.0594
     51 H18         6.9623   -3.7217    2.2431 H         1 <0>         0.1342
     52 H19         7.9555   -2.2450    2.2118 H         1 <0>         0.1382
     53 H20         8.4389   -1.0356    6.7473 H         1 <0>         0.0998
     54 H21         7.6691   -2.6404    6.7637 H         1 <0>         0.0626
     55 H22        10.0662   -2.8982    7.1886 H         1 <0>         0.0653
     56 H23         9.6846   -3.5659    5.5833 H         1 <0>         0.0528
     57 H24        12.1812   -2.9769    6.3014 H         1 <0>         0.0816
     58 H25        11.0630   -1.5351    3.0639 H         1 <0>         0.1362
     59 H26        11.3264   -2.7048    0.9136 H         1 <0>         0.1337
     60 H27        13.5678   -5.7722    2.8606 H         1 <0>         0.1392
     61 H28        13.3108   -4.5945    5.0074 H         1 <0>         0.1338
     62 H29        11.7413    0.2321    4.5243 H         1 <0>         0.1357
     63 H30        13.3630    2.0797    4.6570 H         1 <0>         0.1373
     64 H31        16.0789   -0.4593    6.7550 H         1 <0>         0.1401
     65 H32        14.4506   -2.3016    6.6291 H         1 <0>         0.1333
     66 H33         5.2222   -2.4427    3.2643 H         1 <0>         0.4198
@<TRIPOS>BOND
     1    1    6 ar
     2    1    2 ar
     3    1   34 1
     4    2    3 ar
     5    2   35 1
     6    3    4 ar
     7    3   36 1
     8    4    5 ar
     9    4    7 1
    10    5    6 ar
    11    5   37 1
    12    6   38 1
    13    7    8 1
    14    7   39 1
    15    7   40 1
    16    8    9 1
    17    8   41 1
    18    8   42 1
    19    9   10 1
    20    9   43 1
    21    9   44 1
    22   10   15 1
    23   10   11 1
    24   10   66 1
    25   11   12 1
    26   11   45 1
    27   11   46 1
    28   12   13 1
    29   12   47 1
    30   12   48 1
    31   13   14 1
    32   13   16 1
    33   14   15 1
    34   14   49 1
    35   14   50 1
    36   15   51 1
    37   15   52 1
    38   16   17 1
    39   16   53 1
    40   16   54 1
    41   17   18 1
    42   17   55 1
    43   17   56 1
    44   18   19 1
    45   19   20 1
    46   19   27 1
    47   19   57 1
    48   20   25 ar
    49   20   21 ar
    50   21   22 ar
    51   21   58 1
    52   22   23 ar
    53   22   59 1
    54   23   24 ar
    55   23   26 1
    56   24   25 ar
    57   24   60 1
    58   25   61 1
    59   27   32 ar
    60   27   28 ar
    61   28   29 ar
    62   28   62 1
    63   29   30 ar
    64   29   63 1
    65   30   31 ar
    66   30   33 1
    67   31   32 ar
    68   31   64 1
    69   32   65 1
@<TRIPOS>MOLECULE
ZINC19361058
   57    59     0     0     0
SMALL
USER_CHARGES

@<TRIPOS>ATOM
      1 C1         -0.0187    1.5258    0.0104 C.3       1 <0>        -0.1909
      2 C2          0.0021   -0.0041    0.0020 C.3       1 <0>         0.0788
      3 H1          0.5123   -0.3556   -0.8948 H         1 <0>         0.0800
      4 C3         -1.4333   -0.5336    0.0129 C.3       1 <0>        -0.0001
      5 N1         -1.4134   -2.0025    0.0048 N.4       1 <0>        -0.3840
      6 C4         -0.8319   -2.4770   -1.2578 C.3       1 <0>        -0.0053
      7 C5         -0.7936   -4.0068   -1.2588 C.3       1 <0>         0.0280
      8 N2         -2.1587   -4.5283   -1.1017 N.3       1 <0>        -0.5275
      9 C6         -2.7630   -4.0413    0.1464 C.3       1 <0>         0.0214
     10 C7         -2.7851   -2.5112    0.1359 C.3       1 <0>        -0.0019
     11 C8         -2.1709   -5.9963   -1.1546 C.3       1 <0>         0.0575
     12 C9         -3.6160   -6.4916   -1.2389 C.3       1 <0>         0.0610
     13 O1         -4.1949   -6.0640   -2.4734 O.3       1 <0>        -0.3550
     14 C10        -5.5513   -6.4765   -2.6530 C.3       1 <0>         0.1801
     15 C11        -6.4744   -5.4254   -2.0926 C.ar      1 <0>        -0.1229
     16 C12        -6.1917   -4.0856   -2.2825 C.ar      1 <0>        -0.0611
     17 C13        -7.0378   -3.1208   -1.7694 C.ar      1 <0>        -0.1620
     18 C14        -8.1689   -3.4966   -1.0648 C.ar      1 <0>         0.1058
     19 C15        -8.4510   -4.8388   -0.8752 C.ar      1 <0>        -0.1523
     20 C16        -7.6063   -5.8018   -1.3938 C.ar      1 <0>        -0.0773
     21 F1         -8.9965   -2.5543   -0.5623 F         1 <0>        -0.1365
     22 C17        -5.8306   -6.6583   -4.1227 C.ar      1 <0>        -0.1018
     23 C18        -5.2249   -5.8294   -5.0486 C.ar      1 <0>        -0.0596
     24 C19        -5.4799   -5.9955   -6.3967 C.ar      1 <0>        -0.1571
     25 C20        -6.3424   -6.9925   -6.8198 C.ar      1 <0>         0.1082
     26 C21        -6.9484   -7.8221   -5.8916 C.ar      1 <0>        -0.1518
     27 C22        -6.6878   -7.6575   -4.5444 C.ar      1 <0>        -0.0774
     28 F2         -6.5928   -7.1555   -8.1374 F         1 <0>        -0.1353
     29 O2          0.6932   -0.4774    1.1597 O.3       1 <0>        -0.5769
     30 H2          1.0039    1.9031    0.0027 H         1 <0>         0.0811
     31 H3         -0.5459    1.8868   -0.8726 H         1 <0>         0.0792
     32 H4         -0.5289    1.8773    0.9072 H         1 <0>         0.0770
     33 H5         -1.9435   -0.1821    0.9097 H         1 <0>         0.1373
     34 H6         -1.9605   -0.1726   -0.8702 H         1 <0>         0.1427
     35 H7         -1.4407   -2.1283   -2.0919 H         1 <0>         0.1380
     36 H8          0.1812   -2.0882   -1.3600 H         1 <0>         0.1326
     37 H9         -0.3759   -4.3595   -2.2018 H         1 <0>         0.1242
     38 H10        -0.1737   -4.3557   -0.4329 H         1 <0>         0.0598
     39 H11        -3.7821   -4.4191    0.2287 H         1 <0>         0.1239
     40 H12        -2.1756   -4.3907    0.9955 H         1 <0>         0.0600
     41 H13        -3.2200   -2.1477    1.0669 H         1 <0>         0.1342
     42 H14        -3.3839   -2.1623   -0.7054 H         1 <0>         0.1379
     43 H15        -1.6197   -6.3327   -2.0328 H         1 <0>         0.0999
     44 H16        -1.7015   -6.3962   -0.2558 H         1 <0>         0.0630
     45 H17        -3.6304   -7.5804   -1.1887 H         1 <0>         0.0654
     46 H18        -4.1896   -6.0820   -0.4074 H         1 <0>         0.0529
     47 H19        -5.7161   -7.4198   -2.1325 H         1 <0>         0.0817
     48 H20        -5.3092   -3.7927   -2.8318 H         1 <0>         0.1362
     49 H21        -6.8165   -2.0741   -1.9176 H         1 <0>         0.1337
     50 H22        -9.3328   -5.1331   -0.3255 H         1 <0>         0.1392
     51 H23        -7.8285   -6.8489   -1.2498 H         1 <0>         0.1338
     52 H24        -4.5524   -5.0515   -4.7183 H         1 <0>         0.1358
     53 H25        -5.0069   -5.3476   -7.1198 H         1 <0>         0.1372
     54 H26        -7.6216   -8.5999   -6.2205 H         1 <0>         0.1401
     55 H27        -7.1569   -8.3073   -3.8205 H         1 <0>         0.1333
     56 H28         1.6114   -0.1800    1.2187 H         1 <0>         0.4079
     57 H29        -0.8562   -2.3354    0.7773 H         1 <0>         0.4281
@<TRIPOS>BOND
     1    1    2 1
     2    1   30 1
     3    1   31 1
     4    1   32 1
     5    2    3 1
     6    2    4 1
     7    2   29 1
     8    4    5 1
     9    4   33 1
    10    4   34 1
    11    5   10 1
    12    5    6 1
    13    5   57 1
    14    6    7 1
    15    6   35 1
    16    6   36 1
    17    7    8 1
    18    7   37 1
    19    7   38 1
    20    8    9 1
    21    8   11 1
    22    9   10 1
    23    9   39 1
    24    9   40 1
    25   10   41 1
    26   10   42 1
    27   11   12 1
    28   11   43 1
    29   11   44 1
    30   12   13 1
    31   12   45 1
    32   12   46 1
    33   13   14 1
    34   14   15 1
    35   14   22 1
    36   14   47 1
    37   15   20 ar
    38   15   16 ar
    39   16   17 ar
    40   16   48 1
    41   17   18 ar
    42   17   49 1
    43   18   19 ar
    44   18   21 1
    45   19   20 ar
    46   19   50 1
    47   20   51 1
    48   22   27 ar
    49   22   23 ar
    50   23   24 ar
    51   23   52 1
    52   24   25 ar
    53   24   53 1
    54   25   26 ar
    55   25   28 1
    56   26   27 ar
    57   26   54 1
    58   27   55 1
    59   29   56 1
@<TRIPOS>MOLECULE
ZINC13530899
   42    44     0     0     0
SMALL
USER_CHARGES
4-[(S)-(4-chlorophenyl)-phenoxy-methyl]piperidine
@<TRIPOS>ATOM
      1 C1          3.1481    3.3580    3.7557 C.ar      1 <0>        -0.1500
      2 C2          2.3749    3.8118    2.7031 C.ar      1 <0>        -0.0796
      3 C3          1.3058    3.0601    2.2554 C.ar      1 <0>        -0.2199
      4 C4          1.0081    1.8490    2.8630 C.ar      1 <0>         0.1212
      5 C5          1.7819    1.3986    3.9227 C.ar      1 <0>        -0.1475
      6 C6          2.8537    2.1510    4.3626 C.ar      1 <0>        -0.0734
      7 O1         -0.0431    1.1077    2.4244 O.3       1 <0>        -0.2984
      8 C7         -0.7660    1.6096    1.2986 C.3       1 <0>         0.1348
      9 H1         -0.6576    2.6932    1.2509 H         1 <0>         0.0939
     10 C8         -2.2242    1.2564    1.4400 C.ar      1 <0>        -0.1034
     11 C9         -2.5913    0.0554    2.0178 C.ar      1 <0>        -0.0769
     12 C10        -3.9287   -0.2666    2.1529 C.ar      1 <0>        -0.1081
     13 C11        -4.8998    0.6083    1.6993 C.ar      1 <0>        -0.0241
     14 C12        -4.5316    1.8076    1.1160 C.ar      1 <0>        -0.1086
     15 C13        -3.1941    2.1310    0.9866 C.ar      1 <0>        -0.0980
     16 Cl1        -6.5795    0.2017    1.8627 Cl        1 <0>        -0.0535
     17 C14        -0.2118    0.9847    0.0168 C.3       1 <0>        -0.1156
     18 C15        -0.9823    1.5240   -1.1916 C.3       1 <0>        -0.1458
     19 C16        -0.3837    0.9411   -2.4737 C.3       1 <0>        -0.0002
     20 C17         1.8024    0.7678   -1.4426 C.3       1 <0>        -0.0006
     21 C18         1.2690    1.3455   -0.1297 C.3       1 <0>        -0.1513
     22 H2          3.9835    3.9471    4.1042 H         1 <0>         0.1284
     23 H3          2.6073    4.7546    2.2302 H         1 <0>         0.1264
     24 H4          0.7020    3.4152    1.4334 H         1 <0>         0.1260
     25 H5          1.5495    0.4582    4.4003 H         1 <0>         0.1333
     26 H6          3.4591    1.7987    5.1847 H         1 <0>         0.1343
     27 H7         -1.8331   -0.6294    2.3678 H         1 <0>         0.1382
     28 H8         -4.2155   -1.2029    2.6083 H         1 <0>         0.1398
     29 H9         -5.2892    2.4911    0.7621 H         1 <0>         0.1401
     30 H10        -2.9066    3.0673    0.5316 H         1 <0>         0.1319
     31 H11        -0.3198   -0.0989    0.0636 H         1 <0>         0.1029
     32 H12        -2.0301    1.2334   -1.1143 H         1 <0>         0.1187
     33 H13        -0.9064    2.6110   -1.2159 H         1 <0>         0.0914
     34 H14        -0.9210    1.3342   -3.3368 H         1 <0>         0.1352
     35 H15        -0.4724   -0.1451   -2.4546 H         1 <0>         0.1314
     36 H16         2.8529    1.0351   -1.5567 H         1 <0>         0.1342
     37 H17         1.7033   -0.3176   -1.4286 H         1 <0>         0.1311
     38 H18         1.3804    2.4297   -0.1373 H         1 <0>         0.0929
     39 H19         1.8298    0.9274    0.7063 H         1 <0>         0.1168
     40 N1          1.0380    1.3214   -2.5766 N.4       1 <0>        -0.5169
     41 H20         1.1157    2.3452   -2.5692 H         1 <0>         0.4318
     42 H21         1.4233    0.9553   -3.4551 H         1 <0>         0.4374
@<TRIPOS>BOND
     1    1    6 ar
     2    1    2 ar
     3    1   22 1
     4    2    3 ar
     5    2   23 1
     6    3    4 ar
     7    3   24 1
     8    4    5 ar
     9    4    7 1
    10    5    6 ar
    11    5   25 1
    12    6   26 1
    13    7    8 1
    14    8    9 1
    15    8   10 1
    16    8   17 1
    17   10   15 ar
    18   10   11 ar
    19   11   12 ar
    20   11   27 1
    21   12   13 ar
    22   12   28 1
    23   13   14 ar
    24   13   16 1
    25   14   15 ar
    26   14   29 1
    27   15   30 1
    28   17   21 1
    29   17   18 1
    30   17   31 1
    31   18   19 1
    32   18   32 1
    33   18   33 1
    34   19   34 1
    35   19   35 1
    36   19   40 1
    37   20   21 1
    38   20   36 1
    39   20   37 1
    40   20   40 1
    41   21   38 1
    42   21   39 1
    43   40   41 1
    44   40   42 1
@<TRIPOS>MOLECULE
ZINC13530902
   42    44     0     0     0
SMALL
USER_CHARGES
4-[(R)-(4-chlorophenyl)-phenoxy-methyl]piperidine
@<TRIPOS>ATOM
      1 C1          0.0403    1.3810    0.5962 C.ar      1 <0>        -0.1502
      2 C2          0.0376    0.0053    0.4574 C.ar      1 <0>        -0.0733
      3 C3          1.2234   -0.6711    0.2460 C.ar      1 <0>        -0.1477
      4 C4          2.4177    0.0312    0.1731 C.ar      1 <0>         0.1213
      5 C5          2.4177    1.4114    0.3127 C.ar      1 <0>        -0.2201
      6 C6          1.2292    2.0832    0.5239 C.ar      1 <0>        -0.0795
      7 O1          3.5855   -0.6319   -0.0353 O.3       1 <0>        -0.2983
      8 C7          4.7691    0.1601   -0.1534 C.3       1 <0>         0.1347
      9 H1          4.6308    1.1015    0.3784 H         1 <0>         0.0935
     10 C8          5.9347   -0.5867    0.4421 C.ar      1 <0>        -0.1040
     11 C9          6.0565   -1.9493    0.2433 C.ar      1 <0>        -0.0766
     12 C10         7.1284   -2.6338    0.7844 C.ar      1 <0>        -0.1090
     13 C11         8.0735   -1.9570    1.5346 C.ar      1 <0>        -0.0234
     14 C12         7.9481   -0.5942    1.7379 C.ar      1 <0>        -0.1088
     15 C13         6.8788    0.0902    1.1916 C.ar      1 <0>        -0.0960
     16 Cl1         9.4166   -2.8171    2.2201 Cl        1 <0>        -0.0534
     17 C14         5.0468    0.4449   -1.6307 C.3       1 <0>        -0.1158
     18 C15         6.3105    1.3002   -1.7582 C.3       1 <0>        -0.1449
     19 C16         6.5490    1.6326   -3.2329 C.3       1 <0>        -0.0002
     20 C17         4.1725    1.5389   -3.6977 C.3       1 <0>        -0.0005
     21 C18         3.8631    1.2037   -2.2370 C.3       1 <0>        -0.1514
     22 H2         -0.8873    1.9075    0.7659 H         1 <0>         0.1283
     23 H3         -0.8924   -0.5409    0.5142 H         1 <0>         0.1343
     24 H4          1.2208   -1.7456    0.1373 H         1 <0>         0.1332
     25 H5          3.3461    1.9603    0.2566 H         1 <0>         0.1259
     26 H6          1.2287    3.1576    0.6330 H         1 <0>         0.1263
     27 H7          5.3163   -2.4783   -0.3386 H         1 <0>         0.1373
     28 H8          7.2258   -3.6976    0.6254 H         1 <0>         0.1397
     29 H9          8.6857   -0.0653    2.3232 H         1 <0>         0.1402
     30 H10         6.7809    1.1540    1.3499 H         1 <0>         0.1322
     31 H11         5.1874   -0.4959   -2.1629 H         1 <0>         0.1029
     32 H12         6.1835    2.2235   -1.1929 H         1 <0>         0.0913
     33 H13         7.1648    0.7478   -1.3669 H         1 <0>         0.1182
     34 H14         6.6895    0.7095   -3.7951 H         1 <0>         0.1314
     35 H15         7.4400    2.2536   -3.3255 H         1 <0>         0.1351
     36 H16         4.3243    0.6162   -4.2578 H         1 <0>         0.1311
     37 H17         3.3376    2.0918   -4.1282 H         1 <0>         0.1342
     38 H18         2.9689    0.5824   -2.1877 H         1 <0>         0.1167
     39 H19         3.6972    2.1252   -1.6788 H         1 <0>         0.0930
     40 N1          5.3895    2.3698   -3.7705 N.4       1 <0>        -0.5170
     41 H20         5.5713    2.6183   -4.7500 H         1 <0>         0.4374
     42 H21         5.2483    3.2254   -3.2208 H         1 <0>         0.4318
@<TRIPOS>BOND
     1    1    6 ar
     2    1    2 ar
     3    1   22 1
     4    2    3 ar
     5    2   23 1
     6    3    4 ar
     7    3   24 1
     8    4    5 ar
     9    4    7 1
    10    5    6 ar
    11    5   25 1
    12    6   26 1
    13    7    8 1
    14    8    9 1
    15    8   10 1
    16    8   17 1
    17   10   15 ar
    18   10   11 ar
    19   11   12 ar
    20   11   27 1
    21   12   13 ar
    22   12   28 1
    23   13   14 ar
    24   13   16 1
    25   14   15 ar
    26   14   29 1
    27   15   30 1
    28   17   21 1
    29   17   18 1
    30   17   31 1
    31   18   19 1
    32   18   32 1
    33   18   33 1
    34   19   34 1
    35   19   35 1
    36   19   40 1
    37   20   21 1
    38   20   36 1
    39   20   37 1
    40   20   40 1
    41   21   38 1
    42   21   39 1
    43   40   41 1
    44   40   42 1
@<TRIPOS>MOLECULE
ZINC06091496
   25    27     0     0     0
SMALL
USER_CHARGES
BLAHamine
@<TRIPOS>ATOM
      1 C1         -0.3192    2.4454   -4.7514 C.ar      1 <0>        -0.0804
      2 C2         -0.3930    2.3410   -3.3719 C.ar      1 <0>        -0.0983
      3 C3         -0.7501    3.4406   -2.6142 C.ar      1 <0>        -0.0984
      4 C4         -1.0331    4.6464   -3.2351 C.ar      1 <0>        -0.0802
      5 C5         -0.9608    4.7559   -4.6127 C.ar      1 <0>         0.0514
      6 C6         -0.6016    3.6474   -5.3763 C.ar      1 <0>         0.0514
      7 O1         -0.6025    4.0060   -6.6934 O.3       1 <0>        -0.3009
      8 C7         -0.5661    5.4454   -6.6997 C.3       1 <0>         0.2124
      9 O2         -1.1859    5.8088   -5.4518 O.3       1 <0>        -0.3010
     10 C8         -0.7579    3.0696   -1.1464 C.3       1 <0>        -0.0897
     11 C9         -0.7955    1.5269   -1.1198 C.3       1 <0>         0.0279
     12 C10        -0.1387    1.1517   -2.4651 C.3       1 <0>        -0.0866
     13 H1         -0.0402    1.5850   -5.3416 H         1 <0>         0.1425
     14 H2         -1.3118    5.5045   -2.6414 H         1 <0>         0.1424
     15 H3          0.4632    5.8024   -6.7343 H         1 <0>         0.0945
     16 H4         -1.1376    5.8393   -7.5402 H         1 <0>         0.1426
     17 H5         -1.6426    3.4780   -0.6578 H         1 <0>         0.1102
     18 H6          0.1456    3.4344   -0.6578 H         1 <0>         0.1035
     19 H7         -1.8227    1.1650   -1.0758 H         1 <0>         0.1586
     20 H8          0.9326    0.9996   -2.3336 H         1 <0>         0.1034
     21 H9         -0.6015    0.2537   -2.8745 H         1 <0>         0.1106
     22 H10         0.0021   -0.0041    0.0020 H         1 <0>         0.4424
     23 H11         0.9253    1.3792    0.0006 H         1 <0>         0.4368
     24 N1         -0.0252    1.0139    0.0269 N.4       1 <0>        -0.6400
     25 H12        -0.4761    1.3157    0.8986 H         1 <0>         0.4447
@<TRIPOS>BOND
     1    1    6 ar
     2    1    2 ar
     3    1   13 1
     4    2   12 1
     5    2    3 ar
     6    3    4 ar
     7    3   10 1
     8    4    5 ar
     9    4   14 1
    10    5    9 1
    11    5    6 ar
    12    6    7 1
    13    7    8 1
    14    8    9 1
    15    8   15 1
    16    8   16 1
    17   10   11 1
    18   10   17 1
    19   10   18 1
    20   11   12 1
    21   11   19 1
    22   11   24 1
    23   12   20 1
    24   12   21 1
    25   22   24 1
    26   23   24 1
    27   24   25 1
