@<TRIPOS>MOLECULE
ZINC03831531
   50    52     0     0     0
SMALL
USER_CHARGES

@<TRIPOS>ATOM
      1 C1          2.7141   -2.0171    1.0973 C.3       1 <0>        -0.1034
      2 C2          1.3593   -1.9564    0.4401 C.2       1 <0>        -0.0875
      3 C3          1.1444   -2.5551   -0.7816 C.2       1 <0>        -0.1542
      4 C4         -0.0885   -2.4823   -1.3464 C.2       1 <0>        -0.1580
      5 S1         -1.0004   -1.5412   -0.1341 S.3       1 <0>         0.0388
      6 C5          0.3166   -1.3097    1.0489 C.2       1 <0>        -0.1285
      7 C6          0.2892   -0.6031    2.3465 C.2       1 <0>         0.0736
      8 C7          0.3824    0.7377    2.3840 C.2       1 <0>        -0.1329
      9 C8          0.3918    1.5285    1.1012 C.3       1 <0>        -0.1183
     10 C9         -0.7567    2.5393    1.1168 C.3       1 <0>        -0.0062
     11 N1         -0.7759    3.2784   -0.1526 N.4       1 <0>        -0.3809
     12 C10        -1.1324    2.3641   -1.2441 C.3       1 <0>        -0.0090
     13 C11        -1.0748    3.1101   -2.5788 C.3       1 <0>        -0.1441
     14 C12        -2.0632    4.2794   -2.5469 C.3       1 <0>        -0.1090
     15 C13        -1.7272    5.1867   -1.3599 C.3       1 <0>        -0.1782
     16 H1         -0.7321    5.6102   -1.4957 H         1 <0>         0.0846
     17 C14        -1.7606    4.3637   -0.0703 C.3       1 <0>         0.0160
     18 C15        -2.7401    6.2993   -1.2743 C.2       1 <0>         0.4994
     19 O1         -3.6471    6.3617   -2.0867 O.co2     1 <0>        -0.6676
     20 O2         -2.6527    7.1369   -0.3926 O.co2     1 <0>        -0.6815
     21 C16         0.1594   -1.3702    3.6029 C.2       1 <0>        -0.1394
     22 C17        -0.0698   -2.7093    3.7768 C.2       1 <0>        -0.0862
     23 C18        -0.1525   -3.2058    5.0590 C.2       1 <0>        -0.1590
     24 C19        -0.0050   -2.3564    6.1082 C.2       1 <0>        -0.1569
     25 S2          0.2683   -0.7939    5.2892 S.3       1 <0>         0.0613
     26 C20        -0.2290   -3.6219    2.5881 C.3       1 <0>        -0.1114
     27 H2          2.7419   -2.8533    1.7959 H         1 <0>         0.0729
     28 H3          3.4816   -2.1543    0.3356 H         1 <0>         0.0689
     29 H4          2.8987   -1.0875    1.6358 H         1 <0>         0.0676
     30 H5          1.9462   -3.0755   -1.2842 H         1 <0>         0.1399
     31 H6         -0.4294   -2.8888   -2.2871 H         1 <0>         0.1906
     32 H7          0.4506    1.2479    3.3334 H         1 <0>         0.1362
     33 H8          1.3401    2.0576    1.0074 H         1 <0>         0.1002
     34 H9          0.2683    0.8514    0.2560 H         1 <0>         0.0944
     35 H10        -1.7025    2.0127    1.2449 H         1 <0>         0.1279
     36 H11        -0.6150    3.2375    1.9417 H         1 <0>         0.1334
     37 H12        -0.4300    1.5308   -1.2635 H         1 <0>         0.1200
     38 H13        -2.1414    1.9839   -1.0841 H         1 <0>         0.1254
     39 H14        -0.0661    3.4905   -2.7400 H         1 <0>         0.0798
     40 H15        -1.3416    2.4300   -3.3878 H         1 <0>         0.1031
     41 H16        -1.9855    4.8478   -3.4737 H         1 <0>         0.0880
     42 H17        -3.0777    3.8962   -2.4370 H         1 <0>         0.0796
     43 H18        -2.7562    3.9410    0.0647 H         1 <0>         0.1211
     44 H19        -1.5220    5.0068    0.7769 H         1 <0>         0.1319
     45 H20        -0.3328   -4.2572    5.2277 H         1 <0>         0.1384
     46 H21        -0.0401   -2.5715    7.1660 H         1 <0>         0.1910
     47 H22         0.7545   -3.9162    2.2218 H         1 <0>         0.0708
     48 H23        -0.7872   -4.5100    2.8841 H         1 <0>         0.0649
     49 H24        -0.7694   -3.0994    1.7987 H         1 <0>         0.0750
     50 H25         0.1384    3.6677   -0.3277 H         1 <0>         0.4177
@<TRIPOS>BOND
     1    1    2 1
     2    1   27 1
     3    1   28 1
     4    1   29 1
     5    2    6 2
     6    2    3 1
     7    3    4 2
     8    3   30 1
     9    4    5 1
    10    4   31 1
    11    5    6 1
    12    6    7 1
    13    7    8 2
    14    7   21 1
    15    8    9 1
    16    8   32 1
    17    9   10 1
    18    9   33 1
    19    9   34 1
    20   10   11 1
    21   10   35 1
    22   10   36 1
    23   11   17 1
    24   11   12 1
    25   11   50 1
    26   12   13 1
    27   12   37 1
    28   12   38 1
    29   13   14 1
    30   13   39 1
    31   13   40 1
    32   14   15 1
    33   14   41 1
    34   14   42 1
    35   15   16 1
    36   15   17 1
    37   15   18 1
    38   17   43 1
    39   17   44 1
    40   18   19 2
    41   18   20 1
    42   21   25 1
    43   21   22 2
    44   22   23 1
    45   22   26 1
    46   23   24 2
    47   23   45 1
    48   24   25 1
    49   24   46 1
    50   26   47 1
    51   26   48 1
    52   26   49 1
@<TRIPOS>MOLECULE
ZINC02141051
   20    20     0     0     0
SMALL
USER_CHARGES

@<TRIPOS>ATOM
      1 C1         -0.0187    1.5260    0.0104 C.3       1 <0>        -0.1468
      2 C2          1.4200    2.0506   -0.0005 C.3       1 <0>        -0.1123
      3 C3          2.1493    1.4868   -1.2234 C.3       1 <0>        -0.1812
      4 H1          1.6682    1.8477   -2.1325 H         1 <0>         0.0858
      5 C4          2.0897   -0.0418   -1.1861 C.3       1 <0>         0.0139
      6 N1          0.6893   -0.4811   -1.2041 N.4       1 <0>        -0.5048
      7 C5          0.0021   -0.0041    0.0020 C.3       1 <0>        -0.0046
      8 C6          3.5877    1.9359   -1.2029 C.2       1 <0>         0.4995
      9 O1          4.4528    1.2333   -1.6973 O.co2     1 <0>        -0.6849
     10 O2          3.8863    3.0018   -0.6918 O.co2     1 <0>        -0.6670
     11 H2         -0.5277    1.8781    0.9076 H         1 <0>         0.1033
     12 H3         -0.5447    1.8877   -0.8730 H         1 <0>         0.0813
     13 H4          1.4106    3.1394   -0.0516 H         1 <0>         0.0939
     14 H5          1.9312    1.7317    0.9078 H         1 <0>         0.0734
     15 H6          2.6082   -0.4465   -2.0553 H         1 <0>         0.1361
     16 H7          2.5712   -0.4016   -0.2768 H         1 <0>         0.1230
     17 H8          0.2309   -0.1067   -2.0214 H         1 <0>         0.4219
     18 H9          0.5281   -0.3647    0.8860 H         1 <0>         0.1250
     19 H10        -1.0207   -0.3809    0.0100 H         1 <0>         0.1229
     20 H11         0.6543   -1.4890   -1.2335 H         1 <0>         0.4217
@<TRIPOS>BOND
     1    1    7 1
     2    1    2 1
     3    1   11 1
     4    1   12 1
     5    2    3 1
     6    2   13 1
     7    2   14 1
     8    3    4 1
     9    3    5 1
    10    3    8 1
    11    5    6 1
    12    5   15 1
    13    5   16 1
    14    6    7 1
    15    6   17 1
    16    6   20 1
    17    7   18 1
    18    7   19 1
    19    8    9 2
    20    8   10 1
@<TRIPOS>MOLECULE
ZINC03861497
   20    20     0     0     0
SMALL
USER_CHARGES

@<TRIPOS>ATOM
      1 C1         -0.0187    1.5260    0.0104 C.3       1 <0>        -0.1459
      2 C2          1.4200    2.0506   -0.0005 C.3       1 <0>        -0.1164
      3 C3          2.1724    1.4738    1.2021 C.3       1 <0>        -0.1802
      4 H1          1.7089    1.8249    2.1241 H         1 <0>         0.0839
      5 C4          2.1120   -0.0543    1.1496 C.3       1 <0>         0.0113
      6 N1          0.7121   -0.4939    1.1896 N.4       1 <0>        -0.5032
      7 C5          0.0021   -0.0041    0.0020 C.3       1 <0>        -0.0035
      8 C6          3.6102    1.9232    1.1590 C.2       1 <0>         0.4976
      9 O1          4.1792    2.2459    2.1879 O.co2     1 <0>        -0.6743
     10 O2          4.2045    1.9641    0.0952 O.co2     1 <0>        -0.6733
     11 H2         -0.5277    1.8781    0.9076 H         1 <0>         0.0808
     12 H3         -0.5447    1.8877   -0.8730 H         1 <0>         0.1036
     13 H4          1.9137    1.7415   -0.9218 H         1 <0>         0.0863
     14 H5          1.4117    3.1387    0.0625 H         1 <0>         0.0829
     15 H6          2.5760   -0.4043    0.2275 H         1 <0>         0.1289
     16 H7          2.6469   -0.4683    2.0043 H         1 <0>         0.1272
     17 H8          0.6777   -1.5021    1.2088 H         1 <0>         0.4216
     18 H9         -1.0207   -0.3809    0.0096 H         1 <0>         0.1234
     19 H10         0.5111   -0.3552   -0.8956 H         1 <0>         0.1266
     20 H11         0.2695   -0.1284    2.0194 H         1 <0>         0.4227
@<TRIPOS>BOND
     1    1    7 1
     2    1    2 1
     3    1   11 1
     4    1   12 1
     5    2    3 1
     6    2   13 1
     7    2   14 1
     8    3    4 1
     9    3    5 1
    10    3    8 1
    11    5    6 1
    12    5   15 1
    13    5   16 1
    14    6    7 1
    15    6   17 1
    16    6   20 1
    17    7   18 1
    18    7   19 1
    19    8    9 2
    20    8   10 1
@<TRIPOS>MOLECULE
ZINC02379523
   50    52     0     0     0
SMALL
USER_CHARGES

@<TRIPOS>ATOM
      1 C1         -0.0167    1.3791    0.0096 C.ar      1 <0>        -0.1129
      2 C2          1.1686    2.0923    0.0021 C.ar      1 <0>        -0.1188
      3 C3          2.3774    1.4266   -0.0135 C.ar      1 <0>        -0.1116
      4 C4          2.4024    0.0329   -0.0212 C.ar      1 <0>        -0.0580
      5 C5          1.2049   -0.6804   -0.0131 C.ar      1 <0>        -0.1009
      6 C6          0.0021   -0.0041    0.0020 C.ar      1 <0>        -0.1150
      7 C7          3.6982   -0.6881   -0.0385 C.2       1 <0>        -0.0169
      8 C8          4.5318   -0.5911    1.0039 C.2       1 <0>        -0.1462
      9 C9          4.1539    0.2509    2.1952 C.3       1 <0>        -0.1193
     10 C10         4.2253   -0.6003    3.4646 C.3       1 <0>        -0.0044
     11 N1          3.8569    0.2205    4.6259 N.4       1 <0>        -0.3838
     12 C11         4.8510    1.2853    4.8058 C.3       1 <0>        -0.0079
     13 C12         4.4291    2.1918    5.9642 C.3       1 <0>        -0.1425
     14 C13         4.3317    1.3603    7.2465 C.3       1 <0>        -0.1138
     15 C14         3.3476    0.2084    7.0227 C.3       1 <0>        -0.1787
     16 H1          2.3545    0.6115    6.8244 H         1 <0>         0.0843
     17 C15         3.8096   -0.6245    5.8251 C.3       1 <0>         0.0195
     18 C16         3.3015   -0.6603    8.2533 C.2       1 <0>         0.5026
     19 O1          2.9596   -0.1848    9.3227 O.co2     1 <0>        -0.6689
     20 O2          3.6062   -1.8385    8.1795 O.co2     1 <0>        -0.6855
     21 C17         4.0701   -1.5166   -1.2108 C.ar      1 <0>        -0.0588
     22 C18         4.2877   -0.9173   -2.4503 C.ar      1 <0>        -0.1000
     23 C19         4.6341   -1.6932   -3.5376 C.ar      1 <0>        -0.1178
     24 C20         4.7650   -3.0634   -3.3993 C.ar      1 <0>        -0.1126
     25 C21         4.5499   -3.6637   -2.1718 C.ar      1 <0>        -0.1180
     26 C22         4.2091   -2.8970   -1.0760 C.ar      1 <0>        -0.1048
     27 H2         -0.9603    1.9042    0.0260 H         1 <0>         0.1253
     28 H3          1.1480    3.1720    0.0082 H         1 <0>         0.1259
     29 H4          3.3022    1.9844   -0.0200 H         1 <0>         0.1229
     30 H5          1.2184   -1.7603   -0.0194 H         1 <0>         0.1238
     31 H6         -0.9264   -0.5557    0.0079 H         1 <0>         0.1267
     32 H7          5.4755   -1.1162    0.9913 H         1 <0>         0.1299
     33 H8          4.8444    1.0899    2.2810 H         1 <0>         0.0951
     34 H9          3.1390    0.6273    2.0668 H         1 <0>         0.0949
     35 H10         3.5348   -1.4392    3.3788 H         1 <0>         0.1285
     36 H11         5.2402   -0.9767    3.5930 H         1 <0>         0.1280
     37 H12         5.8218    0.8418    5.0270 H         1 <0>         0.1246
     38 H13         4.9215    1.8742    3.8913 H         1 <0>         0.1218
     39 H14         5.1694    2.9807    6.0973 H         1 <0>         0.1039
     40 H15         3.4585    2.6360    5.7438 H         1 <0>         0.0817
     41 H16         5.3136    0.9576    7.4953 H         1 <0>         0.0730
     42 H17         3.9769    1.9894    8.0628 H         1 <0>         0.0931
     43 H18         3.1112   -1.4456    5.6632 H         1 <0>         0.1271
     44 H19         4.8026   -1.0273    6.0247 H         1 <0>         0.1270
     45 H20         4.1851    0.1523   -2.5596 H         1 <0>         0.1217
     46 H21         4.8029   -1.2300   -4.4985 H         1 <0>         0.1255
     47 H22         5.0359   -3.6668   -4.2531 H         1 <0>         0.1248
     48 H23         4.6531   -4.7339   -2.0697 H         1 <0>         0.1263
     49 H24         4.0457   -3.3662   -0.1171 H         1 <0>         0.1235
     50 H25         2.9494    0.6332    4.4704 H         1 <0>         0.4160
@<TRIPOS>BOND
     1    1    6 ar
     2    1    2 ar
     3    1   27 1
     4    2    3 ar
     5    2   28 1
     6    3    4 ar
     7    3   29 1
     8    4    5 ar
     9    4    7 1
    10    5    6 ar
    11    5   30 1
    12    6   31 1
    13    7    8 2
    14    7   21 1
    15    8    9 1
    16    8   32 1
    17    9   10 1
    18    9   33 1
    19    9   34 1
    20   10   11 1
    21   10   35 1
    22   10   36 1
    23   11   17 1
    24   11   12 1
    25   11   50 1
    26   12   13 1
    27   12   37 1
    28   12   38 1
    29   13   14 1
    30   13   39 1
    31   13   40 1
    32   14   15 1
    33   14   41 1
    34   14   42 1
    35   15   16 1
    36   15   17 1
    37   15   18 1
    38   17   43 1
    39   17   44 1
    40   18   19 2
    41   18   20 1
    42   21   26 ar
    43   21   22 ar
    44   22   23 ar
    45   22   45 1
    46   23   24 ar
    47   23   46 1
    48   24   25 ar
    49   24   47 1
    50   25   26 ar
    51   25   48 1
    52   26   49 1
@<TRIPOS>MOLECULE
ZINC03995837
   50    52     0     0     0
SMALL
USER_CHARGES

@<TRIPOS>ATOM
      1 C1         -0.0167    1.3791    0.0096 C.ar      1 <0>        -0.1130
      2 C2          1.1686    2.0923    0.0021 C.ar      1 <0>        -0.1187
      3 C3          2.3774    1.4266   -0.0135 C.ar      1 <0>        -0.1122
      4 C4          2.4024    0.0329   -0.0212 C.ar      1 <0>        -0.0571
      5 C5          1.2049   -0.6804   -0.0131 C.ar      1 <0>        -0.1013
      6 C6          0.0021   -0.0041    0.0020 C.ar      1 <0>        -0.1151
      7 C7          3.6982   -0.6881   -0.0385 C.2       1 <0>        -0.0182
      8 C8          4.5318   -0.5911    1.0039 C.2       1 <0>        -0.1452
      9 C9          4.1539    0.2509    2.1952 C.3       1 <0>        -0.1201
     10 C10         4.2253   -0.6003    3.4646 C.3       1 <0>        -0.0056
     11 N1          3.8569    0.2205    4.6259 N.4       1 <0>        -0.3814
     12 C11         2.4541    0.6352    4.5048 C.3       1 <0>        -0.0072
     13 C12         2.0883    1.5568    5.6702 C.3       1 <0>        -0.1445
     14 C13         2.2882    0.8060    6.9899 C.3       1 <0>        -0.1091
     15 C14         3.7360    0.3138    7.0715 C.3       1 <0>        -0.1785
     16 H1          4.4112    1.1694    7.0826 H         1 <0>         0.0845
     17 C15         4.0408   -0.5618    5.8542 C.3       1 <0>         0.0163
     18 C16         3.9235   -0.4916    8.3314 C.2       1 <0>         0.4992
     19 O1          2.9867   -0.6572    9.0940 O.co2     1 <0>        -0.6676
     20 O2          5.0118   -0.9774    8.5881 O.co2     1 <0>        -0.6815
     21 C17         4.0701   -1.5166   -1.2108 C.ar      1 <0>        -0.0588
     22 C18         4.2877   -0.9173   -2.4503 C.ar      1 <0>        -0.0999
     23 C19         4.6341   -1.6932   -3.5376 C.ar      1 <0>        -0.1176
     24 C20         4.7650   -3.0634   -3.3993 C.ar      1 <0>        -0.1125
     25 C21         4.5499   -3.6637   -2.1718 C.ar      1 <0>        -0.1180
     26 C22         4.2091   -2.8970   -1.0760 C.ar      1 <0>        -0.1050
     27 H2         -0.9603    1.9042    0.0260 H         1 <0>         0.1253
     28 H3          1.1480    3.1720    0.0082 H         1 <0>         0.1261
     29 H4          3.3022    1.9844   -0.0200 H         1 <0>         0.1233
     30 H5          1.2184   -1.7603   -0.0194 H         1 <0>         0.1235
     31 H6         -0.9264   -0.5557    0.0079 H         1 <0>         0.1265
     32 H7          5.4755   -1.1162    0.9913 H         1 <0>         0.1303
     33 H8          4.8444    1.0899    2.2810 H         1 <0>         0.0951
     34 H9          3.1390    0.6273    2.0668 H         1 <0>         0.0964
     35 H10         3.5348   -1.4392    3.3788 H         1 <0>         0.1264
     36 H11         5.2402   -0.9767    3.5930 H         1 <0>         0.1304
     37 H12         2.3127    1.1666    3.5637 H         1 <0>         0.1209
     38 H13         1.8124   -0.2457    4.5236 H         1 <0>         0.1235
     39 H14         2.7293    2.4382    5.6522 H         1 <0>         0.0797
     40 H15         1.0459    1.8622    5.5795 H         1 <0>         0.1029
     41 H16         2.0832    1.4758    7.8250 H         1 <0>         0.0879
     42 H17         1.6105   -0.0468    7.0303 H         1 <0>         0.0793
     43 H18         3.3652   -1.4172    5.8442 H         1 <0>         0.1204
     44 H19         5.0708   -0.9141    5.9093 H         1 <0>         0.1312
     45 H20         4.1851    0.1523   -2.5596 H         1 <0>         0.1218
     46 H21         4.8029   -1.2300   -4.4985 H         1 <0>         0.1257
     47 H22         5.0359   -3.6668   -4.2531 H         1 <0>         0.1249
     48 H23         4.6531   -4.7339   -2.0697 H         1 <0>         0.1263
     49 H24         4.0457   -3.3662   -0.1171 H         1 <0>         0.1231
     50 H25         4.4459    1.0391    4.6584 H         1 <0>         0.4174
@<TRIPOS>BOND
     1    1    6 ar
     2    1    2 ar
     3    1   27 1
     4    2    3 ar
     5    2   28 1
     6    3    4 ar
     7    3   29 1
     8    4    5 ar
     9    4    7 1
    10    5    6 ar
    11    5   30 1
    12    6   31 1
    13    7    8 2
    14    7   21 1
    15    8    9 1
    16    8   32 1
    17    9   10 1
    18    9   33 1
    19    9   34 1
    20   10   11 1
    21   10   35 1
    22   10   36 1
    23   11   17 1
    24   11   12 1
    25   11   50 1
    26   12   13 1
    27   12   37 1
    28   12   38 1
    29   13   14 1
    30   13   39 1
    31   13   40 1
    32   14   15 1
    33   14   41 1
    34   14   42 1
    35   15   16 1
    36   15   17 1
    37   15   18 1
    38   17   43 1
    39   17   44 1
    40   18   19 2
    41   18   20 1
    42   21   26 ar
    43   21   22 ar
    44   22   23 ar
    45   22   45 1
    46   23   24 ar
    47   23   46 1
    48   24   25 ar
    49   24   47 1
    50   25   26 ar
    51   25   48 1
    52   26   49 1
@<TRIPOS>MOLECULE
ZINC03643214
   54    56     0     0     0
SMALL
USER_CHARGES

@<TRIPOS>ATOM
      1 C1         -0.0167    1.3781    0.0096 C.ar      1 <0>        -0.1017
      2 C2          1.1709    2.0855    0.0021 C.ar      1 <0>        -0.0645
      3 C3          2.3773    1.4107   -0.0130 C.ar      1 <0>        -0.1703
      4 C4          2.3960    0.0285   -0.0201 C.ar      1 <0>        -0.0707
      5 C5          1.2085   -0.6789   -0.0117 C.ar      1 <0>        -0.0938
      6 C6          0.0021   -0.0041    0.0020 C.ar      1 <0>        -0.0639
      7 C7         -1.2926   -0.7753    0.0102 C.3       1 <0>         0.1786
      8 C8         -1.6113   -1.2368   -1.3886 C.ar      1 <0>        -0.0875
      9 C9         -1.0717   -2.4161   -1.8670 C.ar      1 <0>        -0.0947
     10 C10        -1.3640   -2.8395   -3.1501 C.ar      1 <0>        -0.0705
     11 C11        -2.1962   -2.0837   -3.9545 C.ar      1 <0>        -0.1727
     12 C12        -2.7364   -0.9048   -3.4758 C.ar      1 <0>        -0.0664
     13 C13        -2.4476   -0.4836   -2.1912 C.ar      1 <0>        -0.1050
     14 C14        -2.5140   -2.5447   -5.3536 C.3       1 <0>         0.5063
     15 F1         -3.6566   -3.3517   -5.3305 F         1 <0>        -0.1749
     16 F2         -2.7452   -1.4323   -6.1699 F         1 <0>        -0.1744
     17 F3         -1.4353   -3.2781   -5.8593 F         1 <0>        -0.1752
     18 O1         -1.1655   -1.9103    0.8689 O.3       1 <0>        -0.3803
     19 C15        -2.3895   -2.3104    1.4885 C.3       1 <0>         0.0247
     20 C16        -2.1358   -3.5276    2.3801 C.3       1 <0>         0.0018
     21 N1         -1.2465   -3.1478    3.4859 N.4       1 <0>        -0.3866
     22 C17        -0.9141   -4.3397    4.2819 C.3       1 <0>        -0.0032
     23 C18         0.2097   -3.9789    5.2567 C.3       1 <0>        -0.1160
     24 C19        -0.1487   -2.7176    5.9937 C.2       1 <0>        -0.1301
     25 C20        -1.1075   -1.9060    5.5794 C.2       1 <0>        -0.2033
     26 C21        -1.9234   -2.1712    4.3471 C.3       1 <0>         0.0503
     27 C22        -1.3858   -0.6940    6.3578 C.2       1 <0>         0.5175
     28 O2         -0.7367   -0.4522    7.3667 O.co2     1 <0>        -0.6645
     29 O3         -2.2671    0.0751    5.9983 O.co2     1 <0>        -0.6817
     30 C23         3.6720    2.1819   -0.0222 C.3       1 <0>         0.5062
     31 F4          4.0857    2.4144    1.2938 F         1 <0>        -0.1723
     32 F5          4.6506    1.4423   -0.6949 F         1 <0>        -0.1759
     33 F6          3.4816    3.4050   -0.6742 F         1 <0>        -0.1748
     34 H1         -0.9591    1.9053    0.0259 H         1 <0>         0.1394
     35 H2          1.1563    3.1654    0.0076 H         1 <0>         0.1430
     36 H3          3.3385   -0.4987   -0.0326 H         1 <0>         0.1398
     37 H4          1.2231   -1.7588   -0.0179 H         1 <0>         0.1370
     38 H5         -2.0956   -0.1334    0.3728 H         1 <0>         0.0976
     39 H6         -0.4215   -3.0066   -1.2385 H         1 <0>         0.1386
     40 H7         -0.9419   -3.7605   -3.5241 H         1 <0>         0.1392
     41 H8         -3.3863   -0.3141   -4.1044 H         1 <0>         0.1412
     42 H9         -2.8727    0.4355   -1.8159 H         1 <0>         0.1387
     43 H10        -2.7751   -1.4903    2.0943 H         1 <0>         0.0864
     44 H11        -3.1183   -2.5684    0.7201 H         1 <0>         0.0981
     45 H12        -3.0829   -3.8869    2.7825 H         1 <0>         0.1426
     46 H13        -1.6678   -4.3173    1.7923 H         1 <0>         0.1356
     47 H14        -1.7926   -4.6636    4.8400 H         1 <0>         0.1279
     48 H15        -0.5820   -5.1402    3.6208 H         1 <0>         0.1278
     49 H16         0.3452   -4.7908    5.9712 H         1 <0>         0.1168
     50 H17         1.1356   -3.8250    4.7025 H         1 <0>         0.0971
     51 H18         0.3953   -2.4662    6.8922 H         1 <0>         0.1456
     52 H19        -2.0601   -1.2397    3.7977 H         1 <0>         0.1387
     53 H20        -2.8988   -2.5616    4.6375 H         1 <0>         0.1303
     54 H21        -0.4008   -2.7415    3.1147 H         1 <0>         0.4282
@<TRIPOS>BOND
     1    1    6 ar
     2    1    2 ar
     3    1   34 1
     4    2    3 ar
     5    2   35 1
     6    3    4 ar
     7    3   30 1
     8    4    5 ar
     9    4   36 1
    10    5    6 ar
    11    5   37 1
    12    6    7 1
    13    7    8 1
    14    7   18 1
    15    7   38 1
    16    8   13 ar
    17    8    9 ar
    18    9   10 ar
    19    9   39 1
    20   10   11 ar
    21   10   40 1
    22   11   12 ar
    23   11   14 1
    24   12   13 ar
    25   12   41 1
    26   13   42 1
    27   14   15 1
    28   14   16 1
    29   14   17 1
    30   18   19 1
    31   19   20 1
    32   19   43 1
    33   19   44 1
    34   20   21 1
    35   20   45 1
    36   20   46 1
    37   21   26 1
    38   21   22 1
    39   21   54 1
    40   22   23 1
    41   22   47 1
    42   22   48 1
    43   23   24 1
    44   23   49 1
    45   23   50 1
    46   24   25 2
    47   24   51 1
    48   25   26 1
    49   25   27 1
    50   26   52 1
    51   26   53 1
    52   27   28 2
    53   27   29 1
    54   30   31 1
    55   30   32 1
    56   30   33 1
@<TRIPOS>MOLECULE
ZINC01532620
   16    15     0     0     0
SMALL
USER_CHARGES

@<TRIPOS>ATOM
      1 C1         -0.0187    1.5258    0.0104 C.3       1 <0>        -0.1250
      2 C2          0.0021   -0.0041    0.0020 C.3       1 <0>        -0.1856
      3 C3         -1.4117   -0.5257    0.0127 C.2       1 <0>         0.4870
      4 O1         -2.3491    0.2539    0.0259 O.co2     1 <0>        -0.6970
      5 O2         -1.6182   -1.7273    0.0082 O.co2     1 <0>        -0.6862
      6 C4          1.4167    2.0553   -0.0004 C.3       1 <0>        -0.0130
      7 N1          1.3968    3.5242    0.0076 N.4       1 <0>        -0.6362
      8 H1         -0.5459    1.8868   -0.8726 H         1 <0>         0.0846
      9 H2         -0.5289    1.8773    0.9072 H         1 <0>         0.0846
     10 H3          0.5123   -0.3556   -0.8948 H         1 <0>         0.0679
     11 H4          0.5293   -0.3651    0.8851 H         1 <0>         0.0679
     12 H5          1.9439    1.6943    0.8826 H         1 <0>         0.1275
     13 H6          1.9269    1.7038   -0.8972 H         1 <0>         0.1275
     14 H7          2.3434    3.8734    0.0005 H         1 <0>         0.4293
     15 H8          0.9088    3.8584   -0.8098 H         1 <0>         0.4334
     16 H9          0.9245    3.8496    0.8378 H         1 <0>         0.4334
@<TRIPOS>BOND
     1    1    2 1
     2    1    6 1
     3    1    8 1
     4    1    9 1
     5    2    3 1
     6    2   10 1
     7    2   11 1
     8    3    4 2
     9    3    5 1
    10    6    7 1
    11    6   12 1
    12    6   13 1
    13    7   14 1
    14    7   15 1
    15    7   16 1
