@<TRIPOS>MOLECULE
ZINC36349347
   65    65     0     0     0
SMALL
USER_CHARGES

@<TRIPOS>ATOM
      1 C1         -1.2645    1.2168   -0.4045 C.3       1 <0>        -0.1544
      2 C2         -0.9819   -0.2835   -0.3038 C.3       1 <0>        -0.1260
      3 C3         -0.2458   -0.7494   -1.5616 C.3       1 <0>        -0.1214
      4 C4          0.0367   -2.2497   -1.4609 C.3       1 <0>        -0.1210
      5 C5          0.7728   -2.7156   -2.7187 C.3       1 <0>        -0.1206
      6 C6          1.0554   -4.2159   -2.6180 C.3       1 <0>        -0.1205
      7 C7          1.7915   -4.6818   -3.8758 C.3       1 <0>        -0.1139
      8 C8          2.0741   -6.1821   -3.7751 C.3       1 <0>        -0.1018
      9 C9          2.7991   -6.6409   -5.0139 C.2       1 <0>        -0.1598
     10 C10         3.9217   -7.3076   -4.9068 C.2       1 <0>        -0.1601
     11 C11         4.4000   -7.7652   -3.5530 C.3       1 <0>        -0.1019
     12 C12         4.6611   -9.2723   -3.5869 C.3       1 <0>        -0.1142
     13 C13         5.1468   -9.7369   -2.2124 C.3       1 <0>        -0.1199
     14 C14         5.4079  -11.2441   -2.2464 C.3       1 <0>        -0.1205
     15 C15         5.8935  -11.7086   -0.8719 C.3       1 <0>        -0.1199
     16 C16         6.1546  -13.2158   -0.9058 C.3       1 <0>        -0.1059
     17 C17         6.6403  -13.6803    0.4687 C.3       1 <0>        -0.1393
     18 C18         6.8975  -15.1648    0.4353 C.2       1 <0>         0.5113
     19 O1          6.7107  -15.7898   -0.5873 O.2       1 <0>        -0.5181
     20 N1          7.3350  -15.7980    1.5417 N.am      1 <0>        -0.6778
     21 C19         7.4680  -17.1910    1.5442 C.ar      1 <0>         0.1400
     22 C20         7.1845  -17.9149    2.6948 C.ar      1 <0>        -0.1459
     23 C21         7.3168  -19.2897    2.6941 C.ar      1 <0>        -0.1024
     24 C22         7.7309  -19.9453    1.5492 C.ar      1 <0>        -0.1342
     25 C23         8.0144  -19.2273    0.4019 C.ar      1 <0>        -0.1027
     26 C24         7.8781  -17.8529    0.3943 C.ar      1 <0>        -0.1212
     27 H1         -0.3231    1.7585   -0.4962 H         1 <0>         0.0533
     28 H2         -1.8828    1.4121   -1.2807 H         1 <0>         0.0533
     29 H3         -1.7889    1.5487    0.4915 H         1 <0>         0.0534
     30 H4         -0.3636   -0.4788    0.5723 H         1 <0>         0.0602
     31 H5         -1.9233   -0.8252   -0.2122 H         1 <0>         0.0602
     32 H6         -0.8642   -0.5541   -2.4378 H         1 <0>         0.0606
     33 H7          0.6956   -0.2077   -1.6533 H         1 <0>         0.0606
     34 H8          0.6551   -2.4449   -0.5847 H         1 <0>         0.0605
     35 H9         -0.9047   -2.7914   -1.3692 H         1 <0>         0.0606
     36 H10         0.1545   -2.5203   -3.5948 H         1 <0>         0.0607
     37 H11         1.7142   -2.1739   -2.8104 H         1 <0>         0.0607
     38 H12         1.6737   -4.4111   -1.7418 H         1 <0>         0.0607
     39 H13         0.1140   -4.7576   -2.5263 H         1 <0>         0.0611
     40 H14         1.1732   -4.4865   -4.7519 H         1 <0>         0.0612
     41 H15         2.7329   -4.1401   -3.9674 H         1 <0>         0.0615
     42 H16         2.6924   -6.3773   -2.8989 H         1 <0>         0.0758
     43 H17         1.1326   -6.7237   -3.6834 H         1 <0>         0.0678
     44 H18         2.3932   -6.4202   -5.9901 H         1 <0>         0.1072
     45 H19         4.5043   -7.5293   -5.7887 H         1 <0>         0.1073
     46 H20         5.3218   -7.2424   -3.2975 H         1 <0>         0.0675
     47 H21         3.6383   -7.5451   -2.8050 H         1 <0>         0.0758
     48 H22         3.7394   -9.7951   -3.8423 H         1 <0>         0.0619
     49 H23         5.4228   -9.4924   -4.3349 H         1 <0>         0.0616
     50 H24         6.0685   -9.2141   -1.9570 H         1 <0>         0.0613
     51 H25         4.3851   -9.5168   -1.4645 H         1 <0>         0.0610
     52 H26         4.4861  -11.7668   -2.5018 H         1 <0>         0.0625
     53 H27         6.1696  -11.4641   -2.9943 H         1 <0>         0.0626
     54 H28         6.8153  -11.1858   -0.6164 H         1 <0>         0.0627
     55 H29         5.1318  -11.4886   -0.1239 H         1 <0>         0.0626
     56 H30         5.2329  -13.7385   -1.1612 H         1 <0>         0.0707
     57 H31         6.9164  -13.4358   -1.6538 H         1 <0>         0.0708
     58 H32         7.5620  -13.1575    0.7241 H         1 <0>         0.0970
     59 H33         5.8786  -13.4603    1.2167 H         1 <0>         0.0973
     60 H34         7.5578  -15.2881    2.3362 H         1 <0>         0.4113
     61 H35         6.8614  -17.4034    3.5895 H         1 <0>         0.1247
     62 H36         7.0968  -19.8533    3.5887 H         1 <0>         0.1264
     63 H37         7.8335  -21.0204    1.5511 H         1 <0>         0.1237
     64 H38         8.3379  -19.7422   -0.4906 H         1 <0>         0.1258
     65 H39         8.0947  -17.2931   -0.5035 H         1 <0>         0.1382
@<TRIPOS>BOND
     1    1    2 1
     2    1   27 1
     3    1   28 1
     4    1   29 1
     5    2    3 1
     6    2   30 1
     7    2   31 1
     8    3    4 1
     9    3   32 1
    10    3   33 1
    11    4    5 1
    12    4   34 1
    13    4   35 1
    14    5    6 1
    15    5   36 1
    16    5   37 1
    17    6    7 1
    18    6   38 1
    19    6   39 1
    20    7    8 1
    21    7   40 1
    22    7   41 1
    23    8    9 1
    24    8   42 1
    25    8   43 1
    26    9   10 2
    27    9   44 1
    28   10   11 1
    29   10   45 1
    30   11   12 1
    31   11   46 1
    32   11   47 1
    33   12   13 1
    34   12   48 1
    35   12   49 1
    36   13   14 1
    37   13   50 1
    38   13   51 1
    39   14   15 1
    40   14   52 1
    41   14   53 1
    42   15   16 1
    43   15   54 1
    44   15   55 1
    45   16   17 1
    46   16   56 1
    47   16   57 1
    48   17   18 1
    49   17   58 1
    50   17   59 1
    51   18   19 2
    52   18   20 am
    53   20   21 1
    54   20   60 1
    55   21   26 ar
    56   21   22 ar
    57   22   23 ar
    58   22   61 1
    59   23   24 ar
    60   23   62 1
    61   24   25 ar
    62   24   63 1
    63   25   26 ar
    64   25   64 1
    65   26   65 1
@<TRIPOS>MOLECULE
ZINC01533679
   67    68     0     0     0
SMALL
USER_CHARGES
(2,6-diisopropylphenyl) (2,6-diisopropylphenoxy)sulfonylaminoformate
@<TRIPOS>ATOM
      1 C1         -3.2251   -0.3014    8.1219 C.3       1 <0>        -0.1501
      2 C2         -2.7553   -1.7115    7.7591 C.3       1 <0>        -0.0702
      3 C3         -2.0278   -2.3301    8.9545 C.3       1 <0>        -0.1437
      4 C4         -3.9472   -2.5616    7.4016 C.ar      1 <0>        -0.0601
      5 C5         -4.9979   -2.6875    8.2897 C.ar      1 <0>        -0.1101
      6 C6         -6.0893   -3.4715    7.9645 C.ar      1 <0>        -0.0985
      7 C7         -6.1342   -4.1278    6.7484 C.ar      1 <0>        -0.1098
      8 C8         -5.0880   -4.0017    5.8551 C.ar      1 <0>        -0.0619
      9 C9         -3.9920   -3.2153    6.1789 C.ar      1 <0>         0.0836
     10 O1         -2.9611   -3.0900    5.3017 O.3       1 <0>        -0.2810
     11 C10        -2.9871   -2.0267    4.4755 C.2       1 <0>         0.6578
     12 O2         -3.8440   -1.1754    4.6077 O.2       1 <0>        -0.4911
     13 N1         -2.0627   -1.9070    3.5021 N.am      1 <0>        -1.0433
     14 S1         -2.0207   -0.5435    2.5633 S.o2      1 <0>         2.7544
     15 O3         -3.3701   -0.1430    2.3682 O.2       1 <0>        -0.9023
     16 O4         -1.1448   -0.8231    1.4799 O.2       1 <0>        -0.9390
     17 O5         -1.3573    0.5504    3.3878 O.3       1 <0>        -0.6542
     18 C11        -0.0018    0.4636    3.4326 C.ar      1 <0>         0.0482
     19 C12         0.6184   -0.1868    4.4895 C.ar      1 <0>        -0.0662
     20 C13         1.9967   -0.2682    4.5357 C.ar      1 <0>        -0.1058
     21 C14         2.7577    0.2925    3.5267 C.ar      1 <0>        -0.0863
     22 C15         2.1419    0.9363    2.4694 C.ar      1 <0>        -0.1049
     23 C16         0.7639    1.0208    2.4187 C.ar      1 <0>        -0.0369
     24 C17         0.0933    1.7231    1.2662 C.3       1 <0>        -0.0611
     25 C18         0.4690    1.0270   -0.0434 C.3       1 <0>        -0.1520
     26 C19         0.5547    3.1811    1.2194 C.3       1 <0>        -0.1459
     27 C20        -0.2105   -0.7985    5.5893 C.3       1 <0>        -0.0701
     28 C21         0.1885   -2.2640    5.7737 C.3       1 <0>        -0.1547
     29 C22         0.0306   -0.0363    6.8938 C.3       1 <0>        -0.1492
     30 C23        -5.1371   -4.7181    4.5302 C.3       1 <0>        -0.0626
     31 C24        -5.2393   -6.2259    4.7693 C.3       1 <0>        -0.1412
     32 C25        -6.3573   -4.2434    3.7386 C.3       1 <0>        -0.1485
     33 H1         -3.8310   -0.3419    9.0270 H         1 <0>         0.0604
     34 H2         -2.3586    0.3375    8.2930 H         1 <0>         0.0619
     35 H3         -3.8202    0.1050    7.3041 H         1 <0>         0.0620
     36 H4         -2.0768   -1.6606    6.9075 H         1 <0>         0.0826
     37 H5         -2.7063   -2.3810    9.8061 H         1 <0>         0.0608
     38 H6         -1.6931   -3.3347    8.6960 H         1 <0>         0.0583
     39 H7         -1.1657   -1.7152    9.2130 H         1 <0>         0.0626
     40 H8         -4.9651   -2.1757    9.2402 H         1 <0>         0.1319
     41 H9         -6.9081   -3.5716    8.6617 H         1 <0>         0.1310
     42 H10        -6.9877   -4.7399    6.4968 H         1 <0>         0.1325
     43 H11        -1.4220   -2.6195    3.3514 H         1 <0>         0.4390
     44 H12         2.4801   -0.7705    5.3606 H         1 <0>         0.1400
     45 H13         3.8351    0.2278    3.5647 H         1 <0>         0.1380
     46 H14         2.7385    1.3737    1.6826 H         1 <0>         0.1404
     47 H15        -0.9880    1.6882    1.3991 H         1 <0>         0.0612
     48 H16         0.1403   -0.0118   -0.0101 H         1 <0>         0.0863
     49 H17         1.5503    1.0618   -0.1763 H         1 <0>         0.0587
     50 H18        -0.0161    1.5349   -0.8770 H         1 <0>         0.0609
     51 H19         0.0696    3.6891    0.3858 H         1 <0>         0.0662
     52 H20         0.2871    3.6770    2.1524 H         1 <0>         0.0586
     53 H21         1.6360    3.2160    1.0865 H         1 <0>         0.0632
     54 H22        -1.2662   -0.7400    5.3241 H         1 <0>         0.0660
     55 H23         0.1348   -2.7787    4.8144 H         1 <0>         0.0559
     56 H24         1.2071   -2.3176    6.1582 H         1 <0>         0.0701
     57 H25        -0.4919   -2.7398    6.4799 H         1 <0>         0.0728
     58 H26        -0.3342    0.9857    6.7902 H         1 <0>         0.0613
     59 H27        -0.5005   -0.5309    7.7071 H         1 <0>         0.0718
     60 H28         1.0981   -0.0205    7.1135 H         1 <0>         0.0646
     61 H29        -4.2305   -4.5004    3.9656 H         1 <0>         0.0757
     62 H30        -6.1459   -6.4436    5.3339 H         1 <0>         0.0596
     63 H31        -5.2748   -6.7441    3.8110 H         1 <0>         0.0619
     64 H32        -4.3700   -6.5641    5.3332 H         1 <0>         0.0579
     65 H33        -6.2844   -3.1693    3.5683 H         1 <0>         0.0590
     66 H34        -6.3928   -4.7616    2.7803 H         1 <0>         0.0625
     67 H35        -7.2639   -4.4611    4.3032 H         1 <0>         0.0611
@<TRIPOS>BOND
     1    1    2 1
     2    1   33 1
     3    1   34 1
     4    1   35 1
     5    2    3 1
     6    2    4 1
     7    2   36 1
     8    3   37 1
     9    3   38 1
    10    3   39 1
    11    4    9 ar
    12    4    5 ar
    13    5    6 ar
    14    5   40 1
    15    6    7 ar
    16    6   41 1
    17    7    8 ar
    18    7   42 1
    19    8    9 ar
    20    8   30 1
    21    9   10 1
    22   10   11 1
    23   11   12 2
    24   11   13 am
    25   13   14 1
    26   13   43 1
    27   14   15 2
    28   14   16 2
    29   14   17 1
    30   17   18 1
    31   18   23 ar
    32   18   19 ar
    33   19   20 ar
    34   19   27 1
    35   20   21 ar
    36   20   44 1
    37   21   22 ar
    38   21   45 1
    39   22   23 ar
    40   22   46 1
    41   23   24 1
    42   24   25 1
    43   24   26 1
    44   24   47 1
    45   25   48 1
    46   25   49 1
    47   25   50 1
    48   26   51 1
    49   26   52 1
    50   26   53 1
    51   27   28 1
    52   27   29 1
    53   27   54 1
    54   28   55 1
    55   28   56 1
    56   28   57 1
    57   29   58 1
    58   29   59 1
    59   29   60 1
    60   30   31 1
    61   30   32 1
    62   30   61 1
    63   31   62 1
    64   31   63 1
    65   31   64 1
    66   32   65 1
    67   32   66 1
    68   32   67 1
@<TRIPOS>MOLECULE
ZINC36330844
   67    68     0     0     0
SMALL
USER_CHARGES

@<TRIPOS>ATOM
      1 C1         -0.0297    1.5392   -0.0459 C.3       1 <0>        -0.1544
      2 C2         -0.0109    0.0093   -0.0496 C.3       1 <0>        -0.1263
      3 C3          0.7145   -0.4888   -1.3012 C.3       1 <0>        -0.1207
      4 C4          0.7333   -2.0187   -1.3049 C.3       1 <0>        -0.1199
      5 C5          1.4587   -2.5168   -2.5565 C.3       1 <0>        -0.1177
      6 C6          1.4775   -4.0467   -2.5601 C.3       1 <0>        -0.1410
      7 C7          2.2030   -4.5448   -3.8118 C.3       1 <0>         0.1061
      8 N1          2.2210   -6.0097   -3.8153 N.am      1 <0>        -0.6143
      9 C8          1.1303   -6.7541   -4.4496 C.3       1 <0>         0.1725
     10 C9          1.4647   -6.9977   -5.8988 C.ar      1 <0>        -0.1165
     11 C10         1.0914   -6.0756   -6.8587 C.ar      1 <0>        -0.1043
     12 C11         1.3981   -6.2991   -8.1879 C.ar      1 <0>        -0.1200
     13 C12         2.0785   -7.4443   -8.5572 C.ar      1 <0>        -0.0668
     14 C13         2.4525   -8.3660   -7.5972 C.ar      1 <0>        -0.1188
     15 C14         2.1496   -8.1404   -6.2674 C.ar      1 <0>        -0.0907
     16 C15         2.4120   -7.6884  -10.0064 C.3       1 <0>        -0.0745
     17 C16         3.7798   -7.0811  -10.3242 C.3       1 <0>        -0.0625
     18 C17         4.8448   -7.7319   -9.4392 C.3       1 <0>        -0.1449
     19 C18         4.1184   -7.3289  -11.7956 C.3       1 <0>        -0.1428
     20 C19         3.7441   -5.5753  -10.0557 C.3       1 <0>        -0.1443
     21 C20         3.2410   -6.6725   -3.2349 C.2       1 <0>         0.7117
     22 O1          3.2559   -7.8883   -3.2378 O.2       1 <0>        -0.5667
     23 N2          4.2444   -5.9876   -2.6513 N.am      1 <0>        -0.6825
     24 C21         5.2569   -6.6747   -1.9671 C.ar      1 <0>         0.1261
     25 C22         5.6844   -7.9145   -2.4208 C.ar      1 <0>        -0.0647
     26 C23         6.6826   -8.5901   -1.7457 C.ar      1 <0>        -0.1413
     27 C24         7.2571   -8.0318   -0.6162 C.ar      1 <0>         0.1136
     28 C25         6.8329   -6.7953   -0.1602 C.ar      1 <0>        -0.1717
     29 C26         5.8382   -6.1124   -0.8363 C.ar      1 <0>         0.0997
     30 F1          5.4282   -4.9030   -0.3953 F         1 <0>        -0.1291
     31 F2          8.2328   -8.6951    0.0422 F         1 <0>        -0.1303
     32 H1          0.9934    1.9152   -0.0467 H         1 <0>         0.0535
     33 H2         -0.5494    1.8983   -0.9342 H         1 <0>         0.0534
     34 H3         -0.5465    1.8941    0.8458 H         1 <0>         0.0537
     35 H4          0.5088   -0.3498    0.8387 H         1 <0>         0.0605
     36 H5         -1.0340   -0.3666   -0.0488 H         1 <0>         0.0603
     37 H6          0.1948   -0.1297   -2.1895 H         1 <0>         0.0612
     38 H7          1.7376   -0.1128   -1.3019 H         1 <0>         0.0613
     39 H8          1.2530   -2.3778   -0.4166 H         1 <0>         0.0619
     40 H9         -0.2898   -2.3946   -1.3041 H         1 <0>         0.0618
     41 H10         0.9390   -2.1577   -3.4448 H         1 <0>         0.0653
     42 H11         2.4819   -2.1408   -2.5572 H         1 <0>         0.0638
     43 H12         1.9972   -4.4058   -1.6719 H         1 <0>         0.0661
     44 H13         0.4544   -4.4226   -2.5594 H         1 <0>         0.0711
     45 H14         1.6833   -4.1857   -4.7000 H         1 <0>         0.0878
     46 H15         3.2261   -4.1688   -3.8125 H         1 <0>         0.0717
     47 H16         0.9988   -7.7094   -3.9416 H         1 <0>         0.0955
     48 H17         0.2084   -6.1765   -4.3816 H         1 <0>         0.0880
     49 H18         0.5599   -5.1809   -6.5701 H         1 <0>         0.1179
     50 H19         1.1059   -5.5791   -8.9379 H         1 <0>         0.1198
     51 H20         2.9838   -9.2609   -7.8857 H         1 <0>         0.1199
     52 H21         2.4451   -8.8587   -5.5169 H         1 <0>         0.1276
     53 H22         2.4374   -8.7612  -10.1977 H         1 <0>         0.0723
     54 H23         1.6533   -7.2248  -10.6369 H         1 <0>         0.0720
     55 H24         4.8703   -8.8046   -9.6305 H         1 <0>         0.0538
     56 H25         5.8193   -7.2992   -9.6657 H         1 <0>         0.0529
     57 H26         4.6036   -7.5553   -8.3910 H         1 <0>         0.0593
     58 H27         3.3597   -6.8653  -12.4261 H         1 <0>         0.0551
     59 H28         5.0929   -6.8963  -12.0220 H         1 <0>         0.0562
     60 H29         4.1439   -8.4017  -11.9869 H         1 <0>         0.0553
     61 H30         3.5029   -5.3988   -9.0075 H         1 <0>         0.0591
     62 H31         4.7186   -5.1426  -10.2822 H         1 <0>         0.0528
     63 H32         2.9854   -5.1117  -10.6862 H         1 <0>         0.0534
     64 H33         4.2660   -5.0193   -2.7047 H         1 <0>         0.4102
     65 H34         5.2366   -8.3513   -3.3012 H         1 <0>         0.1623
     66 H35         7.0150   -9.5550   -2.0991 H         1 <0>         0.1474
     67 H36         7.2821   -6.3618    0.7211 H         1 <0>         0.1529
@<TRIPOS>BOND
     1    1    2 1
     2    1   32 1
     3    1   33 1
     4    1   34 1
     5    2    3 1
     6    2   35 1
     7    2   36 1
     8    3    4 1
     9    3   37 1
    10    3   38 1
    11    4    5 1
    12    4   39 1
    13    4   40 1
    14    5    6 1
    15    5   41 1
    16    5   42 1
    17    6    7 1
    18    6   43 1
    19    6   44 1
    20    7    8 1
    21    7   45 1
    22    7   46 1
    23    8    9 1
    24    8   21 am
    25    9   10 1
    26    9   47 1
    27    9   48 1
    28   10   15 ar
    29   10   11 ar
    30   11   12 ar
    31   11   49 1
    32   12   13 ar
    33   12   50 1
    34   13   14 ar
    35   13   16 1
    36   14   15 ar
    37   14   51 1
    38   15   52 1
    39   16   17 1
    40   16   53 1
    41   16   54 1
    42   17   18 1
    43   17   19 1
    44   17   20 1
    45   18   55 1
    46   18   56 1
    47   18   57 1
    48   19   58 1
    49   19   59 1
    50   19   60 1
    51   20   61 1
    52   20   62 1
    53   20   63 1
    54   21   22 2
    55   21   23 am
    56   23   24 1
    57   23   64 1
    58   24   29 ar
    59   24   25 ar
    60   25   26 ar
    61   25   65 1
    62   26   27 ar
    63   26   66 1
    64   27   28 ar
    65   27   31 1
    66   28   29 ar
    67   28   67 1
    68   29   30 1
@<TRIPOS>MOLECULE
ZINC02516907
   51    52     0     0     0
SMALL
USER_CHARGES
[1-(5,8-dihydroxy-1,4-dioxo-2-naphthyl)-4-methyl-pent-3-enyl] 3-methylbutanoate
@<TRIPOS>ATOM
      1 C1          9.3183    5.7555   -2.1329 C.3       1 <0>        -0.1578
      2 C2          8.4320    5.1246   -3.2088 C.3       1 <0>        -0.0844
      3 C3          9.2938    4.7196   -4.4064 C.3       1 <0>        -0.1488
      4 C4          7.7390    3.8862   -2.6370 C.3       1 <0>        -0.1113
      5 C5          6.7964    4.3011   -1.5368 C.2       1 <0>         0.4590
      6 O1          6.6899    5.4675   -1.2404 O.2       1 <0>        -0.4917
      7 O2          6.0752    3.3747   -0.8861 O.3       1 <0>        -0.3396
      8 C6          5.1880    3.8465    0.1620 C.3       1 <0>         0.1412
      9 H1          4.8474    4.8540   -0.0765 H         1 <0>         0.1044
     10 C7          5.9378    3.8639    1.4955 C.3       1 <0>        -0.1104
     11 C8          7.0528    4.8757    1.4316 C.2       1 <0>        -0.1599
     12 C9          7.0953    5.8590    2.2961 C.2       1 <0>        -0.1239
     13 C10         6.1021    5.9103    3.4284 C.3       1 <0>        -0.1212
     14 C11         8.1373    6.9390    2.1583 C.3       1 <0>        -0.1145
     15 C12         3.9993    2.9259    0.2661 C.2       1 <0>        -0.1139
     16 C13         2.7617    3.4309    0.1697 C.2       1 <0>        -0.1241
     17 C14         1.5781    2.5577    0.2677 C.2       1 <0>         0.4166
     18 O3          0.4615    3.0307    0.1780 O.2       1 <0>        -0.4011
     19 C15         1.7532    1.1096    0.4744 C.ar      1 <0>        -0.1467
     20 C16         0.6498    0.2606    0.5703 C.ar      1 <0>         0.1583
     21 C17         0.8438   -1.1099    0.7660 C.ar      1 <0>        -0.1090
     22 C18         2.1131   -1.6277    0.8653 C.ar      1 <0>        -0.1072
     23 C19         3.2298   -0.7921    0.7716 C.ar      1 <0>         0.1577
     24 C20         3.0549    0.5785    0.5758 C.ar      1 <0>        -0.1408
     25 C21         4.2137    1.4823    0.4740 C.2       1 <0>         0.4214
     26 O4          5.3428    1.0391    0.5598 O.2       1 <0>        -0.3852
     27 O5          4.4777   -1.3111    0.8711 O.3       1 <0>        -0.4743
     28 O6         -0.6051    0.7621    0.4684 O.3       1 <0>        -0.4748
     29 H2          8.7044    6.0441   -1.2797 H         1 <0>         0.0718
     30 H3         10.0699    5.0341   -1.8123 H         1 <0>         0.0510
     31 H4          9.8120    6.6378   -2.5403 H         1 <0>         0.0568
     32 H5          7.6805    5.8461   -3.5294 H         1 <0>         0.0800
     33 H6          8.6624    4.2701   -5.1729 H         1 <0>         0.0569
     34 H7          9.7875    5.6018   -4.8138 H         1 <0>         0.0617
     35 H8         10.0453    3.9982   -4.0858 H         1 <0>         0.0577
     36 H9          8.4880    3.2036   -2.2356 H         1 <0>         0.1063
     37 H10         7.1781    3.3865   -3.4268 H         1 <0>         0.1049
     38 H11         5.2489    4.1325    2.2963 H         1 <0>         0.0893
     39 H12         6.3546    2.8758    1.6909 H         1 <0>         0.0933
     40 H13         7.8169    4.7901    0.6732 H         1 <0>         0.1072
     41 H14         6.1409    4.9760    3.9883 H         1 <0>         0.0658
     42 H15         6.3480    6.7409    4.0900 H         1 <0>         0.0625
     43 H16         5.0990    6.0512    3.0257 H         1 <0>         0.0652
     44 H17         8.7604    6.7338    1.2878 H         1 <0>         0.0601
     45 H18         7.6462    7.9041    2.0342 H         1 <0>         0.0671
     46 H19         8.7592    6.9602    3.0533 H         1 <0>         0.0628
     47 H20         2.6296    4.4921    0.0184 H         1 <0>         0.1582
     48 H21        -0.0103   -1.7667    0.8401 H         1 <0>         0.1504
     49 H22         2.2487   -2.6885    1.0164 H         1 <0>         0.1505
     50 H23         4.8585   -1.5846    0.0253 H         1 <0>         0.4015
     51 H24        -0.9916    1.0294    1.3135 H         1 <0>         0.4014
@<TRIPOS>BOND
     1    1    2 1
     2    1   29 1
     3    1   30 1
     4    1   31 1
     5    2    3 1
     6    2    4 1
     7    2   32 1
     8    3   33 1
     9    3   34 1
    10    3   35 1
    11    4    5 1
    12    4   36 1
    13    4   37 1
    14    5    6 2
    15    5    7 1
    16    7    8 1
    17    8    9 1
    18    8   10 1
    19    8   15 1
    20   10   11 1
    21   10   38 1
    22   10   39 1
    23   11   12 2
    24   11   40 1
    25   12   13 1
    26   12   14 1
    27   13   41 1
    28   13   42 1
    29   13   43 1
    30   14   44 1
    31   14   45 1
    32   14   46 1
    33   15   25 1
    34   15   16 2
    35   16   17 1
    36   16   47 1
    37   17   18 2
    38   17   19 1
    39   19   24 ar
    40   19   20 ar
    41   20   21 ar
    42   20   28 1
    43   21   22 ar
    44   21   48 1
    45   22   23 ar
    46   22   49 1
    47   23   24 ar
    48   23   27 1
    49   24   25 1
    50   25   26 2
    51   27   50 1
    52   28   51 1
