@<TRIPOS>MOLECULE
ZINC08195650
   59    58     0     0     0
SMALL
USER_CHARGES
2-aminooctadec-4-ene-1,3-diol
@<TRIPOS>ATOM
      1 C1        -14.6046    0.2647   13.8444 C.3       1 <0>        -0.1548
      2 C2        -13.8885   -0.2287   12.5856 C.3       1 <0>        -0.1261
      3 C3        -12.4960    0.4007   12.5112 C.3       1 <0>        -0.1215
      4 C4        -11.7798   -0.0927   11.2524 C.3       1 <0>        -0.1212
      5 C5        -10.3873    0.5367   11.1781 C.3       1 <0>        -0.1209
      6 C6         -9.6711    0.0433    9.9193 C.3       1 <0>        -0.1206
      7 C7         -8.2786    0.6727    9.8449 C.3       1 <0>        -0.1210
      8 C8         -7.5624    0.1793    8.5861 C.3       1 <0>        -0.1206
      9 C9         -6.1699    0.8087    8.5117 C.3       1 <0>        -0.1214
     10 C10        -5.4537    0.3153    7.2529 C.3       1 <0>        -0.1205
     11 C11        -4.0612    0.9447    7.1786 C.3       1 <0>        -0.1222
     12 C12        -3.3451    0.4513    5.9198 C.3       1 <0>        -0.1156
     13 C13        -1.9525    1.0807    5.8454 C.3       1 <0>        -0.1069
     14 C14        -1.2471    0.5947    4.6055 C.2       1 <0>        -0.0724
     15 C15        -0.7691    1.4573    3.7432 C.2       1 <0>        -0.2755
     16 C16        -0.0638    0.9713    2.5033 C.3       1 <0>         0.1385
     17 H1          0.9829    1.2737    2.5386 H         1 <0>         0.1274
     18 C17        -0.7288    1.5792    1.2668 C.3       1 <0>         0.0066
     19 H2         -1.7755    1.2768    1.2315 H         1 <0>         0.1475
     20 C18        -0.0127    1.0858    0.0080 C.3       1 <0>         0.0501
     21 O1         -0.7038    1.5592   -1.1497 O.3       1 <0>        -0.5828
     22 O2         -0.1458   -0.4537    2.4363 O.3       1 <0>        -0.5290
     23 H3        -14.0294   -0.0207   14.7252 H         1 <0>         0.0537
     24 H4        -14.6980    1.3501   13.8075 H         1 <0>         0.0534
     25 H5        -15.5967   -0.1837   13.8974 H         1 <0>         0.0544
     26 H6        -14.4637    0.0567   11.7048 H         1 <0>         0.0602
     27 H7        -13.7951   -1.3141   12.6225 H         1 <0>         0.0605
     28 H8        -11.9207    0.1153   13.3920 H         1 <0>         0.0609
     29 H9        -12.5893    1.4861   12.4743 H         1 <0>         0.0605
     30 H10       -12.3551    0.1927   10.3717 H         1 <0>         0.0604
     31 H11       -11.6865   -1.1781   11.2894 H         1 <0>         0.0608
     32 H12        -9.8120    0.2513   12.0588 H         1 <0>         0.0609
     33 H13       -10.4806    1.6221   11.1411 H         1 <0>         0.0604
     34 H14       -10.2464    0.3287    9.0385 H         1 <0>         0.0602
     35 H15        -9.5778   -1.0421    9.9562 H         1 <0>         0.0608
     36 H16        -7.7033    0.3873   10.7256 H         1 <0>         0.0612
     37 H17        -8.3719    1.7581    9.8080 H         1 <0>         0.0604
     38 H18        -8.1377    0.4647    7.7053 H         1 <0>         0.0600
     39 H19        -7.4691   -0.9061    8.6230 H         1 <0>         0.0612
     40 H20        -5.5946    0.5233    9.3925 H         1 <0>         0.0621
     41 H21        -6.2632    1.8941    8.4748 H         1 <0>         0.0606
     42 H22        -6.0290    0.6007    6.3722 H         1 <0>         0.0601
     43 H23        -5.3604   -0.7701    7.2899 H         1 <0>         0.0626
     44 H24        -3.4860    0.6593    8.0593 H         1 <0>         0.0652
     45 H25        -4.1546    2.0301    7.1416 H         1 <0>         0.0618
     46 H26        -3.9203    0.7367    5.0390 H         1 <0>         0.0616
     47 H27        -3.2517   -0.6341    5.9567 H         1 <0>         0.0679
     48 H28        -1.3773    0.7953    6.7261 H         1 <0>         0.0872
     49 H29        -2.0459    2.1661    5.8085 H         1 <0>         0.0708
     50 H30        -1.1357   -0.4647    4.4278 H         1 <0>         0.1271
     51 H31        -0.8806    2.5168    3.9209 H         1 <0>         0.1203
     52 H32         0.0021   -0.0041    0.0020 H         1 <0>         0.1022
     53 H33         1.0099    1.4631    0.0003 H         1 <0>         0.0749
     54 H34        -0.3044    1.2838   -1.9862 H         1 <0>         0.4126
     55 H35        -1.1648    3.3997    2.1238 H         1 <0>         0.4373
     56 H36         0.3165    3.3498    1.3694 H         1 <0>         0.4353
     57 H37        -1.0502   -0.7944    2.4021 H         1 <0>         0.3905
     58 N1         -0.6555    3.0502    1.3138 N.4       1 <0>        -0.6366
     59 H38        -1.0768    3.4365    0.4609 H         1 <0>         0.4493
@<TRIPOS>BOND
     1    1    2 1
     2    1   23 1
     3    1   24 1
     4    1   25 1
     5    2    3 1
     6    2   26 1
     7    2   27 1
     8    3    4 1
     9    3   28 1
    10    3   29 1
    11    4    5 1
    12    4   30 1
    13    4   31 1
    14    5    6 1
    15    5   32 1
    16    5   33 1
    17    6    7 1
    18    6   34 1
    19    6   35 1
    20    7    8 1
    21    7   36 1
    22    7   37 1
    23    8    9 1
    24    8   38 1
    25    8   39 1
    26    9   10 1
    27    9   40 1
    28    9   41 1
    29   10   11 1
    30   10   42 1
    31   10   43 1
    32   11   12 1
    33   11   44 1
    34   11   45 1
    35   12   13 1
    36   12   46 1
    37   12   47 1
    38   13   14 1
    39   13   48 1
    40   13   49 1
    41   14   15 2
    42   14   50 1
    43   15   16 1
    44   15   51 1
    45   16   17 1
    46   16   18 1
    47   16   22 1
    48   18   19 1
    49   18   20 1
    50   18   58 1
    51   20   21 1
    52   20   52 1
    53   20   53 1
    54   21   54 1
    55   22   57 1
    56   55   58 1
    57   56   58 1
    58   58   59 1
