@<TRIPOS>MOLECULE
ZINC26815863
   57    59     0     0     0
SMALL
USER_CHARGES
1-[3-[(5-bromo-2-pyridyl)-[(3,4-dichlorophenyl)methyl]amino]propyl]-3-[3-(1H-imidazol-4-yl)propyl]thiourea
@<TRIPOS>ATOM
      1 C1          2.5606    4.0507    2.2802 C.ar      1 <0>        -0.0881
      2 C2          2.6377    4.3986    3.6160 C.ar      1 <0>        -0.0972
      3 C3          3.8721    4.5502    4.2209 C.ar      1 <0>        -0.0265
      4 C4          5.0304    4.3481    3.4892 C.ar      1 <0>        -0.0311
      5 C5          4.9514    3.9950    2.1543 C.ar      1 <0>        -0.0826
      6 C6          3.7166    3.8439    1.5512 C.ar      1 <0>        -0.0971
      7 C7          3.6309    3.4596    0.0966 C.3       1 <0>         0.1603
      8 N1          3.5940    1.9998   -0.0215 N.pl3     1 <0>        -0.5957
      9 C8          4.8422    1.2433   -0.1481 C.3       1 <0>         0.1282
     10 C9          5.2026    1.0980   -1.6279 C.3       1 <0>        -0.1466
     11 C10         6.5062    0.3079   -1.7601 C.3       1 <0>         0.1315
     12 N2          6.8513    0.1688   -3.1770 N.pl3     1 <0>        -0.6974
     13 C11         7.9676   -0.4953   -3.5366 C.2       1 <0>         0.5671
     14 S1          8.9823   -1.1762   -2.3376 S.2       1 <0>        -0.6560
     15 N3          8.2851   -0.6233   -4.8402 N.pl3     1 <0>        -0.6948
     16 C12         9.4986   -1.3452   -5.2311 C.3       1 <0>         0.1258
     17 C13         9.6236   -1.3444   -6.7559 C.3       1 <0>        -0.1220
     18 C14        10.8908   -2.0982   -7.1642 C.3       1 <0>        -0.0298
     19 C15        11.0140   -2.0974   -8.6661 C.2       1 <0>        -0.0025
     20 C16        12.0747   -1.6629   -9.3729 C.2       1 <0>        -0.0634
     21 N4         11.7698   -1.8420  -10.6953 N.pl3     1 <0>        -0.5824
     22 H1         12.4953   -1.5551  -11.4708 H         1 <0>         0.4484
     23 C17        10.5324   -2.3802  -10.7505 C.2       1 <0>         0.1945
     24 N5         10.0887   -2.5348   -9.5330 N.2       1 <0>        -0.4923
     25 C18         2.3742    1.3323   -0.0135 C.ar      1 <0>         0.4181
     26 C19         1.1895    2.0616    0.0018 C.ar      1 <0>        -0.2373
     27 C20        -0.0168    1.3853    0.0097 C.ar      1 <0>        -0.0029
     28 C21         0.0021   -0.0041    0.0020 C.ar      1 <0>        -0.2061
     29 C22         1.2153   -0.6637   -0.0131 C.ar      1 <0>         0.1876
     30 N6          2.3509    0.0087   -0.0203 N.ar      1 <0>        -0.5278
     31 Br1        -1.6167   -0.9815    0.0128 Br        1 <0>        -0.0406
     32 Cl1         6.5807    4.5374    4.2471 Cl        1 <0>        -0.0421
     33 Cl2         3.9696    4.9929    5.8967 Cl        1 <0>        -0.0436
     34 H2          1.5965    3.9365    1.8070 H         1 <0>         0.1378
     35 H3          1.7340    4.5560    4.1860 H         1 <0>         0.1446
     36 H4          5.8542    3.8376    1.5830 H         1 <0>         0.1427
     37 H5          2.7168    3.8862   -0.3421 H         1 <0>         0.0964
     38 H6          4.5101    3.8486   -0.4379 H         1 <0>         0.0990
     39 H7          5.6492    1.7772    0.3751 H         1 <0>         0.0797
     40 H8          4.7133    0.2459    0.2976 H         1 <0>         0.0982
     41 H9          4.3956    0.5642   -2.1511 H         1 <0>         0.0744
     42 H10         5.3315    2.0954   -2.0736 H         1 <0>         0.0685
     43 H11         7.3132    0.8418   -1.2368 H         1 <0>         0.0855
     44 H12         6.3773   -0.6895   -1.3145 H         1 <0>         0.0884
     45 H13         6.1994    0.6064   -3.9474 H         1 <0>         0.4148
     46 H14         7.6332   -0.1858   -5.6106 H         1 <0>         0.4158
     47 H15        10.3771   -0.8508   -4.7909 H         1 <0>         0.0849
     48 H16         9.4413   -2.3821   -4.8684 H         1 <0>         0.0864
     49 H17         8.7450   -1.8388   -7.1961 H         1 <0>         0.0769
     50 H18         9.6809   -0.3075   -7.1186 H         1 <0>         0.0653
     51 H19        11.7694   -1.6039   -6.7240 H         1 <0>         0.0792
     52 H20        10.8335   -3.1351   -6.8016 H         1 <0>         0.0797
     53 H21        12.9899   -1.2517   -8.9733 H         1 <0>         0.1745
     54 H22        10.0000   -2.6430  -11.6527 H         1 <0>         0.2051
     55 H23         1.2116    3.1414    0.0070 H         1 <0>         0.1398
     56 H24        -0.9523    1.9248    0.0170 H         1 <0>         0.1427
     57 H25         1.2350   -1.7435   -0.0195 H         1 <0>         0.1643
@<TRIPOS>BOND
     1    1    6 ar
     2    1    2 ar
     3    1   34 1
     4    2    3 ar
     5    2   35 1
     6    3    4 ar
     7    3   33 1
     8    4    5 ar
     9    4   32 1
    10    5    6 ar
    11    5   36 1
    12    6    7 1
    13    7    8 1
    14    7   37 1
    15    7   38 1
    16    8    9 1
    17    8   25 1
    18    9   10 1
    19    9   39 1
    20    9   40 1
    21   10   11 1
    22   10   41 1
    23   10   42 1
    24   11   12 1
    25   11   43 1
    26   11   44 1
    27   12   13 1
    28   12   45 1
    29   13   14 2
    30   13   15 1
    31   15   16 1
    32   15   46 1
    33   16   17 1
    34   16   47 1
    35   16   48 1
    36   17   18 1
    37   17   49 1
    38   17   50 1
    39   18   19 1
    40   18   51 1
    41   18   52 1
    42   19   24 1
    43   19   20 2
    44   20   21 1
    45   20   53 1
    46   21   22 1
    47   21   23 1
    48   23   24 2
    49   23   54 1
    50   25   30 ar
    51   25   26 ar
    52   26   27 ar
    53   26   55 1
    54   27   28 ar
    55   27   56 1
    56   28   29 ar
    57   28   31 1
    58   29   30 ar
    59   29   57 1
@<TRIPOS>MOLECULE
ZINC26815863
   58    60     0     0     0
SMALL
USER_CHARGES
1-[3-[(5-bromo-2-pyridyl)-[(3,4-dichlorophenyl)methyl]amino]propyl]-3-[3-(1H-imidazol-4-yl)propyl]thiourea
@<TRIPOS>ATOM
      1 C1          2.5606    4.0507    2.2802 C.ar      1 <0>        -0.0878
      2 C2          2.6377    4.3986    3.6160 C.ar      1 <0>        -0.0963
      3 C3          3.8721    4.5502    4.2209 C.ar      1 <0>        -0.0257
      4 C4          5.0304    4.3481    3.4892 C.ar      1 <0>        -0.0315
      5 C5          4.9514    3.9950    2.1543 C.ar      1 <0>        -0.0834
      6 C6          3.7166    3.8439    1.5512 C.ar      1 <0>        -0.0997
      7 C7          3.6309    3.4596    0.0966 C.3       1 <0>         0.1615
      8 N1          3.5940    1.9998   -0.0215 N.pl3     1 <0>        -0.5966
      9 C8          4.8422    1.2433   -0.1481 C.3       1 <0>         0.1283
     10 C9          5.2026    1.0980   -1.6279 C.3       1 <0>        -0.1467
     11 C10         6.5062    0.3079   -1.7601 C.3       1 <0>         0.1280
     12 N2          6.8513    0.1688   -3.1770 N.pl3     1 <0>        -0.6899
     13 C11         7.9676   -0.4953   -3.5366 C.2       1 <0>         0.5635
     14 S1          8.9823   -1.1762   -2.3376 S.2       1 <0>        -0.6389
     15 N3          8.2851   -0.6233   -4.8402 N.pl3     1 <0>        -0.7062
     16 C12         9.4986   -1.3452   -5.2311 C.3       1 <0>         0.1275
     17 C13         9.6236   -1.3444   -6.7559 C.3       1 <0>        -0.1358
     18 C14        10.8908   -2.0982   -7.1642 C.3       1 <0>        -0.0622
     19 C15        11.0140   -2.0974   -8.6661 C.2       1 <0>         0.0237
     20 C16        12.0747   -1.6629   -9.3729 C.2       1 <0>         0.0189
     21 N4         11.7698   -1.8420  -10.6953 N.pl3     1 <0>        -0.5298
     22 H1         12.4953   -1.5551  -11.4708 H         1 <0>         0.5073
     23 C17        10.5324   -2.3802  -10.7505 C.cat     1 <0>         0.3197
     24 N5         10.0887   -2.5348   -9.5330 N.pl3     1 <0>        -0.4977
     25 C18         2.3742    1.3323   -0.0135 C.ar      1 <0>         0.4164
     26 C19         1.1895    2.0616    0.0018 C.ar      1 <0>        -0.2358
     27 C20        -0.0168    1.3853    0.0097 C.ar      1 <0>        -0.0025
     28 C21         0.0021   -0.0041    0.0020 C.ar      1 <0>        -0.2048
     29 C22         1.2153   -0.6637   -0.0131 C.ar      1 <0>         0.1859
     30 N6          2.3509    0.0087   -0.0203 N.ar      1 <0>        -0.5294
     31 Br1        -1.6167   -0.9815    0.0128 Br        1 <0>        -0.0375
     32 Cl1         6.5807    4.5374    4.2471 Cl        1 <0>        -0.0414
     33 Cl2         3.9696    4.9929    5.8967 Cl        1 <0>        -0.0405
     34 H2          1.5965    3.9365    1.8070 H         1 <0>         0.1377
     35 H3          1.7340    4.5560    4.1860 H         1 <0>         0.1456
     36 H4          5.8542    3.8376    1.5830 H         1 <0>         0.1413
     37 H5          2.7168    3.8862   -0.3421 H         1 <0>         0.0966
     38 H6          4.5101    3.8486   -0.4379 H         1 <0>         0.0977
     39 H7          5.6492    1.7772    0.3751 H         1 <0>         0.0800
     40 H8          4.7133    0.2459    0.2976 H         1 <0>         0.0982
     41 H9          4.3956    0.5642   -2.1511 H         1 <0>         0.0746
     42 H10         5.3315    2.0954   -2.0736 H         1 <0>         0.0690
     43 H11         7.3132    0.8418   -1.2368 H         1 <0>         0.0888
     44 H12         6.3773   -0.6895   -1.3145 H         1 <0>         0.0915
     45 H13         6.1994    0.6064   -3.9474 H         1 <0>         0.4158
     46 H14         7.6332   -0.1858   -5.6106 H         1 <0>         0.4133
     47 H15        10.3771   -0.8508   -4.7909 H         1 <0>         0.0916
     48 H16         9.4413   -2.3821   -4.8684 H         1 <0>         0.0903
     49 H17         8.7450   -1.8388   -7.1961 H         1 <0>         0.0686
     50 H18         9.6809   -0.3075   -7.1186 H         1 <0>         0.0806
     51 H19        11.7694   -1.6039   -6.7240 H         1 <0>         0.1182
     52 H20        10.8335   -3.1351   -6.8016 H         1 <0>         0.1085
     53 H21        12.9899   -1.2517   -8.9733 H         1 <0>         0.2217
     54 H22        10.0000   -2.6430  -11.6527 H         1 <0>         0.2597
     55 H23         1.2116    3.1414    0.0070 H         1 <0>         0.1404
     56 H24        -0.9523    1.9248    0.0170 H         1 <0>         0.1439
     57 H25         1.2350   -1.7435   -0.0195 H         1 <0>         0.1643
     58 H26         9.1366   -2.9422   -9.1622 H         1 <0>         0.5013
@<TRIPOS>BOND
     1    1    6 ar
     2    1    2 ar
     3    1   34 1
     4    2    3 ar
     5    2   35 1
     6    3    4 ar
     7    3   33 1
     8    4    5 ar
     9    4   32 1
    10    5    6 ar
    11    5   36 1
    12    6    7 1
    13    7    8 1
    14    7   37 1
    15    7   38 1
    16    8    9 1
    17    8   25 1
    18    9   10 1
    19    9   39 1
    20    9   40 1
    21   10   11 1
    22   10   41 1
    23   10   42 1
    24   11   12 1
    25   11   43 1
    26   11   44 1
    27   12   13 1
    28   12   45 1
    29   13   14 2
    30   13   15 1
    31   15   16 1
    32   15   46 1
    33   16   17 1
    34   16   47 1
    35   16   48 1
    36   17   18 1
    37   17   49 1
    38   17   50 1
    39   18   19 1
    40   18   51 1
    41   18   52 1
    42   19   24 1
    43   19   20 2
    44   20   21 1
    45   20   53 1
    46   21   22 1
    47   21   23 1
    48   23   24 2
    49   23   54 1
    50   24   58 1
    51   25   30 ar
    52   25   26 ar
    53   26   27 ar
    54   26   55 1
    55   27   28 ar
    56   27   56 1
    57   28   29 ar
    58   28   31 1
    59   29   30 ar
    60   29   57 1
