@<TRIPOS>MOLECULE
ZINC58631551
   38    40     0     0     0
SMALL
USER_CHARGES

@<TRIPOS>ATOM
      1 C1         -0.0184    1.5028    0.0103 C.3       1 <0>        -0.0741
      2 C2          0.0021   -0.0041    0.0020 C.2       1 <0>         0.0868
      3 C3          0.0080   -0.8148   -1.1361 C.2       1 <0>        -0.2704
      4 C4          0.0283   -2.1125   -0.7242 C.2       1 <0>         0.3120
      5 N1          0.0349   -2.1091    0.6338 N.pl3     1 <0>        -0.4958
      6 H1          0.0487   -2.8914    1.2071 H         1 <0>         0.4354
      7 N2          0.0230   -0.7746    1.0591 N.2       1 <0>        -0.2858
      8 N3          0.0394   -3.2378   -1.5456 N.pl3     1 <0>        -0.6217
      9 C5          0.0298   -3.0899   -2.9246 C.ar      1 <0>         0.4936
     10 C6          0.0351   -4.2117   -3.7582 C.ar      1 <0>        -0.2532
     11 C7          0.0252   -4.0159   -5.1259 C.ar      1 <0>         0.2431
     12 N4          0.0110   -2.7797   -5.6037 N.ar      1 <0>        -0.5797
     13 C8          0.0064   -1.7350   -4.7896 C.ar      1 <0>         0.6095
     14 N5          0.0100   -1.8793   -3.4729 N.ar      1 <0>        -0.5867
     15 N6         -0.0080   -0.4597   -5.3285 N.pl3     1 <0>        -0.6801
     16 C9         -0.0178   -0.2789   -6.7823 C.3       1 <0>         0.2337
     17 H2          0.5760   -1.0641   -7.2501 H         1 <0>         0.1249
     18 C10        -1.4571   -0.3534   -7.2958 C.3       1 <0>        -0.1578
     19 C11         0.5688    1.0663   -7.1252 C.ar      1 <0>         0.2983
     20 N7          0.1994    2.1226   -6.4292 N.ar      1 <0>        -0.4844
     21 C12         0.6928    3.3201   -6.7002 C.ar      1 <0>         0.1324
     22 C13         1.6106    3.4535   -7.7331 C.ar      1 <0>        -0.0007
     23 C14         1.9743    2.3171   -8.4426 C.ar      1 <0>         0.1321
     24 N8          1.4411    1.1529   -8.1092 N.ar      1 <0>        -0.4782
     25 F1          2.1365    4.6594   -8.0405 F         1 <0>        -0.1143
     26 Cl1         0.0542   -5.8140   -3.0905 Cl        1 <0>        -0.0482
     27 H3          1.0042    1.8801    0.0026 H         1 <0>         0.0774
     28 H4         -0.5455    1.8639   -0.8728 H         1 <0>         0.0795
     29 H5         -0.5286    1.8543    0.9071 H         1 <0>         0.0730
     30 H6         -0.0022   -0.4728   -2.1605 H         1 <0>         0.1820
     31 H7          0.0539   -4.1247   -1.1531 H         1 <0>         0.4249
     32 H8          0.0292   -4.8611   -5.7983 H         1 <0>         0.1817
     33 H9         -0.0115    0.3141   -4.7435 H         1 <0>         0.4227
     34 H10        -2.0509    0.4319   -6.8279 H         1 <0>         0.0662
     35 H11        -1.4644   -0.2189   -8.3774 H         1 <0>         0.0715
     36 H12        -1.8814   -1.3263   -7.0478 H         1 <0>         0.0782
     37 H13         0.3855    4.1817   -6.1261 H         1 <0>         0.1860
     38 H14         2.6853    2.3817   -9.2530 H         1 <0>         0.1860
@<TRIPOS>BOND
     1    1    2 1
     2    1   27 1
     3    1   28 1
     4    1   29 1
     5    2    7 2
     6    2    3 1
     7    3    4 2
     8    3   30 1
     9    4    5 1
    10    4    8 1
    11    5    6 1
    12    5    7 1
    13    8    9 1
    14    8   31 1
    15    9   14 ar
    16    9   10 ar
    17   10   11 ar
    18   10   26 1
    19   11   12 ar
    20   11   32 1
    21   12   13 ar
    22   13   14 ar
    23   13   15 1
    24   15   16 1
    25   15   33 1
    26   16   17 1
    27   16   18 1
    28   16   19 1
    29   18   34 1
    30   18   35 1
    31   18   36 1
    32   19   24 ar
    33   19   20 ar
    34   20   21 ar
    35   21   22 ar
    36   21   37 1
    37   22   23 ar
    38   22   25 1
    39   23   24 ar
    40   23   38 1
