@<TRIPOS>MOLECULE
ZINC28641215
   48    50     0     0     0
SMALL
USER_CHARGES
4-(benzylamino)-2-[2-(3-chloro-4-hydroxy-phenyl)ethylamino]pyrimidine-5-carboxamide
@<TRIPOS>ATOM
      1 C1          3.9848    2.9452   -0.1022 C.ar      1 <0>        -0.1119
      2 C2          3.3224    2.6935   -1.2890 C.ar      1 <0>        -0.1219
      3 C3          2.0262    2.2135   -1.2688 C.ar      1 <0>        -0.0993
      4 C4          1.3923    1.9856   -0.0617 C.ar      1 <0>        -0.1079
      5 C5          2.0527    2.2428    1.1252 C.ar      1 <0>        -0.0993
      6 C6          3.3509    2.7174    1.1050 C.ar      1 <0>        -0.1219
      7 C7         -0.0209    1.4628   -0.0396 C.3       1 <0>         0.1653
      8 N1          0.0005   -0.0020   -0.0253 N.pl3     1 <0>        -0.6941
      9 C8         -1.1833   -0.7086   -0.0041 C.ar      1 <0>         0.5250
     10 C9         -1.1815   -2.1173   -0.1040 C.ar      1 <0>        -0.3834
     11 C10        -2.4116   -2.7826   -0.0772 C.ar      1 <0>         0.2593
     12 N2         -3.5210   -2.0761    0.0396 N.ar      1 <0>        -0.6113
     13 C11        -3.4851   -0.7524    0.1312 C.ar      1 <0>         0.6236
     14 N3         -2.3451   -0.0773    0.1160 N.ar      1 <0>        -0.6366
     15 N4         -4.6711   -0.0584    0.2516 N.pl3     1 <0>        -0.7025
     16 C12        -5.9443   -0.7827    0.2769 C.3       1 <0>         0.1437
     17 C13        -7.0959    0.2149    0.4168 C.3       1 <0>        -0.0879
     18 C14        -8.4056   -0.5302    0.4427 C.ar      1 <0>        -0.1138
     19 C15        -9.0798   -0.7819   -0.7380 C.ar      1 <0>        -0.0623
     20 C16       -10.2779   -1.4697   -0.7180 C.ar      1 <0>        -0.1495
     21 C17       -10.8105   -1.8982    0.4890 C.ar      1 <0>         0.1723
     22 C18       -10.1349   -1.6395    1.6737 C.ar      1 <0>        -0.1335
     23 C19        -8.9335   -0.9558    1.6474 C.ar      1 <0>        -0.0606
     24 Cl1       -10.7980   -2.1734    3.1866 Cl        1 <0>        -0.0622
     25 O1        -11.9920   -2.5697    0.5116 O.3       1 <0>        -0.5009
     26 C20         0.0799   -2.8646   -0.2332 C.2       1 <0>         0.5966
     27 O2          1.1438   -2.2808   -0.1517 O.2       1 <0>        -0.5670
     28 N5          0.0560   -4.1959   -0.4419 N.am      1 <0>        -0.8719
     29 H1          4.9977    3.3196   -0.1180 H         1 <0>         0.1233
     30 H2          3.8176    2.8715   -2.2321 H         1 <0>         0.1239
     31 H3          1.5087    2.0168   -2.1961 H         1 <0>         0.1222
     32 H4          1.5559    2.0689    2.0682 H         1 <0>         0.1226
     33 H5          3.8686    2.9137    2.0323 H         1 <0>         0.1240
     34 H6         -0.5339    1.8308    0.8611 H         1 <0>         0.0750
     35 H7         -0.5555    1.8130   -0.9349 H         1 <0>         0.0722
     36 H8          0.9610   -0.5381   -0.0315 H         1 <0>         0.4531
     37 H9         -2.4534   -3.8593   -0.1505 H         1 <0>         0.1629
     38 H10        -4.6609    1.0389    0.3286 H         1 <0>         0.4377
     39 H11        -6.0621   -1.3499   -0.6582 H         1 <0>         0.0708
     40 H12        -5.9545   -1.4766    1.1304 H         1 <0>         0.0698
     41 H13        -6.9781    0.7820    1.3519 H         1 <0>         0.0820
     42 H14        -7.0856    0.9088   -0.4366 H         1 <0>         0.0839
     43 H15        -8.6673   -0.4444   -1.6773 H         1 <0>         0.1364
     44 H16       -10.8016   -1.6697   -1.6411 H         1 <0>         0.1399
     45 H17        -8.4073   -0.7538    2.5687 H         1 <0>         0.1354
     46 H18       -12.4135   -2.9091    1.4693 H         1 <0>         0.4330
     47 H19         0.9987   -4.7545   -0.5385 H         1 <0>         0.4271
     48 H20        -0.9062   -4.7239   -0.5157 H         1 <0>         0.4187
@<TRIPOS>BOND
     1    1    6 ar
     2    1    2 ar
     3    1   29 1
     4    2    3 ar
     5    2   30 1
     6    3    4 ar
     7    3   31 1
     8    4    5 ar
     9    4    7 1
    10    5    6 ar
    11    5   32 1
    12    6   33 1
    13    7    8 1
    14    7   34 1
    15    7   35 1
    16    8    9 1
    17    8   36 1
    18    9   14 ar
    19    9   10 ar
    20   10   11 ar
    21   10   26 1
    22   11   12 ar
    23   11   37 1
    24   12   13 ar
    25   13   14 ar
    26   13   15 1
    27   15   16 1
    28   15   38 1
    29   16   17 1
    30   16   39 1
    31   16   40 1
    32   17   18 1
    33   17   41 1
    34   17   42 1
    35   18   23 ar
    36   18   19 ar
    37   19   20 ar
    38   19   43 1
    39   20   21 ar
    40   20   44 1
    41   21   22 ar
    42   21   25 1
    43   22   23 ar
    44   22   24 1
    45   23   45 1
    46   25   46 1
    47   26   27 2
    48   26   28 am
    49   28   47 1
    50   28   48 1
@<TRIPOS>MOLECULE
ZINC28641215
   49    51     0     0     0
SMALL
USER_CHARGES
4-(benzylamino)-2-[2-(3-chloro-4-hydroxy-phenyl)ethylamino]pyrimidine-5-carboxamide
@<TRIPOS>ATOM
      1 C1          3.9848    2.9452   -0.1022 C.ar      1 <0>        -0.0988
      2 C2          3.3224    2.6935   -1.2890 C.ar      1 <0>        -0.1191
      3 C3          2.0262    2.2135   -1.2688 C.ar      1 <0>        -0.0957
      4 C4          1.3923    1.9856   -0.0617 C.ar      1 <0>        -0.1297
      5 C5          2.0527    2.2428    1.1252 C.ar      1 <0>        -0.0957
      6 C6          3.3509    2.7174    1.1050 C.ar      1 <0>        -0.1191
      7 C7         -0.0209    1.4628   -0.0396 C.3       1 <0>         0.1484
      8 N1          0.0005   -0.0020   -0.0253 N.pl3     1 <0>        -0.6342
      9 C8         -1.1833   -0.7086   -0.0041 C.ar      1 <0>         0.5351
     10 C9         -1.1815   -2.1173   -0.1040 C.ar      1 <0>        -0.2902
     11 C10        -2.4116   -2.7826   -0.0772 C.ar      1 <0>         0.2520
     12 N2         -3.5210   -2.0761    0.0396 N.ar      1 <0>        -0.5969
     13 C11        -3.4851   -0.7524    0.1312 C.ar      1 <0>         0.6640
     14 N3         -2.3451   -0.0773    0.1160 N.ar      1 <0>        -0.5804
     15 N4         -4.6711   -0.0584    0.2516 N.pl3     1 <0>        -0.6836
     16 C12        -5.9443   -0.7827    0.2769 C.3       1 <0>         0.0934
     17 C13        -7.0959    0.2149    0.4168 C.3       1 <0>        -0.0796
     18 C14        -8.4056   -0.5302    0.4427 C.ar      1 <0>        -0.1358
     19 C15        -9.0798   -0.7819   -0.7380 C.ar      1 <0>        -0.0607
     20 C16       -10.2779   -1.4697   -0.7180 C.ar      1 <0>        -0.1493
     21 C17       -10.8105   -1.8982    0.4890 C.ar      1 <0>         0.1849
     22 C18       -10.1349   -1.6395    1.6737 C.ar      1 <0>        -0.1371
     23 C19        -8.9335   -0.9558    1.6474 C.ar      1 <0>        -0.0586
     24 Cl1       -10.7980   -2.1734    3.1866 Cl        1 <0>        -0.0522
     25 O1        -11.9920   -2.5697    0.5116 O.3       1 <0>        -0.4969
     26 C20         0.0799   -2.8646   -0.2332 C.2       1 <0>         0.5912
     27 O2          1.1438   -2.2808   -0.1517 O.2       1 <0>        -0.5350
     28 N5          0.0560   -4.1959   -0.4419 N.am      1 <0>        -0.8577
     29 H1          4.9977    3.3196   -0.1180 H         1 <0>         0.1294
     30 H2          3.8176    2.8715   -2.2321 H         1 <0>         0.1292
     31 H3          1.5087    2.0168   -2.1961 H         1 <0>         0.1238
     32 H4          1.5559    2.0689    2.0682 H         1 <0>         0.1242
     33 H5          3.8686    2.9137    2.0323 H         1 <0>         0.1293
     34 H6         -0.5339    1.8308    0.8611 H         1 <0>         0.0950
     35 H7         -0.5555    1.8130   -0.9349 H         1 <0>         0.0930
     36 H8          0.9610   -0.5381   -0.0315 H         1 <0>         0.4687
     37 H9         -2.4534   -3.8593   -0.1505 H         1 <0>         0.2088
     38 H10        -4.6609    1.0389    0.3286 H         1 <0>         0.4729
     39 H11        -6.0621   -1.3499   -0.6582 H         1 <0>         0.0879
     40 H12        -5.9545   -1.4766    1.1304 H         1 <0>         0.0868
     41 H13        -6.9781    0.7820    1.3519 H         1 <0>         0.0928
     42 H14        -7.0856    0.9088   -0.4366 H         1 <0>         0.0947
     43 H15        -8.6673   -0.4444   -1.6773 H         1 <0>         0.1370
     44 H16       -10.8016   -1.6697   -1.6411 H         1 <0>         0.1437
     45 H17        -8.4073   -0.7538    2.5687 H         1 <0>         0.1360
     46 H18       -12.4135   -2.9091    1.4693 H         1 <0>         0.4393
     47 H19         0.9987   -4.7545   -0.5385 H         1 <0>         0.4491
     48 H20        -0.9062   -4.7239   -0.5157 H         1 <0>         0.4206
     49 H21        -4.4966   -2.5838    0.0623 H         1 <0>         0.4750
@<TRIPOS>BOND
     1    1    6 ar
     2    1    2 ar
     3    1   29 1
     4    2    3 ar
     5    2   30 1
     6    3    4 ar
     7    3   31 1
     8    4    5 ar
     9    4    7 1
    10    5    6 ar
    11    5   32 1
    12    6   33 1
    13    7    8 1
    14    7   34 1
    15    7   35 1
    16    8    9 1
    17    8   36 1
    18    9   14 ar
    19    9   10 ar
    20   10   11 ar
    21   10   26 1
    22   11   12 ar
    23   11   37 1
    24   12   13 ar
    25   12   49 1
    26   13   14 ar
    27   13   15 1
    28   15   16 1
    29   15   38 1
    30   16   17 1
    31   16   39 1
    32   16   40 1
    33   17   18 1
    34   17   41 1
    35   17   42 1
    36   18   23 ar
    37   18   19 ar
    38   19   20 ar
    39   19   43 1
    40   20   21 ar
    41   20   44 1
    42   21   22 ar
    43   21   25 1
    44   22   23 ar
    45   22   24 1
    46   23   45 1
    47   25   46 1
    48   26   27 2
    49   26   28 am
    50   28   47 1
    51   28   48 1
