@<TRIPOS>MOLECULE
ZINC02558855
   47    46     0     0     0
SMALL
USER_CHARGES

@<TRIPOS>ATOM
      1 C1          0.3852    0.2193   -0.5757 C.3       1 <0>        -0.1193
      2 C2          0.6464   -1.2569   -0.4221 C.2       1 <0>        -0.1355
      3 C3          1.1451   -1.7209    0.6969 C.2       1 <0>        -0.1663
      4 C4          1.4575   -0.7785    1.8306 C.3       1 <0>        -0.0896
      5 C5          0.7354   -1.2458    3.0959 C.3       1 <0>        -0.0745
      6 C6          1.0478   -0.3034    4.2296 C.2       1 <0>        -0.1333
      7 C7          0.2314    0.6834    4.5049 C.2       1 <0>        -0.1564
      8 C8          0.4946    1.5694    5.6953 C.3       1 <0>        -0.0917
      9 C9          0.5187    3.0320    5.2470 C.3       1 <0>        -0.0725
     10 C10         0.7819    3.9180    6.4373 C.2       1 <0>        -0.1253
     11 C11         2.0035    4.3065    6.7072 C.2       1 <0>        -0.1265
     12 C12         2.2556    5.2667    7.8411 C.3       1 <0>        -0.0942
     13 S1          2.8854    6.8333    7.1780 S.3       1 <0>        -0.2036
     14 C13         3.1340    7.8643    8.6497 C.3       1 <0>        -0.1516
     15 C14         3.6626    9.2131    8.2346 C.2       1 <0>         0.5100
     16 O1          3.8540    9.4563    7.0553 O.co2     1 <0>        -0.6710
     17 O2          3.8990   10.0612    9.0781 O.co2     1 <0>        -0.6908
     18 C15        -0.3602    4.3570    7.3170 C.3       1 <0>        -0.1212
     19 C16         2.2993   -0.4962    5.0466 C.3       1 <0>        -0.1214
     20 C17         0.3340   -2.1994   -1.5558 C.3       1 <0>        -0.1171
     21 H1          1.3194    0.7680   -0.4562 H         1 <0>         0.0664
     22 H2         -0.0267    0.4143   -1.5659 H         1 <0>         0.0585
     23 H3         -0.3262    0.5433    0.1840 H         1 <0>         0.0670
     24 H4          1.3323   -2.7789    0.8069 H         1 <0>         0.1063
     25 H5          2.5328   -0.7682    2.0087 H         1 <0>         0.0705
     26 H6          1.1225    0.2257    1.5710 H         1 <0>         0.0727
     27 H7         -0.3399   -1.2562    2.9178 H         1 <0>         0.0656
     28 H8          1.0704   -2.2501    3.3555 H         1 <0>         0.0667
     29 H9         -0.6303    0.8621    3.8789 H         1 <0>         0.1065
     30 H10        -0.2942    1.4288    6.4343 H         1 <0>         0.0699
     31 H11         1.4566    1.3087    6.1365 H         1 <0>         0.0744
     32 H12         1.3075    3.1726    4.5079 H         1 <0>         0.0682
     33 H13        -0.4433    3.2927    4.8057 H         1 <0>         0.0686
     34 H14         2.8300    3.9387    6.1173 H         1 <0>         0.1131
     35 H15         1.3244    5.4475    8.3779 H         1 <0>         0.0810
     36 H16         2.9908    4.8389    8.5228 H         1 <0>         0.0761
     37 H17         2.1843    7.9906    9.1695 H         1 <0>         0.0734
     38 H18         3.8507    7.3820    9.3144 H         1 <0>         0.0735
     39 H19        -0.4416    3.6832    8.1700 H         1 <0>         0.0631
     40 H20        -0.1767    5.3713    7.6715 H         1 <0>         0.0708
     41 H21        -1.2883    4.3340    6.7460 H         1 <0>         0.0593
     42 H22         3.0929    0.1377    4.6508 H         1 <0>         0.0671
     43 H23         2.1015   -0.2256    6.0838 H         1 <0>         0.0683
     44 H24         2.6090   -1.5401    4.9962 H         1 <0>         0.0575
     45 H25         1.2088   -2.2969   -2.1988 H         1 <0>         0.0650
     46 H26         0.0683   -3.1768   -1.1531 H         1 <0>         0.0603
     47 H27        -0.5010   -1.8061   -2.1356 H         1 <0>         0.0616
@<TRIPOS>BOND
     1    1    2 1
     2    1   21 1
     3    1   22 1
     4    1   23 1
     5    2    3 2
     6    2   20 1
     7    3    4 1
     8    3   24 1
     9    4    5 1
    10    4   25 1
    11    4   26 1
    12    5    6 1
    13    5   27 1
    14    5   28 1
    15    6    7 2
    16    6   19 1
    17    7    8 1
    18    7   29 1
    19    8    9 1
    20    8   30 1
    21    8   31 1
    22    9   10 1
    23    9   32 1
    24    9   33 1
    25   10   11 2
    26   10   18 1
    27   11   12 1
    28   11   34 1
    29   12   13 1
    30   12   35 1
    31   12   36 1
    32   13   14 1
    33   14   15 1
    34   14   37 1
    35   14   38 1
    36   15   16 2
    37   15   17 1
    38   18   39 1
    39   18   40 1
    40   18   41 1
    41   19   42 1
    42   19   43 1
    43   19   44 1
    44   20   45 1
    45   20   46 1
    46   20   47 1
