@<TRIPOS>MOLECULE
ZINC17835434
   52    57     0     0     0
SMALL
USER_CHARGES

@<TRIPOS>ATOM
      1 C1         -0.0133    1.5028    0.0120 C.3       1 <0>        -0.1233
      2 C2          0.0055   -0.0040    0.0029 C.ar      1 <0>        -0.0599
      3 C3          1.1573   -0.6820    0.3575 C.ar      1 <0>        -0.0975
      4 C4          1.1777   -2.0629    0.3501 C.ar      1 <0>        -0.0834
      5 C5          0.0401   -2.7713   -0.0134 C.ar      1 <0>         0.1158
      6 C6         -1.1152   -2.0892   -0.3686 C.ar      1 <0>        -0.0856
      7 C7         -1.1316   -0.7067   -0.3548 C.ar      1 <0>        -0.0300
      8 Cl1        -2.5777    0.1481   -0.7930 Cl        1 <0>        -0.0541
      9 N1          0.0586   -4.1732   -0.0221 N.am      1 <0>        -0.5193
     10 C8         -0.0302   -4.8908   -1.1477 C.2       1 <0>         0.5337
     11 O1         -0.1306   -4.4313   -2.2650 O.2       1 <0>        -0.4327
     12 C9          0.0146   -6.3634   -0.8101 C.3       1 <0>        -0.1439
     13 H1         -0.8628   -6.9064   -1.1617 H         1 <0>         0.1615
     14 C10         1.3399   -6.9643   -1.3267 C.3       1 <0>         0.1293
     15 H2          1.2273   -8.0340   -1.5030 H         1 <0>         0.1190
     16 O2          2.2971   -6.7279   -0.2699 O.3       1 <0>        -0.3067
     17 C11         1.5793   -6.9666    0.9497 C.3       1 <0>         0.0216
     18 C12         0.1586   -6.3718    0.7392 C.3       1 <0>        -0.1333
     19 H3         -0.6281   -6.9360    1.2401 H         1 <0>         0.1623
     20 C13         0.1722   -4.9020    1.0939 C.2       1 <0>         0.5363
     21 O3          0.2687   -4.4536    2.2161 O.2       1 <0>        -0.4369
     22 C14         1.4998   -8.4362    1.2553 C.2       1 <0>         0.4112
     23 O4          1.0114   -9.2941    0.5516 O.2       1 <0>        -0.3922
     24 C15         2.1291   -8.6360    2.5753 C.ar      1 <0>        -0.1458
     25 C16         2.3206   -9.7974    3.3267 C.ar      1 <0>        -0.0539
     26 C17         2.9483   -9.7317    4.5557 C.ar      1 <0>        -0.0944
     27 C18         3.3914   -8.5184    5.0524 C.ar      1 <0>        -0.0899
     28 C19         3.2108   -7.3570    4.3260 C.ar      1 <0>        -0.0552
     29 C20         2.5790   -7.4006    3.0813 C.ar      1 <0>        -0.1319
     30 C21         2.2674   -6.3241    2.1211 C.2       1 <0>         0.4215
     31 O5          2.5193   -5.1454    2.2521 O.2       1 <0>        -0.3684
     32 C22         1.7718   -6.2689   -2.5920 C.ar      1 <0>        -0.0984
     33 C23         2.5020   -5.0973   -2.5220 C.ar      1 <0>        -0.0856
     34 C24         2.8981   -4.4594   -3.6827 C.ar      1 <0>        -0.1137
     35 C25         2.5644   -4.9933   -4.9133 C.ar      1 <0>        -0.1045
     36 C26         1.8349   -6.1655   -4.9832 C.ar      1 <0>        -0.1165
     37 C27         1.4424   -6.8056   -3.8226 C.ar      1 <0>        -0.0917
     38 H4         -0.3207    1.8564    0.9962 H         1 <0>         0.0810
     39 H5          0.9840    1.8800   -0.2143 H         1 <0>         0.0758
     40 H6         -0.7168    1.8620   -0.7391 H         1 <0>         0.0769
     41 H7          2.0421   -0.1311    0.6402 H         1 <0>         0.1432
     42 H8          2.0780   -2.5915    0.6265 H         1 <0>         0.1366
     43 H9         -2.0015   -2.6376   -0.6517 H         1 <0>         0.1368
     44 H10         1.9779  -10.7483    2.9463 H         1 <0>         0.1428
     45 H11         3.0938  -10.6330    5.1327 H         1 <0>         0.1436
     46 H12         3.8813   -8.4790    6.0141 H         1 <0>         0.1437
     47 H13         3.5592   -6.4142    4.7211 H         1 <0>         0.1426
     48 H14         2.7628   -4.6801   -1.5606 H         1 <0>         0.1165
     49 H15         3.4681   -3.5436   -3.6280 H         1 <0>         0.1220
     50 H16         2.8732   -4.4946   -5.8200 H         1 <0>         0.1234
     51 H17         1.5738   -6.5825   -5.9447 H         1 <0>         0.1261
     52 H18         0.8757   -7.7234   -3.8772 H         1 <0>         0.1255
@<TRIPOS>BOND
     1    1    2 1
     2    1   38 1
     3    1   39 1
     4    1   40 1
     5    2    7 ar
     6    2    3 ar
     7    3    4 ar
     8    3   41 1
     9    4    5 ar
    10    4   42 1
    11    5    6 ar
    12    5    9 1
    13    6    7 ar
    14    6   43 1
    15    7    8 1
    16    9   20 am
    17    9   10 am
    18   10   11 2
    19   10   12 1
    20   12   13 1
    21   12   18 1
    22   12   14 1
    23   14   15 1
    24   14   16 1
    25   14   32 1
    26   16   17 1
    27   17   30 1
    28   17   18 1
    29   17   22 1
    30   18   19 1
    31   18   20 1
    32   20   21 2
    33   22   23 2
    34   22   24 1
    35   24   29 ar
    36   24   25 ar
    37   25   26 ar
    38   25   44 1
    39   26   27 ar
    40   26   45 1
    41   27   28 ar
    42   27   46 1
    43   28   29 ar
    44   28   47 1
    45   29   30 1
    46   30   31 2
    47   32   37 ar
    48   32   33 ar
    49   33   34 ar
    50   33   48 1
    51   34   35 ar
    52   34   49 1
    53   35   36 ar
    54   35   50 1
    55   36   37 ar
    56   36   51 1
    57   37   52 1
@<TRIPOS>MOLECULE
ZINC18057956
   52    57     0     0     0
SMALL
USER_CHARGES

@<TRIPOS>ATOM
      1 C1         -0.0150    1.5028    0.0101 C.3       1 <0>        -0.1238
      2 C2          0.0043   -0.0040    0.0017 C.ar      1 <0>        -0.0582
      3 C3          1.0703   -0.6775   -0.5659 C.ar      1 <0>        -0.0977
      4 C4          1.0909   -2.0584   -0.5751 C.ar      1 <0>        -0.0812
      5 C5          0.0401   -2.7713   -0.0134 C.ar      1 <0>         0.1102
      6 C6         -1.0289   -2.0938    0.5561 C.ar      1 <0>        -0.0854
      7 C7         -1.0421   -0.7113    0.5670 C.ar      1 <0>        -0.0303
      8 Cl1        -2.3756    0.1379    1.2844 Cl        1 <0>        -0.0523
      9 N1          0.0586   -4.1732   -0.0221 N.am      1 <0>        -0.5155
     10 C8         -0.0302   -4.8908   -1.1478 C.2       1 <0>         0.5389
     11 O1         -0.1322   -4.4312   -2.2649 O.2       1 <0>        -0.4421
     12 C9          0.0172   -6.3640   -0.8108 C.3       1 <0>        -0.1419
     13 H1         -0.8562   -6.9104   -1.1666 H         1 <0>         0.1607
     14 C10         1.3487   -6.9575   -1.3216 C.3       1 <0>         0.1334
     15 H2          2.0489   -6.1595   -1.5686 H         1 <0>         0.1030
     16 O2          1.8543   -7.7465   -0.2208 O.3       1 <0>        -0.2963
     17 C11         1.5712   -6.9745    0.9559 C.3       1 <0>         0.0230
     18 C12         0.1553   -6.3712    0.7391 C.3       1 <0>        -0.1300
     19 H3         -0.6364   -6.9314    1.2365 H         1 <0>         0.1681
     20 C13         0.1722   -4.9020    1.0940 C.2       1 <0>         0.5280
     21 O3          0.2703   -4.4537    2.2160 O.2       1 <0>        -0.4424
     22 C14         2.6006   -5.8975    1.1567 C.2       1 <0>         0.3978
     23 O4          2.8714   -5.0049    0.3823 O.2       1 <0>        -0.3958
     24 C15         3.2181   -6.1330    2.4763 C.ar      1 <0>        -0.1365
     25 C16         4.2272   -5.4385    3.1468 C.ar      1 <0>        -0.0528
     26 C17         4.6429   -5.8561    4.3966 C.ar      1 <0>        -0.0913
     27 C18         4.0651   -6.9629    4.9936 C.ar      1 <0>        -0.0905
     28 C19         3.0664   -7.6656    4.3470 C.ar      1 <0>        -0.0534
     29 C20         2.6324   -7.2617    3.0825 C.ar      1 <0>        -0.1375
     30 C21         1.6034   -7.8309    2.1904 C.2       1 <0>         0.4362
     31 O5          0.9146   -8.8037    2.4119 O.2       1 <0>        -0.3818
     32 C22         1.1050   -7.8303   -2.5257 C.ar      1 <0>        -0.0986
     33 C23         0.6392   -9.1213   -2.3607 C.ar      1 <0>        -0.0904
     34 C24         0.4157   -9.9219   -3.4652 C.ar      1 <0>        -0.1213
     35 C25         0.6576   -9.4314   -4.7348 C.ar      1 <0>        -0.1066
     36 C26         1.1226   -8.1401   -4.8998 C.ar      1 <0>        -0.1188
     37 C27         1.3420   -7.3380   -3.7955 C.ar      1 <0>        -0.0920
     38 H4          0.4682    1.8673    0.9166 H         1 <0>         0.0815
     39 H5          0.5197    1.8779   -0.8626 H         1 <0>         0.0764
     40 H6         -1.0467    1.8532   -0.0177 H         1 <0>         0.0774
     41 H7          1.8877   -0.1229   -1.0027 H         1 <0>         0.1444
     42 H8          1.9237   -2.5834   -1.0193 H         1 <0>         0.1373
     43 H9         -1.8475   -2.6457    0.9937 H         1 <0>         0.1377
     44 H10         4.6835   -4.5739    2.6878 H         1 <0>         0.1407
     45 H11         5.4240   -5.3157    4.9106 H         1 <0>         0.1439
     46 H12         4.3972   -7.2797    5.9712 H         1 <0>         0.1447
     47 H13         2.6211   -8.5284    4.8199 H         1 <0>         0.1444
     48 H14         0.4502   -9.5045   -1.3688 H         1 <0>         0.1302
     49 H15         0.0524  -10.9307   -3.3363 H         1 <0>         0.1272
     50 H16         0.4837  -10.0571   -5.5977 H         1 <0>         0.1257
     51 H17         1.3119   -7.7569   -5.8917 H         1 <0>         0.1277
     52 H18         1.7017   -6.3279   -3.9246 H         1 <0>         0.1260
@<TRIPOS>BOND
     1    1    2 1
     2    1   38 1
     3    1   39 1
     4    1   40 1
     5    2    7 ar
     6    2    3 ar
     7    3    4 ar
     8    3   41 1
     9    4    5 ar
    10    4   42 1
    11    5    6 ar
    12    5    9 1
    13    6    7 ar
    14    6   43 1
    15    7    8 1
    16    9   20 am
    17    9   10 am
    18   10   11 2
    19   10   12 1
    20   12   13 1
    21   12   18 1
    22   12   14 1
    23   14   15 1
    24   14   16 1
    25   14   32 1
    26   16   17 1
    27   17   30 1
    28   17   18 1
    29   17   22 1
    30   18   19 1
    31   18   20 1
    32   20   21 2
    33   22   23 2
    34   22   24 1
    35   24   29 ar
    36   24   25 ar
    37   25   26 ar
    38   25   44 1
    39   26   27 ar
    40   26   45 1
    41   27   28 ar
    42   27   46 1
    43   28   29 ar
    44   28   47 1
    45   29   30 1
    46   30   31 2
    47   32   37 ar
    48   32   33 ar
    49   33   34 ar
    50   33   48 1
    51   34   35 ar
    52   34   49 1
    53   35   36 ar
    54   35   50 1
    55   36   37 ar
    56   36   51 1
    57   37   52 1
@<TRIPOS>MOLECULE
ZINC03974230
   49    54     0     0     0
SMALL
USER_CHARGES

@<TRIPOS>ATOM
      1 C1         -0.1614    0.5842    0.8584 C.ar      1 <0>        -0.1039
      2 C2          0.9420    1.4168    0.8754 C.ar      1 <0>        -0.1162
      3 C3          2.2036    0.8969    0.6547 C.ar      1 <0>        -0.0913
      4 C4          2.3620   -0.4557    0.4174 C.ar      1 <0>        -0.1002
      5 C5          1.2587   -1.2885    0.4013 C.ar      1 <0>        -0.0875
      6 C6         -0.0031   -0.7683    0.6206 C.ar      1 <0>        -0.1135
      7 C7          3.7373   -1.0224    0.1757 C.3       1 <0>         0.1275
      8 H1          4.4930   -0.3944    0.6476 H         1 <0>         0.1191
      9 C8          4.0094   -1.1419   -1.3395 C.3       1 <0>        -0.1428
     10 H2          4.5360   -0.2781   -1.7454 H         1 <0>         0.1626
     11 C9          4.8152   -2.4664   -1.4712 C.3       1 <0>        -0.1338
     12 H3          5.7838   -2.3333   -1.9531 H         1 <0>         0.1610
     13 C10         3.8841   -3.3620   -2.2571 C.2       1 <0>         0.5391
     14 O1          4.1257   -4.5020   -2.5912 O.2       1 <0>        -0.4363
     15 N1          2.7522   -2.7015   -2.5262 N.am      1 <0>        -0.5272
     16 C11         2.7115   -1.4310   -2.0579 C.2       1 <0>         0.5383
     17 O2          1.7928   -0.6503   -2.1854 O.2       1 <0>        -0.4250
     18 C12         1.6918   -3.2746   -3.2430 C.ar      1 <0>         0.1289
     19 C13         0.9629   -4.3188   -2.6899 C.ar      1 <0>        -0.0773
     20 C14        -0.0814   -4.8818   -3.3970 C.ar      1 <0>        -0.0854
     21 C15        -0.4020   -4.4061   -4.6562 C.ar      1 <0>        -0.0203
     22 C16         0.3232   -3.3647   -5.2105 C.ar      1 <0>        -0.0224
     23 C17         1.3660   -2.7949   -4.5039 C.ar      1 <0>        -0.0807
     24 Cl1        -0.0814   -2.7701   -6.7905 Cl        1 <0>        -0.0336
     25 Cl2        -1.7148   -5.1162   -5.5427 Cl        1 <0>        -0.0355
     26 C18         4.9307   -2.9659   -0.0224 C.3       1 <0>         0.0210
     27 O3          3.8197   -2.3734    0.6826 O.3       1 <0>        -0.3060
     28 C19         6.2542   -2.5805    0.5768 C.2       1 <0>         0.4132
     29 O4          6.6853   -1.4553    0.7105 O.2       1 <0>        -0.3913
     30 C20         6.9288   -3.8322    0.9721 C.ar      1 <0>        -0.1457
     31 C21         8.1721   -4.0474    1.5705 C.ar      1 <0>        -0.0534
     32 C22         8.5939   -5.3334    1.8482 C.ar      1 <0>        -0.0942
     33 C23         7.7911   -6.4169    1.5373 C.ar      1 <0>        -0.0895
     34 C24         6.5572   -6.2264    0.9457 C.ar      1 <0>        -0.0550
     35 C25         6.1110   -4.9350    0.6565 C.ar      1 <0>        -0.1322
     36 C26         4.8559   -4.4658    0.0381 C.2       1 <0>         0.4213
     37 O5          3.9389   -5.1585   -0.3481 O.2       1 <0>        -0.3684
     38 H4         -1.1466    0.9897    1.0353 H         1 <0>         0.1239
     39 H5          0.8182    2.4735    1.0608 H         1 <0>         0.1265
     40 H6          3.0656    1.5475    0.6673 H         1 <0>         0.1260
     41 H7          1.3824   -2.3452    0.2155 H         1 <0>         0.1164
     42 H8         -0.8651   -1.4189    0.6076 H         1 <0>         0.1225
     43 H9          1.2126   -4.6910   -1.7073 H         1 <0>         0.1467
     44 H10        -0.6481   -5.6943   -2.9668 H         1 <0>         0.1546
     45 H11         1.9290   -1.9800   -4.9343 H         1 <0>         0.1466
     46 H12         8.8049   -3.2074    1.8163 H         1 <0>         0.1429
     47 H13         9.5567   -5.4942    2.3105 H         1 <0>         0.1437
     48 H14         8.1314   -7.4177    1.7583 H         1 <0>         0.1439
     49 H15         5.9368   -7.0774    0.7064 H         1 <0>         0.1428
@<TRIPOS>BOND
     1    1    6 ar
     2    1    2 ar
     3    1   38 1
     4    2    3 ar
     5    2   39 1
     6    3    4 ar
     7    3   40 1
     8    4    5 ar
     9    4    7 1
    10    5    6 ar
    11    5   41 1
    12    6   42 1
    13    7    8 1
    14    7   27 1
    15    7    9 1
    16    9   10 1
    17    9   16 1
    18    9   11 1
    19   11   12 1
    20   11   13 1
    21   11   26 1
    22   13   14 2
    23   13   15 am
    24   15   16 am
    25   15   18 1
    26   16   17 2
    27   18   23 ar
    28   18   19 ar
    29   19   20 ar
    30   19   43 1
    31   20   21 ar
    32   20   44 1
    33   21   22 ar
    34   21   25 1
    35   22   23 ar
    36   22   24 1
    37   23   45 1
    38   26   36 1
    39   26   27 1
    40   26   28 1
    41   28   29 2
    42   28   30 1
    43   30   35 ar
    44   30   31 ar
    45   31   32 ar
    46   31   46 1
    47   32   33 ar
    48   32   47 1
    49   33   34 ar
    50   33   48 1
    51   34   35 ar
    52   34   49 1
    53   35   36 1
    54   36   37 2
@<TRIPOS>MOLECULE
ZINC17994338
   49    54     0     0     0
SMALL
USER_CHARGES

@<TRIPOS>ATOM
      1 C1         -0.0751    1.3579    0.1768 C.ar      1 <0>        -0.1060
      2 C2          1.1031    2.0809    0.1769 C.ar      1 <0>        -0.1186
      3 C3          2.3177    1.4230    0.1237 C.ar      1 <0>        -0.0919
      4 C4          2.3542    0.0422    0.0709 C.ar      1 <0>        -0.0995
      5 C5          1.1760   -0.6809    0.0718 C.ar      1 <0>        -0.0901
      6 C6         -0.0387   -0.0230    0.1235 C.ar      1 <0>        -0.1211
      7 C7          3.6783   -0.6750    0.0119 C.3       1 <0>         0.1334
      8 H1          4.4577   -0.0009   -0.3433 H         1 <0>         0.1033
      9 C8          4.0471   -1.2360    1.4030 C.3       1 <0>        -0.1414
     10 H2          3.1866   -1.3309    2.0652 H         1 <0>         0.1621
     11 C9          4.7300   -2.5977    1.0858 C.3       1 <0>        -0.1320
     12 H3          4.2589   -3.4404    1.5918 H         1 <0>         0.1670
     13 C10         6.1614   -2.3779    1.5195 C.2       1 <0>         0.5311
     14 O1          7.0505   -3.1982    1.4409 O.2       1 <0>        -0.4419
     15 N1          6.2946   -1.1379    2.0038 N.am      1 <0>        -0.5236
     16 C11         5.1585   -0.3994    1.9953 C.2       1 <0>         0.5435
     17 O2          5.0421    0.7406    2.3908 O.2       1 <0>        -0.4333
     18 C12         7.5125   -0.6404    2.4895 C.ar      1 <0>         0.1234
     19 C13         8.1618    0.3862    1.8170 C.ar      1 <0>        -0.0758
     20 C14         9.3609    0.8753    2.2970 C.ar      1 <0>        -0.0855
     21 C15         9.9159    0.3432    3.4475 C.ar      1 <0>        -0.0192
     22 C16         9.2706   -0.6808    4.1203 C.ar      1 <0>        -0.0227
     23 C17         8.0675   -1.1697    3.6462 C.ar      1 <0>        -0.0796
     24 Cl1         9.9694   -1.3463    5.5634 Cl        1 <0>        -0.0318
     25 Cl2        11.4236    0.9598    4.0479 Cl        1 <0>        -0.0338
     26 C18         4.6474   -2.6988   -0.4449 C.3       1 <0>         0.0264
     27 O3          3.5846   -1.8322   -0.8488 O.3       1 <0>        -0.2965
     28 C19         5.9372   -2.2692   -1.0857 C.2       1 <0>         0.3968
     29 O4          6.4708   -1.1861   -0.9771 O.2       1 <0>        -0.3971
     30 C20         6.4308   -3.4163   -1.8722 C.ar      1 <0>        -0.1366
     31 C21         7.5765   -3.5569   -2.6581 C.ar      1 <0>        -0.0527
     32 C22         7.8280   -4.7492   -3.3094 C.ar      1 <0>        -0.0909
     33 C23         6.9499   -5.8122   -3.1894 C.ar      1 <0>        -0.0905
     34 C24         5.8101   -5.6942   -2.4174 C.ar      1 <0>        -0.0532
     35 C25         5.5366   -4.4981   -1.7506 C.ar      1 <0>        -0.1377
     36 C26         4.4082   -4.1181   -0.8788 C.2       1 <0>         0.4366
     37 O5          3.4674   -4.8178   -0.5705 O.2       1 <0>        -0.3817
     38 H4         -1.0239    1.8716    0.2229 H         1 <0>         0.1259
     39 H5          1.0747    3.1597    0.2182 H         1 <0>         0.1279
     40 H6          3.2382    1.9879    0.1231 H         1 <0>         0.1256
     41 H7          1.2044   -1.7597    0.0302 H         1 <0>         0.1301
     42 H8         -0.9592   -0.5879    0.1238 H         1 <0>         0.1274
     43 H9          7.7296    0.8019    0.9188 H         1 <0>         0.1472
     44 H10         9.8661    1.6736    1.7737 H         1 <0>         0.1558
     45 H11         7.5621   -1.9655    4.1732 H         1 <0>         0.1476
     46 H12         8.2669   -2.7323   -2.7572 H         1 <0>         0.1407
     47 H13         8.7153   -4.8522   -3.9163 H         1 <0>         0.1439
     48 H14         7.1567   -6.7396   -3.7027 H         1 <0>         0.1447
     49 H15         5.1295   -6.5282   -2.3298 H         1 <0>         0.1443
@<TRIPOS>BOND
     1    1    6 ar
     2    1    2 ar
     3    1   38 1
     4    2    3 ar
     5    2   39 1
     6    3    4 ar
     7    3   40 1
     8    4    5 ar
     9    4    7 1
    10    5    6 ar
    11    5   41 1
    12    6   42 1
    13    7    8 1
    14    7   27 1
    15    7    9 1
    16    9   10 1
    17    9   16 1
    18    9   11 1
    19   11   12 1
    20   11   13 1
    21   11   26 1
    22   13   14 2
    23   13   15 am
    24   15   16 am
    25   15   18 1
    26   16   17 2
    27   18   23 ar
    28   18   19 ar
    29   19   20 ar
    30   19   43 1
    31   20   21 ar
    32   20   44 1
    33   21   22 ar
    34   21   25 1
    35   22   23 ar
    36   22   24 1
    37   23   45 1
    38   26   36 1
    39   26   27 1
    40   26   28 1
    41   28   29 2
    42   28   30 1
    43   30   35 ar
    44   30   31 ar
    45   31   32 ar
    46   31   46 1
    47   32   33 ar
    48   32   47 1
    49   33   34 ar
    50   33   48 1
    51   34   35 ar
    52   34   49 1
    53   35   36 1
    54   36   37 2
@<TRIPOS>MOLECULE
ZINC09357355
   52    58     0     0     0
SMALL
USER_CHARGES

@<TRIPOS>ATOM
      1 C1         -0.0167    1.3781    0.0096 C.ar      1 <0>        -0.1064
      2 C2          1.1709    2.0855    0.0021 C.ar      1 <0>        -0.1146
      3 C3          2.3773    1.4107   -0.0130 C.ar      1 <0>        -0.0804
      4 C4          2.3960    0.0285   -0.0201 C.ar      1 <0>        -0.1263
      5 C5          1.2084   -0.6789   -0.0117 C.ar      1 <0>        -0.1112
      6 C6          0.0021   -0.0041    0.0020 C.ar      1 <0>        -0.1172
      7 C7          3.7112   -0.7071   -0.0376 C.3       1 <0>         0.1439
      8 H1          4.4938   -0.0882    0.4011 H         1 <0>         0.1340
      9 C8          4.0799   -1.0880   -1.4608 C.3       1 <0>        -0.1511
     10 H2          5.1551   -1.2153   -1.5866 H         1 <0>         0.1673
     11 C9          3.2794   -2.4493   -1.5310 C.3       1 <0>        -0.1952
     12 H3          2.2446   -2.1596   -1.3486 H         1 <0>         0.1458
     13 C10         3.2937   -2.7088   -2.9498 C.2       1 <0>         0.5854
     14 O1          3.3606   -3.7858   -3.5022 O.2       1 <0>        -0.4329
     15 N1          3.2143   -1.4708   -3.5389 N.am      1 <0>        -0.5390
     16 C11         3.4464   -0.4359   -2.6474 C.2       1 <0>         0.5598
     17 O2          3.2015    0.7428   -2.7909 O.2       1 <0>        -0.4128
     18 C12         2.9283   -1.2724   -4.8983 C.ar      1 <0>         0.1370
     19 C13         2.7014   -2.3632   -5.7262 C.ar      1 <0>        -0.1292
     20 C14         2.4187   -2.1697   -7.0647 C.ar      1 <0>        -0.0737
     21 C15         2.3614   -0.8866   -7.5846 C.ar      1 <0>         0.0260
     22 C16         2.5892    0.2099   -6.7564 C.ar      1 <0>         0.0598
     23 C17         2.8667    0.0147   -5.4137 C.ar      1 <0>        -0.1237
     24 O3          2.4770    1.3492   -7.5000 O.3       1 <0>        -0.3027
     25 C18         2.5828    0.9251   -8.8718 C.3       1 <0>         0.2124
     26 O4          2.1064   -0.4334   -8.8476 O.3       1 <0>        -0.3045
     27 C19         3.6736   -3.0674   -0.2589 C.3       1 <0>         0.0579
     28 O5          3.5950   -1.9608    0.6911 O.3       1 <0>        -0.3123
     29 C20         2.7673   -4.1793    0.1999 C.2       1 <0>         0.4287
     30 O6          1.5629   -4.1215    0.3251 O.2       1 <0>        -0.3859
     31 C21         3.6209   -5.3521    0.4677 C.ar      1 <0>        -0.1371
     32 C22         3.2928   -6.6350    0.9119 C.ar      1 <0>        -0.0534
     33 C23         4.2841   -7.5806    1.0910 C.ar      1 <0>        -0.0912
     34 C24         5.6069   -7.2668    0.8329 C.ar      1 <0>        -0.0911
     35 C25         5.9532   -6.0038    0.3927 C.ar      1 <0>        -0.0541
     36 C26         4.9672   -5.0325    0.2053 C.ar      1 <0>        -0.1384
     37 C27         5.0695   -3.6322   -0.2473 C.2       1 <0>         0.4146
     38 O7          6.0859   -3.0467   -0.5533 O.2       1 <0>        -0.3934
     39 H4         -0.9591    1.9053    0.0259 H         1 <0>         0.1255
     40 H5          1.1563    3.1654    0.0076 H         1 <0>         0.1275
     41 H6          3.3051    1.9634   -0.0196 H         1 <0>         0.1279
     42 H7          1.2231   -1.7588   -0.0176 H         1 <0>         0.1265
     43 H8         -0.9258   -0.5567    0.0082 H         1 <0>         0.1260
     44 H9          2.7455   -3.3644   -5.3235 H         1 <0>         0.1641
     45 H10         2.2425   -3.0199   -7.7069 H         1 <0>         0.1476
     46 H11         3.0388    0.8636   -4.7687 H         1 <0>         0.1608
     47 H12         1.9518    1.5408   -9.5128 H         1 <0>         0.1359
     48 H13         3.6200    0.9614   -9.2051 H         1 <0>         0.0882
     49 H14         2.2629   -6.8881    1.1161 H         1 <0>         0.1435
     50 H15         4.0249   -8.5710    1.4350 H         1 <0>         0.1442
     51 H16         6.3736   -8.0138    0.9768 H         1 <0>         0.1440
     52 H17         6.9880   -5.7671    0.1936 H         1 <0>         0.1431
@<TRIPOS>BOND
     1    1    6 ar
     2    1    2 ar
     3    1   39 1
     4    2    3 ar
     5    2   40 1
     6    3    4 ar
     7    3   41 1
     8    4    5 ar
     9    4    7 1
    10    5    6 ar
    11    5   42 1
    12    6   43 1
    13    7    8 1
    14    7   28 1
    15    7    9 1
    16    9   10 1
    17    9   16 1
    18    9   11 1
    19   11   12 1
    20   11   13 1
    21   11   27 1
    22   13   14 2
    23   13   15 am
    24   15   16 am
    25   15   18 1
    26   16   17 2
    27   18   23 ar
    28   18   19 ar
    29   19   20 ar
    30   19   44 1
    31   20   21 ar
    32   20   45 1
    33   21   26 1
    34   21   22 ar
    35   22   23 ar
    36   22   24 1
    37   23   46 1
    38   24   25 1
    39   25   26 1
    40   25   47 1
    41   25   48 1
    42   27   37 1
    43   27   28 1
    44   27   29 1
    45   29   30 2
    46   29   31 1
    47   31   36 ar
    48   31   32 ar
    49   32   33 ar
    50   32   49 1
    51   33   34 ar
    52   33   50 1
    53   34   35 ar
    54   34   51 1
    55   35   36 ar
    56   35   52 1
    57   36   37 1
    58   37   38 2
@<TRIPOS>MOLECULE
ZINC09357357
   52    58     0     0     0
SMALL
USER_CHARGES

@<TRIPOS>ATOM
      1 C1         -0.0167    1.3781    0.0096 C.ar      1 <0>        -0.1073
      2 C2          1.1709    2.0855    0.0021 C.ar      1 <0>        -0.1202
      3 C3          2.3773    1.4107   -0.0130 C.ar      1 <0>        -0.0942
      4 C4          2.3960    0.0285   -0.0201 C.ar      1 <0>        -0.1090
      5 C5          1.2084   -0.6789   -0.0117 C.ar      1 <0>        -0.0896
      6 C6          0.0021   -0.0041    0.0020 C.ar      1 <0>        -0.1209
      7 C7          3.7112   -0.7071   -0.0376 C.3       1 <0>         0.1439
      8 H1          4.5026   -0.0534   -0.4043 H         1 <0>         0.1162
      9 C8          4.0494   -1.2094    1.3552 C.3       1 <0>        -0.1513
     10 H2          3.1588   -1.4835    1.9207 H         1 <0>         0.1663
     11 C9          4.9224   -2.4555    0.9261 C.3       1 <0>        -0.1854
     12 H3          5.7363   -2.0233    0.3439 H         1 <0>         0.1431
     13 C10         5.5635   -2.7903    2.1740 C.2       1 <0>         0.5858
     14 O1          5.8506   -3.8949    2.5828 O.2       1 <0>        -0.4308
     15 N1          5.7785   -1.5862    2.7982 N.am      1 <0>        -0.5388
     16 C11         5.0786   -0.5444    2.2115 C.2       1 <0>         0.5597
     17 O2          5.2493    0.6467    2.3590 O.2       1 <0>        -0.4190
     18 C12         6.6168   -1.4255    3.9121 C.ar      1 <0>         0.1352
     19 C13         7.2885   -2.5201    4.4389 C.ar      1 <0>        -0.1278
     20 C14         8.1150   -2.3636    5.5349 C.ar      1 <0>        -0.0738
     21 C15         8.2754   -1.1140    6.1118 C.ar      1 <0>         0.0270
     22 C16         7.6022   -0.0139    5.5856 C.ar      1 <0>         0.0598
     23 C17         6.7787   -0.1712    4.4834 C.ar      1 <0>        -0.1239
     24 O3          7.9242    1.0885    6.3236 O.3       1 <0>        -0.3026
     25 C18         8.4772    0.5809    7.5522 C.3       1 <0>         0.2124
     26 O4          9.0193   -0.7000    7.1798 O.3       1 <0>        -0.3043
     27 C19         4.0637   -3.0503   -0.1057 C.3       1 <0>         0.0591
     28 O5          3.6119   -1.8934   -0.8737 O.3       1 <0>        -0.3129
     29 C20         2.8657   -3.7878    0.4320 C.2       1 <0>         0.4105
     30 O6          2.0416   -3.3539    1.2082 O.2       1 <0>        -0.3908
     31 C21         2.8834   -5.1369   -0.1639 C.ar      1 <0>        -0.1391
     32 C22         2.0101   -6.2152   -0.0033 C.ar      1 <0>        -0.0539
     33 C23         2.2379   -7.3979   -0.6802 C.ar      1 <0>        -0.0916
     34 C24         3.3294   -7.5251   -1.5213 C.ar      1 <0>        -0.0906
     35 C25         4.2058   -6.4710   -1.6940 C.ar      1 <0>        -0.0537
     36 C26         3.9955   -5.2669   -1.0182 C.ar      1 <0>        -0.1366
     37 C27         4.7689   -4.0108   -1.0265 C.2       1 <0>         0.4296
     38 O7          5.7814   -3.7926   -1.6565 O.2       1 <0>        -0.3840
     39 H4         -0.9591    1.9053    0.0259 H         1 <0>         0.1250
     40 H5          1.1563    3.1654    0.0076 H         1 <0>         0.1273
     41 H6          3.3051    1.9634   -0.0196 H         1 <0>         0.1277
     42 H7          1.2231   -1.7588   -0.0176 H         1 <0>         0.1257
     43 H8         -0.9258   -0.5567    0.0082 H         1 <0>         0.1252
     44 H9          7.1651   -3.4952    3.9912 H         1 <0>         0.1645
     45 H10         8.6365   -3.2167    5.9430 H         1 <0>         0.1479
     46 H11         6.2596    0.6813    4.0709 H         1 <0>         0.1608
     47 H12         9.2657    1.2387    7.9179 H         1 <0>         0.1363
     48 H13         7.6966    0.4626    8.3036 H         1 <0>         0.0885
     49 H14         1.1558   -6.1244    0.6512 H         1 <0>         0.1428
     50 H15         1.5596   -8.2284   -0.5522 H         1 <0>         0.1438
     51 H16         3.4970   -8.4539   -2.0463 H         1 <0>         0.1443
     52 H17         5.0550   -6.5784   -2.3525 H         1 <0>         0.1436
@<TRIPOS>BOND
     1    1    6 ar
     2    1    2 ar
     3    1   39 1
     4    2    3 ar
     5    2   40 1
     6    3    4 ar
     7    3   41 1
     8    4    5 ar
     9    4    7 1
    10    5    6 ar
    11    5   42 1
    12    6   43 1
    13    7    8 1
    14    7   28 1
    15    7    9 1
    16    9   10 1
    17    9   16 1
    18    9   11 1
    19   11   12 1
    20   11   13 1
    21   11   27 1
    22   13   14 2
    23   13   15 am
    24   15   16 am
    25   15   18 1
    26   16   17 2
    27   18   23 ar
    28   18   19 ar
    29   19   20 ar
    30   19   44 1
    31   20   21 ar
    32   20   45 1
    33   21   26 1
    34   21   22 ar
    35   22   23 ar
    36   22   24 1
    37   23   46 1
    38   24   25 1
    39   25   26 1
    40   25   47 1
    41   25   48 1
    42   27   37 1
    43   27   28 1
    44   27   29 1
    45   29   30 2
    46   29   31 1
    47   31   36 ar
    48   31   32 ar
    49   32   33 ar
    50   32   49 1
    51   33   34 ar
    52   33   50 1
    53   34   35 ar
    54   34   51 1
    55   35   36 ar
    56   35   52 1
    57   36   37 1
    58   37   38 2
@<TRIPOS>MOLECULE
ZINC08926089
   53    58     0     0     0
SMALL
USER_CHARGES

@<TRIPOS>ATOM
      1 C1         -0.0173    1.4248    0.0099 C.3       1 <0>         0.0259
      2 O1          0.0021   -0.0041    0.0020 O.3       1 <0>        -0.3024
      3 C2         -1.2007   -0.6377    0.0101 C.ar      1 <0>         0.1569
      4 C3         -2.3742    0.0995    0.0195 C.ar      1 <0>        -0.2037
      5 C4         -3.5962   -0.5462    0.0272 C.ar      1 <0>        -0.0613
      6 C5         -3.6523   -1.9280    0.0261 C.ar      1 <0>        -0.1495
      7 C6         -2.4866   -2.6702    0.0168 C.ar      1 <0>        -0.0596
      8 C7         -1.2567   -2.0292    0.0032 C.ar      1 <0>         0.0731
      9 N1         -0.0717   -2.7810   -0.0122 N.am      1 <0>        -0.5091
     10 C8          0.5467   -3.1792    1.1054 C.2       1 <0>         0.5364
     11 O2          0.1718   -2.9455    2.2343 O.2       1 <0>        -0.4384
     12 C9          1.7846   -3.9663    0.7417 C.3       1 <0>        -0.1451
     13 H1          1.7839   -4.9742    1.1568 H         1 <0>         0.1589
     14 C10         3.0382   -3.1552    1.1358 C.3       1 <0>         0.1297
     15 H2          3.8834   -3.8226    1.3044 H         1 <0>         0.1166
     16 O3          3.2980   -2.2920    0.0063 O.3       1 <0>        -0.3043
     17 C11         3.0359   -3.0968   -1.1526 C.3       1 <0>         0.0237
     18 C12         1.7780   -3.9460   -0.8141 C.3       1 <0>        -0.1346
     19 H3          1.7932   -4.9421   -1.2564 H         1 <0>         0.1590
     20 C13         0.5282   -3.1623   -1.1455 C.2       1 <0>         0.5397
     21 O4          0.1328   -2.9151   -2.2646 O.2       1 <0>        -0.4427
     22 C14         2.8005   -2.2439   -2.3672 C.2       1 <0>         0.4174
     23 O5          1.9451   -1.3947   -2.4977 O.2       1 <0>        -0.3593
     24 C15         3.8085   -2.6366   -3.3711 C.ar      1 <0>        -0.1300
     25 C16         4.0355   -2.1668   -4.6666 C.ar      1 <0>        -0.0570
     26 C17         5.0571   -2.7010   -5.4282 C.ar      1 <0>        -0.0901
     27 C18         5.8631   -3.7025   -4.9159 C.ar      1 <0>        -0.0962
     28 C19         5.6565   -4.1815   -3.6364 C.ar      1 <0>        -0.0541
     29 C20         4.6293   -3.6558   -2.8495 C.ar      1 <0>        -0.1466
     30 C21         4.2046   -3.9852   -1.4752 C.2       1 <0>         0.4109
     31 O6          4.7039   -4.8142   -0.7450 O.2       1 <0>        -0.3938
     32 C22         2.7647   -2.3363    2.3710 C.ar      1 <0>        -0.1015
     33 C23         2.0735   -1.1434    2.2703 C.ar      1 <0>        -0.0792
     34 C24         1.8226   -0.3923    3.4033 C.ar      1 <0>        -0.1158
     35 C25         2.2625   -0.8342    4.6371 C.ar      1 <0>        -0.1049
     36 C26         2.9529   -2.0276    4.7378 C.ar      1 <0>        -0.1214
     37 C27         3.2001   -2.7809    3.6054 C.ar      1 <0>        -0.0920
     38 H4          1.0053    1.8021    0.0021 H         1 <0>         0.1024
     39 H5         -0.5445    1.7859   -0.8732 H         1 <0>         0.0592
     40 H6         -0.5275    1.7763    0.9067 H         1 <0>         0.0579
     41 H7         -2.3338    1.1788    0.0211 H         1 <0>         0.1374
     42 H8         -4.5097    0.0298    0.0345 H         1 <0>         0.1334
     43 H9         -4.6094   -2.4283    0.0328 H         1 <0>         0.1347
     44 H10        -2.5334   -3.7491    0.0159 H         1 <0>         0.1324
     45 H11         3.4113   -1.3851   -5.0738 H         1 <0>         0.1418
     46 H12         5.2275   -2.3348   -6.4298 H         1 <0>         0.1429
     47 H13         6.6586   -4.1127   -5.5203 H         1 <0>         0.1429
     48 H14         6.2898   -4.9636   -3.2445 H         1 <0>         0.1422
     49 H15         1.7299   -0.7981    1.3065 H         1 <0>         0.1282
     50 H16         1.2832    0.5401    3.3246 H         1 <0>         0.1179
     51 H17         2.0671   -0.2470    5.5221 H         1 <0>         0.1217
     52 H18         3.2969   -2.3727    5.7017 H         1 <0>         0.1249
     53 H19         3.7362   -3.7150    3.6846 H         1 <0>         0.1246
@<TRIPOS>BOND
     1    1    2 1
     2    1   38 1
     3    1   39 1
     4    1   40 1
     5    2    3 1
     6    3    8 ar
     7    3    4 ar
     8    4    5 ar
     9    4   41 1
    10    5    6 ar
    11    5   42 1
    12    6    7 ar
    13    6   43 1
    14    7    8 ar
    15    7   44 1
    16    8    9 1
    17    9   20 am
    18    9   10 am
    19   10   11 2
    20   10   12 1
    21   12   13 1
    22   12   18 1
    23   12   14 1
    24   14   15 1
    25   14   16 1
    26   14   32 1
    27   16   17 1
    28   17   30 1
    29   17   18 1
    30   17   22 1
    31   18   19 1
    32   18   20 1
    33   20   21 2
    34   22   23 2
    35   22   24 1
    36   24   29 ar
    37   24   25 ar
    38   25   26 ar
    39   25   45 1
    40   26   27 ar
    41   26   46 1
    42   27   28 ar
    43   27   47 1
    44   28   29 ar
    45   28   48 1
    46   29   30 1
    47   30   31 2
    48   32   37 ar
    49   32   33 ar
    50   33   34 ar
    51   33   49 1
    52   34   35 ar
    53   34   50 1
    54   35   36 ar
    55   35   51 1
    56   36   37 ar
    57   36   52 1
    58   37   53 1
@<TRIPOS>MOLECULE
ZINC18066800
   53    58     0     0     0
SMALL
USER_CHARGES

@<TRIPOS>ATOM
      1 C1         -0.0733    1.2664   -0.5588 C.3       1 <0>         0.0251
      2 O1         -0.0230   -0.1590   -0.4708 O.3       1 <0>        -0.3115
      3 C2         -1.2103   -0.8211   -0.4927 C.ar      1 <0>         0.1508
      4 C3         -2.3975   -0.1147   -0.6024 C.ar      1 <0>        -0.2022
      5 C4         -3.6037   -0.7894   -0.6250 C.ar      1 <0>        -0.0595
      6 C5         -3.6300   -2.1692   -0.5379 C.ar      1 <0>        -0.1473
      7 C6         -2.4505   -2.8807   -0.4283 C.ar      1 <0>        -0.0583
      8 C7         -1.2360   -2.2110   -0.4107 C.ar      1 <0>         0.0718
      9 N1         -0.0365   -2.9320   -0.3053 N.am      1 <0>        -0.5390
     10 C8          0.5489   -3.2581    0.8855 C.2       1 <0>         0.5585
     11 O2          0.0331   -3.2456    1.9825 O.2       1 <0>        -0.4312
     12 C9          1.9666   -3.6358    0.5525 C.3       1 <0>        -0.1411
     13 H1          2.6465   -2.7856    0.4980 H         1 <0>         0.1677
     14 C10         2.5847   -4.8807    1.2010 C.3       1 <0>         0.1430
     15 H2          3.1811   -4.6061    2.0711 H         1 <0>         0.1441
     16 O3          3.4334   -5.4160    0.1418 O.3       1 <0>        -0.3153
     17 C11         2.8765   -5.0238   -1.1466 C.3       1 <0>         0.0619
     18 C12         1.6228   -4.3235   -0.8319 C.3       1 <0>        -0.1946
     19 H3          0.9733   -5.1534   -0.5534 H         1 <0>         0.1347
     20 C13         0.6731   -3.3912   -1.3877 C.2       1 <0>         0.5868
     21 O4          0.5344   -3.0806   -2.5513 O.2       1 <0>        -0.4392
     22 C14         3.8787   -4.1607   -1.8710 C.2       1 <0>         0.4172
     23 O5          4.2921   -3.0801   -1.5088 O.2       1 <0>        -0.3896
     24 C15         4.2626   -4.8766   -3.1015 C.ar      1 <0>        -0.1355
     25 C16         5.1495   -4.5244   -4.1216 C.ar      1 <0>        -0.0558
     26 C17         5.3474   -5.3751   -5.1921 C.ar      1 <0>        -0.0905
     27 C18         4.6713   -6.5804   -5.2639 C.ar      1 <0>        -0.0936
     28 C19         3.7894   -6.9481   -4.2660 C.ar      1 <0>        -0.0536
     29 C20         3.5744   -6.1030   -3.1747 C.ar      1 <0>        -0.1396
     30 C21         2.7011   -6.2572   -1.9969 C.2       1 <0>         0.4195
     31 O6          1.9774   -7.1997   -1.7565 O.2       1 <0>        -0.3851
     32 C22         1.5139   -5.8702    1.5822 C.ar      1 <0>        -0.1492
     33 C23         1.3959   -7.0614    0.8908 C.ar      1 <0>        -0.1054
     34 C24         0.4137   -7.9691    1.2404 C.ar      1 <0>        -0.1216
     35 C25        -0.4503   -7.6857    2.2817 C.ar      1 <0>        -0.1084
     36 C26        -0.3318   -6.4949    2.9736 C.ar      1 <0>        -0.1230
     37 C27         0.6532   -5.5891    2.6268 C.ar      1 <0>        -0.0907
     38 H4          0.9395    1.6681   -0.5303 H         1 <0>         0.1048
     39 H5         -0.5529    1.5560   -1.4938 H         1 <0>         0.0601
     40 H6         -0.6449    1.6623    0.2806 H         1 <0>         0.0599
     41 H7         -2.3803    0.9630   -0.6698 H         1 <0>         0.1391
     42 H8         -4.5280   -0.2374   -0.7105 H         1 <0>         0.1352
     43 H9         -4.5749   -2.6921   -0.5552 H         1 <0>         0.1361
     44 H10        -2.4740   -3.9583   -0.3605 H         1 <0>         0.1336
     45 H11         5.6810   -3.5855   -4.0737 H         1 <0>         0.1427
     46 H12         6.0340   -5.0974   -5.9782 H         1 <0>         0.1436
     47 H13         4.8338   -7.2376   -6.1054 H         1 <0>         0.1436
     48 H14         3.2654   -7.8903   -4.3297 H         1 <0>         0.1428
     49 H15         2.0709   -7.2828    0.0773 H         1 <0>         0.1445
     50 H16         0.3210   -8.8995    0.6999 H         1 <0>         0.1243
     51 H17        -1.2182   -8.3946    2.5544 H         1 <0>         0.1228
     52 H18        -1.0070   -6.2734    3.7869 H         1 <0>         0.1247
     53 H19         0.7482   -4.6604    3.1697 H         1 <0>         0.1420
@<TRIPOS>BOND
     1    1    2 1
     2    1   38 1
     3    1   39 1
     4    1   40 1
     5    2    3 1
     6    3    8 ar
     7    3    4 ar
     8    4    5 ar
     9    4   41 1
    10    5    6 ar
    11    5   42 1
    12    6    7 ar
    13    6   43 1
    14    7    8 ar
    15    7   44 1
    16    8    9 1
    17    9   20 am
    18    9   10 am
    19   10   11 2
    20   10   12 1
    21   12   13 1
    22   12   18 1
    23   12   14 1
    24   14   15 1
    25   14   16 1
    26   14   32 1
    27   16   17 1
    28   17   30 1
    29   17   18 1
    30   17   22 1
    31   18   19 1
    32   18   20 1
    33   20   21 2
    34   22   23 2
    35   22   24 1
    36   24   29 ar
    37   24   25 ar
    38   25   26 ar
    39   25   45 1
    40   26   27 ar
    41   26   46 1
    42   27   28 ar
    43   27   47 1
    44   28   29 ar
    45   28   48 1
    46   29   30 1
    47   30   31 2
    48   32   37 ar
    49   32   33 ar
    50   33   34 ar
    51   33   49 1
    52   34   35 ar
    53   34   50 1
    54   35   36 ar
    55   35   51 1
    56   36   37 ar
    57   36   52 1
    58   37   53 1
