@<TRIPOS>MOLECULE
ZINC17994338
   49    54     0     0     0
SMALL
USER_CHARGES

@<TRIPOS>ATOM
      1 C1         -0.0751    1.3579    0.1768 C.ar      1 <0>        -0.1060
      2 C2          1.1031    2.0809    0.1769 C.ar      1 <0>        -0.1186
      3 C3          2.3177    1.4230    0.1237 C.ar      1 <0>        -0.0919
      4 C4          2.3542    0.0422    0.0709 C.ar      1 <0>        -0.0995
      5 C5          1.1760   -0.6809    0.0718 C.ar      1 <0>        -0.0901
      6 C6         -0.0387   -0.0230    0.1235 C.ar      1 <0>        -0.1211
      7 C7          3.6783   -0.6750    0.0119 C.3       1 <0>         0.1334
      8 H1          4.4577   -0.0009   -0.3433 H         1 <0>         0.1033
      9 C8          4.0471   -1.2360    1.4030 C.3       1 <0>        -0.1414
     10 H2          3.1866   -1.3309    2.0652 H         1 <0>         0.1621
     11 C9          4.7300   -2.5977    1.0858 C.3       1 <0>        -0.1320
     12 H3          4.2589   -3.4404    1.5918 H         1 <0>         0.1670
     13 C10         6.1614   -2.3779    1.5195 C.2       1 <0>         0.5311
     14 O1          7.0505   -3.1982    1.4409 O.2       1 <0>        -0.4419
     15 N1          6.2946   -1.1379    2.0038 N.am      1 <0>        -0.5236
     16 C11         5.1585   -0.3994    1.9953 C.2       1 <0>         0.5435
     17 O2          5.0421    0.7406    2.3908 O.2       1 <0>        -0.4333
     18 C12         7.5125   -0.6404    2.4895 C.ar      1 <0>         0.1234
     19 C13         8.1618    0.3862    1.8170 C.ar      1 <0>        -0.0758
     20 C14         9.3609    0.8753    2.2970 C.ar      1 <0>        -0.0855
     21 C15         9.9159    0.3432    3.4475 C.ar      1 <0>        -0.0192
     22 C16         9.2706   -0.6808    4.1203 C.ar      1 <0>        -0.0227
     23 C17         8.0675   -1.1697    3.6462 C.ar      1 <0>        -0.0796
     24 Cl1         9.9694   -1.3463    5.5634 Cl        1 <0>        -0.0318
     25 Cl2        11.4236    0.9598    4.0479 Cl        1 <0>        -0.0338
     26 C18         4.6474   -2.6988   -0.4449 C.3       1 <0>         0.0264
     27 O3          3.5846   -1.8322   -0.8488 O.3       1 <0>        -0.2965
     28 C19         5.9372   -2.2692   -1.0857 C.2       1 <0>         0.3968
     29 O4          6.4708   -1.1861   -0.9771 O.2       1 <0>        -0.3971
     30 C20         6.4308   -3.4163   -1.8722 C.ar      1 <0>        -0.1366
     31 C21         7.5765   -3.5569   -2.6581 C.ar      1 <0>        -0.0527
     32 C22         7.8280   -4.7492   -3.3094 C.ar      1 <0>        -0.0909
     33 C23         6.9499   -5.8122   -3.1894 C.ar      1 <0>        -0.0905
     34 C24         5.8101   -5.6942   -2.4174 C.ar      1 <0>        -0.0532
     35 C25         5.5366   -4.4981   -1.7506 C.ar      1 <0>        -0.1377
     36 C26         4.4082   -4.1181   -0.8788 C.2       1 <0>         0.4366
     37 O5          3.4674   -4.8178   -0.5705 O.2       1 <0>        -0.3817
     38 H4         -1.0239    1.8716    0.2229 H         1 <0>         0.1259
     39 H5          1.0747    3.1597    0.2182 H         1 <0>         0.1279
     40 H6          3.2382    1.9879    0.1231 H         1 <0>         0.1256
     41 H7          1.2044   -1.7597    0.0302 H         1 <0>         0.1301
     42 H8         -0.9592   -0.5879    0.1238 H         1 <0>         0.1274
     43 H9          7.7296    0.8019    0.9188 H         1 <0>         0.1472
     44 H10         9.8661    1.6736    1.7737 H         1 <0>         0.1558
     45 H11         7.5621   -1.9655    4.1732 H         1 <0>         0.1476
     46 H12         8.2669   -2.7323   -2.7572 H         1 <0>         0.1407
     47 H13         8.7153   -4.8522   -3.9163 H         1 <0>         0.1439
     48 H14         7.1567   -6.7396   -3.7027 H         1 <0>         0.1447
     49 H15         5.1295   -6.5282   -2.3298 H         1 <0>         0.1443
@<TRIPOS>BOND
     1    1    6 ar
     2    1    2 ar
     3    1   38 1
     4    2    3 ar
     5    2   39 1
     6    3    4 ar
     7    3   40 1
     8    4    5 ar
     9    4    7 1
    10    5    6 ar
    11    5   41 1
    12    6   42 1
    13    7    8 1
    14    7   27 1
    15    7    9 1
    16    9   10 1
    17    9   16 1
    18    9   11 1
    19   11   12 1
    20   11   13 1
    21   11   26 1
    22   13   14 2
    23   13   15 am
    24   15   16 am
    25   15   18 1
    26   16   17 2
    27   18   23 ar
    28   18   19 ar
    29   19   20 ar
    30   19   43 1
    31   20   21 ar
    32   20   44 1
    33   21   22 ar
    34   21   25 1
    35   22   23 ar
    36   22   24 1
    37   23   45 1
    38   26   36 1
    39   26   27 1
    40   26   28 1
    41   28   29 2
    42   28   30 1
    43   30   35 ar
    44   30   31 ar
    45   31   32 ar
    46   31   46 1
    47   32   33 ar
    48   32   47 1
    49   33   34 ar
    50   33   48 1
    51   34   35 ar
    52   34   49 1
    53   35   36 1
    54   36   37 2
