@<TRIPOS>MOLECULE
ZINC00709344
   29    31     0     0     0
SMALL
USER_CHARGES
2-(4-bromophenyl)-6-chloro-quinoline-4-carboxylic acid
@<TRIPOS>ATOM
      1 C1          2.3727   -3.4336    0.2830 C.ar      1 <0>        -0.0910
      2 C2          2.3472   -4.8102    0.3730 C.ar      1 <0>        -0.0931
      3 C3          3.5299   -5.5294    0.3559 C.ar      1 <0>        -0.0848
      4 C4          4.7434   -4.8729    0.2428 C.ar      1 <0>        -0.0992
      5 C5          4.7798   -3.4970    0.1464 C.ar      1 <0>        -0.0746
      6 C6          3.5917   -2.7679    0.1630 C.ar      1 <0>        -0.0250
      7 C7          3.6248   -1.2892    0.0597 C.ar      1 <0>         0.1927
      8 C8          2.4131   -0.5818    0.0792 C.ar      1 <0>        -0.1360
      9 C9          2.4310    0.8028   -0.0168 C.ar      1 <0>        -0.0370
     10 C10         3.7375    1.4505   -0.1409 C.ar      1 <0>        -0.0782
     11 C11         3.8578    2.8407   -0.2370 C.ar      1 <0>        -0.0649
     12 C12         5.0959    3.4041   -0.3457 C.ar      1 <0>        -0.0535
     13 C13         6.2429    2.6109   -0.3559 C.ar      1 <0>        -0.0964
     14 C14         6.1608    1.2564   -0.2582 C.ar      1 <0>        -0.0923
     15 C15         4.9005    0.6396   -0.1447 C.ar      1 <0>         0.1273
     16 N1          4.7897   -0.6859   -0.0475 N.ar      1 <0>        -0.4772
     17 Cl1         5.2450    5.1291   -0.4720 Cl        1 <0>        -0.0770
     18 C16         1.1809    1.5907   -0.0007 C.2       1 <0>         0.4932
     19 O1          1.2281    2.8043    0.0185 O.co2     1 <0>        -0.6101
     20 Br1         3.4878   -7.4153    0.4882 Br        1 <0>        -0.0583
     21 H1          1.4497   -2.8731    0.3009 H         1 <0>         0.1446
     22 H2          1.4032   -5.3272    0.4618 H         1 <0>         0.1367
     23 H3          5.6633   -5.4387    0.2303 H         1 <0>         0.1337
     24 H4          5.7271   -2.9858    0.0585 H         1 <0>         0.1445
     25 H5          1.4752   -1.1098    0.1685 H         1 <0>         0.1516
     26 H6          2.9759    3.4641   -0.2304 H         1 <0>         0.1828
     27 H7          7.2120    3.0795   -0.4432 H         1 <0>         0.1338
     28 H8          7.0589    0.6567   -0.2681 H         1 <0>         0.1394
     29 O2         -0.0111    0.9630   -0.0071 O.co2     1 <0>        -0.7318
@<TRIPOS>BOND
     1    1    6 ar
     2    1    2 ar
     3    1   21 1
     4    2    3 ar
     5    2   22 1
     6    3    4 ar
     7    3   20 1
     8    4    5 ar
     9    4   23 1
    10    5    6 ar
    11    5   24 1
    12    6    7 1
    13    7   16 ar
    14    7    8 ar
    15    8    9 ar
    16    8   25 1
    17    9   10 ar
    18    9   18 1
    19   10   15 ar
    20   10   11 ar
    21   11   12 ar
    22   11   26 1
    23   12   13 ar
    24   12   17 1
    25   13   14 ar
    26   13   27 1
    27   14   15 ar
    28   14   28 1
    29   15   16 ar
    30   18   19 2
    31   18   29 1
@<TRIPOS>MOLECULE
ZINC00999583
   29    31     0     0     0
SMALL
USER_CHARGES
6-bromo-2-(4-bromophenyl)-quinoline-4-carboxylic acid
@<TRIPOS>ATOM
      1 C1          2.3727   -3.4337    0.2821 C.ar      1 <0>        -0.0904
      2 C2          2.3473   -4.8102    0.3735 C.ar      1 <0>        -0.0932
      3 C3          3.5300   -5.5294    0.3560 C.ar      1 <0>        -0.0843
      4 C4          4.7435   -4.8730    0.2423 C.ar      1 <0>        -0.0993
      5 C5          4.7799   -3.4971    0.1458 C.ar      1 <0>        -0.0740
      6 C6          3.5917   -2.7680    0.1625 C.ar      1 <0>        -0.0261
      7 C7          3.6249   -1.2892    0.0597 C.ar      1 <0>         0.1966
      8 C8          2.4131   -0.5818    0.0792 C.ar      1 <0>        -0.1384
      9 C9          2.4310    0.8028   -0.0168 C.ar      1 <0>        -0.0338
     10 C10         3.7375    1.4504   -0.1409 C.ar      1 <0>        -0.0862
     11 C11         3.8579    2.8408   -0.2365 C.ar      1 <0>        -0.0403
     12 C12         5.0959    3.4041   -0.3442 C.ar      1 <0>        -0.1099
     13 C13         6.2427    2.6113   -0.3540 C.ar      1 <0>        -0.0814
     14 C14         6.1608    1.2566   -0.2568 C.ar      1 <0>        -0.0983
     15 C15         4.9006    0.6397   -0.1443 C.ar      1 <0>         0.1366
     16 N1          4.7897   -0.6859   -0.0471 N.ar      1 <0>        -0.4796
     17 Br1         5.2582    5.2832   -0.4812 Br        1 <0>        -0.0586
     18 C16         1.1809    1.5907   -0.0007 C.2       1 <0>         0.4929
     19 O1          1.2280    2.8043    0.0184 O.co2     1 <0>        -0.6095
     20 Br2         3.4878   -7.4153    0.4884 Br        1 <0>        -0.0580
     21 H1          1.4497   -2.8732    0.3000 H         1 <0>         0.1447
     22 H2          1.4033   -5.3271    0.4627 H         1 <0>         0.1369
     23 H3          5.6633   -5.4388    0.2295 H         1 <0>         0.1338
     24 H4          5.7271   -2.9859    0.0579 H         1 <0>         0.1446
     25 H5          1.4752   -1.1098    0.1685 H         1 <0>         0.1519
     26 H6          2.9760    3.4641   -0.2302 H         1 <0>         0.1827
     27 H7          7.2118    3.0800   -0.4405 H         1 <0>         0.1329
     28 H8          7.0590    0.6570   -0.2663 H         1 <0>         0.1387
     29 O2         -0.0111    0.9630   -0.0071 O.co2     1 <0>        -0.7309
@<TRIPOS>BOND
     1    1    6 ar
     2    1    2 ar
     3    1   21 1
     4    2    3 ar
     5    2   22 1
     6    3    4 ar
     7    3   20 1
     8    4    5 ar
     9    4   23 1
    10    5    6 ar
    11    5   24 1
    12    6    7 1
    13    7   16 ar
    14    7    8 ar
    15    8    9 ar
    16    8   25 1
    17    9   10 ar
    18    9   18 1
    19   10   15 ar
    20   10   11 ar
    21   11   12 ar
    22   11   26 1
    23   12   13 ar
    24   12   17 1
    25   13   14 ar
    26   13   27 1
    27   14   15 ar
    28   14   28 1
    29   15   16 ar
    30   18   19 2
    31   18   29 1
@<TRIPOS>MOLECULE
ZINC00044904
   35    38     0     0     0
SMALL
USER_CHARGES
2-(2-naphthyl)quinoline-4-carboxylic acid
@<TRIPOS>ATOM
      1 C1          2.3915    4.1458   -0.0678 C.ar      1 <0>        -0.1192
      2 C2          3.6030    3.4569   -0.0697 C.ar      1 <0>        -0.1258
      3 C3          3.6346    2.0963   -0.0637 C.ar      1 <0>        -0.0981
      4 C4          2.4291    1.3721   -0.0551 C.ar      1 <0>        -0.0578
      5 C5          2.4255   -0.0312   -0.0493 C.ar      1 <0>        -0.0653
      6 C6          1.2199   -0.7083   -0.0413 C.ar      1 <0>        -0.0371
      7 C7          0.0048   -0.0030   -0.0395 C.ar      1 <0>        -0.0915
      8 C8         -0.0125    1.3546   -0.0454 C.ar      1 <0>        -0.1130
      9 C9          1.1968    2.0732   -0.0532 C.ar      1 <0>        -0.0462
     10 C10         1.2052    3.4782   -0.0600 C.ar      1 <0>        -0.1076
     11 C11         1.2093   -2.1906   -0.0352 C.ar      1 <0>         0.1903
     12 C12        -0.0205   -2.8596   -0.1347 C.ar      1 <0>        -0.1397
     13 C13        -0.0434   -4.2473   -0.1301 C.ar      1 <0>        -0.0442
     14 C14         1.2411   -4.9397   -0.0195 C.ar      1 <0>        -0.0854
     15 C15         1.3202   -6.3365   -0.0067 C.ar      1 <0>        -0.0778
     16 C16         2.5377   -6.9413    0.0982 C.ar      1 <0>        -0.1434
     17 C17         3.7045   -6.1856    0.1921 C.ar      1 <0>        -0.1038
     18 C18         3.6634   -4.8254    0.1822 C.ar      1 <0>        -0.1095
     19 C19         2.4248   -4.1655    0.0757 C.ar      1 <0>         0.1241
     20 N1          2.3540   -2.8336    0.0581 N.ar      1 <0>        -0.4820
     21 C20        -1.3137   -4.9956   -0.2331 C.2       1 <0>         0.4947
     22 O1         -1.2993   -6.2062   -0.3302 O.co2     1 <0>        -0.6138
     23 H1          2.3939    5.2258   -0.0731 H         1 <0>         0.1196
     24 H2          4.5301    4.0107   -0.0763 H         1 <0>         0.1201
     25 H3          4.5807    1.5755   -0.0653 H         1 <0>         0.1264
     26 H4          3.3569   -0.5780   -0.0507 H         1 <0>         0.1407
     27 H5         -0.9276   -0.5479   -0.0335 H         1 <0>         0.1363
     28 H6         -0.9546    1.8827   -0.0488 H         1 <0>         0.1305
     29 H7          0.2745    4.0262   -0.0586 H         1 <0>         0.1255
     30 H8         -0.9406   -2.2997   -0.2139 H         1 <0>         0.1481
     31 H9          0.4221   -6.9321   -0.0785 H         1 <0>         0.1706
     32 H10         2.5984   -8.0195    0.1084 H         1 <0>         0.1218
     33 H11         4.6572   -6.6876    0.2743 H         1 <0>         0.1213
     34 H12         4.5774   -4.2547    0.2562 H         1 <0>         0.1275
     35 O2         -2.4877   -4.3348   -0.2193 O.co2     1 <0>        -0.7361
@<TRIPOS>BOND
     1    1   10 ar
     2    1    2 ar
     3    1   23 1
     4    2    3 ar
     5    2   24 1
     6    3    4 ar
     7    3   25 1
     8    4    9 ar
     9    4    5 ar
    10    5    6 ar
    11    5   26 1
    12    6    7 ar
    13    6   11 1
    14    7    8 ar
    15    7   27 1
    16    8    9 ar
    17    8   28 1
    18    9   10 ar
    19   10   29 1
    20   11   20 ar
    21   11   12 ar
    22   12   13 ar
    23   12   30 1
    24   13   14 ar
    25   13   21 1
    26   14   19 ar
    27   14   15 ar
    28   15   16 ar
    29   15   31 1
    30   16   17 ar
    31   16   32 1
    32   17   18 ar
    33   17   33 1
    34   18   19 ar
    35   18   34 1
    36   19   20 ar
    37   21   22 2
    38   21   35 1
@<TRIPOS>MOLECULE
ZINC08443064
   29    31     0     0     0
SMALL
USER_CHARGES
2-(4-bromophenyl)-6-iodo-quinoline-4-carboxylic acid
@<TRIPOS>ATOM
      1 C1          2.3728   -3.4337    0.2820 C.ar      1 <0>        -0.0904
      2 C2          2.3472   -4.8103    0.3715 C.ar      1 <0>        -0.0933
      3 C3          3.5300   -5.5296    0.3545 C.ar      1 <0>        -0.0843
      4 C4          4.7435   -4.8730    0.2418 C.ar      1 <0>        -0.0993
      5 C5          4.7799   -3.4971    0.1458 C.ar      1 <0>        -0.0739
      6 C6          3.5918   -2.7680    0.1625 C.ar      1 <0>        -0.0264
      7 C7          3.6249   -1.2892    0.0597 C.ar      1 <0>         0.1976
      8 C8          2.4131   -0.5818    0.0792 C.ar      1 <0>        -0.1392
      9 C9          2.4310    0.8028   -0.0168 C.ar      1 <0>        -0.0334
     10 C10         3.7375    1.4504   -0.1409 C.ar      1 <0>        -0.0878
     11 C11         3.8580    2.8408   -0.2370 C.ar      1 <0>        -0.0347
     12 C12         5.0957    3.4040   -0.3446 C.ar      1 <0>        -0.1201
     13 C13         6.2423    2.6115   -0.3540 C.ar      1 <0>        -0.0770
     14 C14         6.1607    1.2567   -0.2568 C.ar      1 <0>        -0.0998
     15 C15         4.9006    0.6397   -0.1443 C.ar      1 <0>         0.1394
     16 N1          4.7898   -0.6859   -0.0471 N.ar      1 <0>        -0.4803
     17 I1          5.2754    5.4857   -0.4970 I         1 <0>        -0.0511
     18 C16         1.1809    1.5907   -0.0007 C.2       1 <0>         0.4929
     19 O1          1.2280    2.8042    0.0184 O.co2     1 <0>        -0.6095
     20 Br1         3.4878   -7.4155    0.4862 Br        1 <0>        -0.0579
     21 H1          1.4498   -2.8732    0.2999 H         1 <0>         0.1447
     22 H2          1.4031   -5.3274    0.4596 H         1 <0>         0.1369
     23 H3          5.6633   -5.4388    0.2293 H         1 <0>         0.1338
     24 H4          5.7272   -2.9858    0.0583 H         1 <0>         0.1447
     25 H5          1.4752   -1.1097    0.1685 H         1 <0>         0.1517
     26 H6          2.9761    3.4642   -0.2307 H         1 <0>         0.1805
     27 H7          7.2114    3.0804   -0.4402 H         1 <0>         0.1292
     28 H8          7.0590    0.6573   -0.2664 H         1 <0>         0.1377
     29 O2         -0.0111    0.9630   -0.0071 O.co2     1 <0>        -0.7308
@<TRIPOS>BOND
     1    1    6 ar
     2    1    2 ar
     3    1   21 1
     4    2    3 ar
     5    2   22 1
     6    3    4 ar
     7    3   20 1
     8    4    5 ar
     9    4   23 1
    10    5    6 ar
    11    5   24 1
    12    6    7 1
    13    7   16 ar
    14    7    8 ar
    15    8    9 ar
    16    8   25 1
    17    9   10 ar
    18    9   18 1
    19   10   15 ar
    20   10   11 ar
    21   11   12 ar
    22   11   26 1
    23   12   13 ar
    24   12   17 1
    25   13   14 ar
    26   13   27 1
    27   14   15 ar
    28   14   28 1
    29   15   16 ar
    30   18   19 2
    31   18   29 1
@<TRIPOS>MOLECULE
ZINC00035846
   29    31     0     0     0
SMALL
USER_CHARGES
2-(4-bromophenyl)quinoline-4-carboxylic acid
@<TRIPOS>ATOM
      1 C1          5.0949    3.4036   -0.3460 C.ar      1 <0>        -0.1414
      2 C2          6.2412    2.6117   -0.3557 C.ar      1 <0>        -0.1035
      3 C3          6.1603    1.2568   -0.2578 C.ar      1 <0>        -0.1086
      4 C4          4.9005    0.6394   -0.1445 C.ar      1 <0>         0.1233
      5 C5          3.7376    1.4506   -0.1348 C.ar      1 <0>        -0.0834
      6 C6          3.8578    2.8408   -0.2373 C.ar      1 <0>        -0.0785
      7 C7          2.4311    0.8027   -0.0168 C.ar      1 <0>        -0.0428
      8 C8          2.4135   -0.5817    0.0850 C.ar      1 <0>        -0.1391
      9 C9          3.6247   -1.2894    0.0586 C.ar      1 <0>         0.1851
     10 N1          4.7897   -0.6861   -0.0478 N.ar      1 <0>        -0.4780
     11 C10         3.5915   -2.7682    0.1614 C.ar      1 <0>        -0.0214
     12 C11         2.3725   -3.4340    0.2808 C.ar      1 <0>        -0.0928
     13 C12         2.3470   -4.8105    0.3708 C.ar      1 <0>        -0.0928
     14 C13         3.5297   -5.5298    0.3533 C.ar      1 <0>        -0.0866
     15 C14         4.7432   -4.8733    0.2406 C.ar      1 <0>        -0.0989
     16 C15         4.7797   -3.4974    0.1447 C.ar      1 <0>        -0.0765
     17 Br1         3.4874   -7.4158    0.4843 Br        1 <0>        -0.0597
     18 C16         1.1808    1.5907   -0.0007 C.2       1 <0>         0.4944
     19 O1          1.2280    2.8043    0.0130 O.co2     1 <0>        -0.6131
     20 H1          5.1874    4.4767   -0.4252 H         1 <0>         0.1225
     21 H2          7.2101    3.0809   -0.4421 H         1 <0>         0.1220
     22 H3          7.0589    0.6578   -0.2669 H         1 <0>         0.1283
     23 H4          2.9760    3.4643   -0.2308 H         1 <0>         0.1712
     24 H5          1.4759   -1.1093    0.1786 H         1 <0>         0.1484
     25 H6          1.4495   -2.8735    0.2988 H         1 <0>         0.1442
     26 H7          1.4029   -5.3275    0.4593 H         1 <0>         0.1361
     27 H8          5.6630   -5.4391    0.2281 H         1 <0>         0.1330
     28 H9          5.7269   -2.9861    0.0571 H         1 <0>         0.1439
     29 O2         -0.0111    0.9629   -0.0011 O.co2     1 <0>        -0.7353
@<TRIPOS>BOND
     1    1    6 ar
     2    1    2 ar
     3    1   20 1
     4    2    3 ar
     5    2   21 1
     6    3    4 ar
     7    3   22 1
     8    4   10 ar
     9    4    5 ar
    10    5    6 ar
    11    5    7 ar
    12    6   23 1
    13    7    8 ar
    14    7   18 1
    15    8    9 ar
    16    8   24 1
    17    9   10 ar
    18    9   11 1
    19   11   16 ar
    20   11   12 ar
    21   12   13 ar
    22   12   25 1
    23   13   14 ar
    24   13   26 1
    25   14   15 ar
    26   14   17 1
    27   15   16 ar
    28   15   27 1
    29   16   28 1
    30   18   19 2
    31   18   29 1
