@<TRIPOS>MOLECULE
ZINC00621853
   54    56     0     0     0
SMALL
USER_CHARGES

@<TRIPOS>ATOM
      1 C1         -0.0284    1.4293   -0.4778 C.3       1 <0>        -0.1767
      2 C2         -0.0129   -0.0745   -0.3804 C.2       1 <0>         0.5133
      3 O1          1.0419   -0.6727   -0.4014 O.2       1 <0>        -0.5352
      4 N1         -1.1713   -0.7546   -0.2699 N.am      1 <0>        -0.7311
      5 C3         -1.1562   -2.2164   -0.1752 C.3       1 <0>         0.1688
      6 H1         -0.2762   -2.5266    0.3883 H         1 <0>         0.1083
      7 C4         -2.3999   -2.6766    0.5586 C.3       1 <0>        -0.1167
      8 C5         -2.6213   -4.1756    0.3776 C.3       1 <0>        -0.0793
      9 C6         -1.3153   -4.9067    0.5534 C.ar      1 <0>        -0.0232
     10 C7         -1.0582   -5.5960    1.7202 C.ar      1 <0>        -0.1967
     11 C8          0.1423   -6.2778    1.8745 C.ar      1 <0>         0.1328
     12 C9          1.0898   -6.2717    0.8565 C.ar      1 <0>         0.0421
     13 C10         0.8389   -5.5766   -0.3193 C.ar      1 <0>         0.1373
     14 C11        -0.3691   -4.8877   -0.4655 C.ar      1 <0>        -0.0983
     15 C12        -0.6334   -4.1159   -1.7162 C.2       1 <0>        -0.0547
     16 C13        -1.0800   -2.8009   -1.5711 C.2       1 <0>         0.0265
     17 C14        -1.4567   -1.9931   -2.5770 C.2       1 <0>        -0.2146
     18 C15        -1.4974   -2.1542   -3.9332 C.2       1 <0>         0.3926
     19 O2         -1.9764   -1.2222   -4.5653 O.2       1 <0>        -0.4893
     20 C16        -1.0654   -3.2383   -4.6895 C.2       1 <0>         0.1028
     21 C17        -0.5761   -4.4044   -4.1889 C.2       1 <0>        -0.1927
     22 C18        -0.4083   -4.7668   -2.9017 C.2       1 <0>        -0.0172
     23 O3         -1.1385   -3.1234   -6.0380 O.3       1 <0>        -0.2828
     24 C19        -0.6931   -4.2409   -6.8094 C.3       1 <0>         0.0136
     25 O4          1.7595   -5.5657   -1.3188 O.3       1 <0>        -0.3263
     26 C20         2.8002   -4.5904   -1.2317 C.3       1 <0>         0.0375
     27 O5          2.2617   -6.9458    1.0126 O.3       1 <0>        -0.3181
     28 C21         2.2856   -8.3114    0.5923 C.3       1 <0>         0.0378
     29 O6          0.3920   -6.9547    3.0264 O.3       1 <0>        -0.3018
     30 C22        -0.6230   -6.9211    4.0317 C.3       1 <0>         0.0227
     31 H2          0.9938    1.7986   -0.5602 H         1 <0>         0.0946
     32 H3         -0.5957    1.7305   -1.3585 H         1 <0>         0.0918
     33 H4         -0.4946    1.8464    0.4148 H         1 <0>         0.0904
     34 H5         -2.0149   -0.2761   -0.2531 H         1 <0>         0.4055
     35 H6         -2.2905   -2.4569    1.6206 H         1 <0>         0.0846
     36 H7         -3.2642   -2.1380    0.1701 H         1 <0>         0.0835
     37 H8         -3.3373   -4.5286    1.1197 H         1 <0>         0.0890
     38 H9         -3.0121   -4.3664   -0.6219 H         1 <0>         0.0850
     39 H10        -1.7902   -5.6054    2.5142 H         1 <0>         0.1419
     40 H11        -1.7954   -1.0220   -2.2473 H         1 <0>         0.1371
     41 H12        -0.2789   -5.1392   -4.9226 H         1 <0>         0.1361
     42 H13        -0.0246   -5.7689   -2.7793 H         1 <0>         0.1273
     43 H14        -1.2900   -5.1174   -6.5574 H         1 <0>         0.0642
     44 H15        -0.8052   -4.0177   -7.8704 H         1 <0>         0.1099
     45 H16         0.3557   -4.4397   -6.5888 H         1 <0>         0.0642
     46 H17         3.4194   -4.7966   -0.3586 H         1 <0>         0.0551
     47 H18         3.4145   -4.6331   -2.1311 H         1 <0>         0.0957
     48 H19         2.3606   -3.5973   -1.1389 H         1 <0>         0.0532
     49 H20         1.9730   -8.3763   -0.4499 H         1 <0>         0.0481
     50 H21         3.2970   -8.7050    0.6934 H         1 <0>         0.0941
     51 H22         1.6051   -8.8945    1.2127 H         1 <0>         0.0461
     52 H23        -1.5429   -7.3495    3.6338 H         1 <0>         0.0583
     53 H24        -0.2973   -7.4993    4.8964 H         1 <0>         0.1043
     54 H25        -0.8031   -5.8888    4.3318 H         1 <0>         0.0588
@<TRIPOS>BOND
     1    1    2 1
     2    1   31 1
     3    1   32 1
     4    1   33 1
     5    2    3 2
     6    2    4 am
     7    4    5 1
     8    4   34 1
     9    5    6 1
    10    5   16 1
    11    5    7 1
    12    7    8 1
    13    7   35 1
    14    7   36 1
    15    8    9 1
    16    8   37 1
    17    8   38 1
    18    9   14 ar
    19    9   10 ar
    20   10   11 ar
    21   10   39 1
    22   11   12 ar
    23   11   29 1
    24   12   13 ar
    25   12   27 1
    26   13   14 ar
    27   13   25 1
    28   14   15 1
    29   15   22 2
    30   15   16 1
    31   16   17 2
    32   17   18 1
    33   17   40 1
    34   18   19 2
    35   18   20 1
    36   20   21 2
    37   20   23 1
    38   21   22 1
    39   21   41 1
    40   22   42 1
    41   23   24 1
    42   24   43 1
    43   24   44 1
    44   24   45 1
    45   25   26 1
    46   26   46 1
    47   26   47 1
    48   26   48 1
    49   27   28 1
    50   28   49 1
    51   28   50 1
    52   28   51 1
    53   29   30 1
    54   30   52 1
    55   30   53 1
    56   30   54 1
@<TRIPOS>MOLECULE
ZINC03816587
   41    44     0     0     0
SMALL
USER_CHARGES

@<TRIPOS>ATOM
      1 C1         -4.5423   -8.9631    0.3585 C.3       1 <0>         0.0229
      2 O1         -5.3371   -8.1672   -0.5229 O.3       1 <0>        -0.3044
      3 C2         -5.2447   -6.8189   -0.3883 C.ar      1 <0>         0.1157
      4 C3         -4.3998   -6.2754    0.5711 C.ar      1 <0>        -0.1998
      5 C4         -4.3016   -4.9094    0.7134 C.ar      1 <0>        -0.0673
      6 C5         -5.0555   -4.0637   -0.1120 C.ar      1 <0>        -0.0980
      7 C6         -5.9071   -4.6139   -1.0799 C.ar      1 <0>        -0.0758
      8 C7         -5.9942   -5.9846   -1.2177 C.ar      1 <0>         0.0748
      9 O2         -6.8155   -6.5221   -2.1590 O.3       1 <0>        -0.4825
     10 C8         -4.9539   -2.6093    0.0368 C.2       1 <0>        -0.0484
     11 C9         -6.0763   -1.8348   -0.0414 C.2       1 <0>        -0.0646
     12 C10        -5.9859   -0.3637   -0.1494 C.ar      1 <0>        -0.0007
     13 C11        -4.8751    0.3322    0.3185 C.ar      1 <0>        -0.1189
     14 C12        -4.8317    1.7059    0.1984 C.ar      1 <0>        -0.0856
     15 C13        -5.8831    2.3991   -0.3840 C.ar      1 <0>        -0.1283
     16 C14        -6.9925    1.7290   -0.8545 C.ar      1 <0>        -0.0573
     17 C15        -7.0567    0.3413   -0.7418 C.ar      1 <0>        -0.1542
     18 C16        -8.2236   -0.4173   -1.2301 C.2       1 <0>         0.4396
     19 O3         -8.9382    0.0243   -2.1119 O.2       1 <0>        -0.4411
     20 C17        -8.4947   -1.7296   -0.6137 C.ar      1 <0>        -0.1527
     21 C18        -7.4255   -2.4376   -0.0272 C.ar      1 <0>        -0.0042
     22 C19        -7.6601   -3.6799    0.5547 C.ar      1 <0>        -0.1125
     23 C20        -8.9354   -4.2060    0.5464 C.ar      1 <0>        -0.0943
     24 C21        -9.9848   -3.5091   -0.0353 C.ar      1 <0>        -0.1237
     25 C22        -9.7756   -2.2788   -0.6062 C.ar      1 <0>        -0.0622
     26 H1         -4.7099  -10.0189    0.1453 H         1 <0>         0.1036
     27 H2         -3.4886   -8.7257    0.2119 H         1 <0>         0.0582
     28 H3         -4.8222   -8.7520    1.3906 H         1 <0>         0.0578
     29 H4         -3.8185   -6.9262    1.2075 H         1 <0>         0.1372
     30 H5         -3.6444   -4.4899    1.4607 H         1 <0>         0.1347
     31 H6         -6.4906   -3.9673   -1.7184 H         1 <0>         0.1374
     32 H7         -7.7149   -6.6906   -1.8463 H         1 <0>         0.3870
     33 H8         -3.9917   -2.1498    0.2082 H         1 <0>         0.1401
     34 H9         -4.0524   -0.1998    0.7730 H         1 <0>         0.1339
     35 H10        -3.9704    2.2471    0.5611 H         1 <0>         0.1320
     36 H11        -5.8318    3.4744   -0.4700 H         1 <0>         0.1323
     37 H12        -7.8067    2.2759   -1.3066 H         1 <0>         0.1361
     38 H13        -6.8488   -4.2288    1.0095 H         1 <0>         0.1383
     39 H14        -9.1189   -5.1699    0.9977 H         1 <0>         0.1286
     40 H15       -10.9768   -3.9363   -0.0325 H         1 <0>         0.1314
     41 H16       -10.5988   -1.7444   -1.0568 H         1 <0>         0.1348
@<TRIPOS>BOND
     1    1    2 1
     2    1   26 1
     3    1   27 1
     4    1   28 1
     5    2    3 1
     6    3    8 ar
     7    3    4 ar
     8    4    5 ar
     9    4   29 1
    10    5    6 ar
    11    5   30 1
    12    6    7 ar
    13    6   10 1
    14    7    8 ar
    15    7   31 1
    16    8    9 1
    17    9   32 1
    18   10   11 2
    19   10   33 1
    20   11   21 1
    21   11   12 1
    22   12   17 ar
    23   12   13 ar
    24   13   14 ar
    25   13   34 1
    26   14   15 ar
    27   14   35 1
    28   15   16 ar
    29   15   36 1
    30   16   17 ar
    31   16   37 1
    32   17   18 1
    33   18   19 2
    34   18   20 1
    35   20   25 ar
    36   20   21 ar
    37   21   22 ar
    38   22   23 ar
    39   22   38 1
    40   23   24 ar
    41   23   39 1
    42   24   25 ar
    43   24   40 1
    44   25   41 1
@<TRIPOS>MOLECULE
ZINC05203255
   54    56     0     0     0
SMALL
USER_CHARGES
N-(trimethoxy-methylsulfanyl-oxo-BLAHyl)acetamide
@<TRIPOS>ATOM
      1 C1          5.8137   -0.2263   -2.6930 C.3       1 <0>        -0.1727
      2 C2          4.5620   -0.8369   -2.1170 C.2       1 <0>         0.5137
      3 O1          3.6392   -1.1306   -2.8471 O.2       1 <0>        -0.5365
      4 N1          4.4682   -1.0565   -0.7906 N.am      1 <0>        -0.7296
      5 C3          3.2515   -1.6500   -0.2306 C.3       1 <0>         0.1687
      6 H1          2.8388   -2.3590   -0.9484 H         1 <0>         0.1090
      7 C4          3.6029   -2.3876    1.0447 C.3       1 <0>        -0.1173
      8 C5          2.3496   -2.7126    1.8538 C.3       1 <0>        -0.0802
      9 C6          1.2751   -3.2401    0.9377 C.ar      1 <0>        -0.0199
     10 C7          0.9856   -4.5886    0.9139 C.ar      1 <0>        -0.1973
     11 C8         -0.0121   -5.0711    0.0769 C.ar      1 <0>         0.1357
     12 C9         -0.7250   -4.2007   -0.7408 C.ar      1 <0>         0.0418
     13 C10        -0.4363   -2.8426   -0.7249 C.ar      1 <0>         0.1406
     14 C11         0.5720   -2.3635    0.1171 C.ar      1 <0>        -0.1067
     15 C12         0.8928   -0.9045    0.1285 C.2       1 <0>        -0.0122
     16 C13         2.2368   -0.5534    0.0205 C.2       1 <0>         0.0091
     17 C14         2.7225    0.6987    0.1107 C.2       1 <0>        -0.1879
     18 C15         2.1286    1.9139    0.2881 C.2       1 <0>         0.3998
     19 O2          2.8892    2.8680    0.3836 O.2       1 <0>        -0.5004
     20 C16         0.7702    2.2122    0.3750 C.2       1 <0>        -0.1462
     21 C17        -0.2427    1.2984    0.3536 C.2       1 <0>        -0.0891
     22 C18        -0.1654   -0.0400    0.2566 C.2       1 <0>        -0.0481
     23 S1          0.3236    3.9101    0.5243 S.3       1 <0>        -0.0163
     24 C19        -1.4784    3.7559    0.5975 C.3       1 <0>        -0.1840
     25 O3         -1.1282   -1.9858   -1.5214 O.3       1 <0>        -0.3264
     26 C20        -0.6656   -1.8318   -2.8646 C.3       1 <0>         0.0373
     27 O4         -1.7040   -4.6797   -1.5559 O.3       1 <0>        -0.3177
     28 C21        -3.0255   -4.7414   -1.0155 C.3       1 <0>         0.0376
     29 O5         -0.2931   -6.4009    0.0564 O.3       1 <0>        -0.3012
     30 C22         0.4764   -7.2399    0.9202 C.3       1 <0>         0.0223
     31 H2          6.5256   -0.0321   -1.8908 H         1 <0>         0.0780
     32 H3          6.2561   -0.9153   -3.4125 H         1 <0>         0.0974
     33 H4          5.5646    0.7100   -3.1923 H         1 <0>         0.0979
     34 H5          5.2063   -0.8216   -0.2067 H         1 <0>         0.4054
     35 H6          4.1159   -3.3155    0.7915 H         1 <0>         0.0851
     36 H7          4.2652   -1.7656    1.6468 H         1 <0>         0.0837
     37 H8          2.5880   -3.4661    2.6045 H         1 <0>         0.0900
     38 H9          1.9924   -1.8090    2.3477 H         1 <0>         0.0850
     39 H10         1.5354   -5.2697    1.5465 H         1 <0>         0.1427
     40 H11         3.7978    0.7519    0.0251 H         1 <0>         0.1344
     41 H12        -1.2409    1.7054    0.4191 H         1 <0>         0.1335
     42 H13        -1.1261   -0.5325    0.2848 H         1 <0>         0.1286
     43 H14        -1.8397    3.2814   -0.3149 H         1 <0>         0.0909
     44 H15        -1.7563    3.1474    1.4581 H         1 <0>         0.0908
     45 H16        -1.9241    4.7459    0.6932 H         1 <0>         0.1137
     46 H17        -1.2507   -1.0596   -3.3641 H         1 <0>         0.0964
     47 H18         0.3854   -1.5429   -2.8561 H         1 <0>         0.0533
     48 H19        -0.7787   -2.7755   -3.3983 H         1 <0>         0.0556
     49 H20        -3.0482   -5.4546   -0.1915 H         1 <0>         0.0463
     50 H21        -3.3155   -3.7559   -0.6512 H         1 <0>         0.0483
     51 H22        -3.7209   -5.0608   -1.7918 H         1 <0>         0.0945
     52 H23         0.1517   -8.2741    0.8059 H         1 <0>         0.1047
     53 H24         1.5316   -7.1594    0.6594 H         1 <0>         0.0592
     54 H25         0.3326   -6.9261    1.9541 H         1 <0>         0.0586
@<TRIPOS>BOND
     1    1    2 1
     2    1   31 1
     3    1   32 1
     4    1   33 1
     5    2    3 2
     6    2    4 am
     7    4    5 1
     8    4   34 1
     9    5    6 1
    10    5   16 1
    11    5    7 1
    12    7    8 1
    13    7   35 1
    14    7   36 1
    15    8    9 1
    16    8   37 1
    17    8   38 1
    18    9   14 ar
    19    9   10 ar
    20   10   11 ar
    21   10   39 1
    22   11   12 ar
    23   11   29 1
    24   12   13 ar
    25   12   27 1
    26   13   14 ar
    27   13   25 1
    28   14   15 1
    29   15   22 2
    30   15   16 1
    31   16   17 2
    32   17   18 1
    33   17   40 1
    34   18   19 2
    35   18   20 1
    36   20   21 2
    37   20   23 1
    38   21   22 1
    39   21   41 1
    40   22   42 1
    41   23   24 1
    42   24   43 1
    43   24   44 1
    44   24   45 1
    45   25   26 1
    46   26   46 1
    47   26   47 1
    48   26   48 1
    49   27   28 1
    50   28   49 1
    51   28   50 1
    52   28   51 1
    53   29   30 1
    54   30   52 1
    55   30   53 1
    56   30   54 1
@<TRIPOS>MOLECULE
ZINC08578607
   28    30     0     0     0
SMALL
USER_CHARGES

@<TRIPOS>ATOM
      1 C1         -0.0167    1.3794    0.0096 C.ar      1 <0>        -0.0994
      2 C2          1.1683    2.0937    0.0021 C.ar      1 <0>        -0.1157
      3 C3          2.3774    1.4297   -0.0134 C.ar      1 <0>        -0.0817
      4 C4          2.4036    0.0339   -0.0211 C.ar      1 <0>        -0.0801
      5 C5          1.2042   -0.6806   -0.0130 C.ar      1 <0>        -0.1040
      6 C6          0.0021   -0.0041    0.0020 C.ar      1 <0>        -0.1160
      7 C7          3.6952   -0.6842   -0.0382 C.2       1 <0>         0.2509
      8 C8          4.8510    0.0384   -0.0407 C.2       1 <0>        -0.3058
      9 C9          6.0962   -0.6224   -0.0573 C.2       1 <0>         0.4179
     10 C10         6.0971   -2.0965   -0.0711 C.ar      1 <0>        -0.1987
     11 C11         7.2891   -2.8207   -0.0874 C.ar      1 <0>        -0.0292
     12 C12         7.2516   -4.1872   -0.0995 C.ar      1 <0>        -0.1583
     13 C13         6.0374   -4.8594   -0.0961 C.ar      1 <0>        -0.0548
     14 C14         4.8486   -4.1630   -0.0805 C.ar      1 <0>        -0.1749
     15 C15         4.8643   -2.7713   -0.0671 C.ar      1 <0>         0.1953
     16 N1          3.6914   -2.0484   -0.0454 N.pl3     1 <0>        -0.6102
     17 O1          7.1420    0.0070   -0.0606 O.2       1 <0>        -0.4957
     18 H1         -0.9605    1.9042    0.0260 H         1 <0>         0.1300
     19 H2          1.1467    3.1735    0.0081 H         1 <0>         0.1335
     20 H3          3.3017    1.9884   -0.0199 H         1 <0>         0.1375
     21 H4          1.2175   -1.7605   -0.0192 H         1 <0>         0.1213
     22 H5         -0.9265   -0.5555    0.0079 H         1 <0>         0.1310
     23 H6          4.8129    1.1177   -0.0302 H         1 <0>         0.1530
     24 H7          8.2376   -2.3041   -0.0909 H         1 <0>         0.1395
     25 H8          8.1744   -4.7482   -0.1121 H         1 <0>         0.1319
     26 H9          6.0242   -5.9393   -0.1062 H         1 <0>         0.1337
     27 H10         3.9086   -4.6948   -0.0788 H         1 <0>         0.1332
     28 H11         2.8438   -2.5201   -0.0392 H         1 <0>         0.4158
@<TRIPOS>BOND
     1    1    6 ar
     2    1    2 ar
     3    1   18 1
     4    2    3 ar
     5    2   19 1
     6    3    4 ar
     7    3   20 1
     8    4    5 ar
     9    4    7 1
    10    5    6 ar
    11    5   21 1
    12    6   22 1
    13    7   16 1
    14    7    8 2
    15    8    9 1
    16    8   23 1
    17    9   10 1
    18    9   17 2
    19   10   15 ar
    20   10   11 ar
    21   11   12 ar
    22   11   24 1
    23   12   13 ar
    24   12   25 1
    25   13   14 ar
    26   13   26 1
    27   14   15 ar
    28   14   27 1
    29   15   16 1
    30   16   28 1
@<TRIPOS>MOLECULE
ZINC05581788
   31    34     0     0     0
SMALL
USER_CHARGES

@<TRIPOS>ATOM
      1 C1          1.7560    1.4138   -1.0560 C.ar      1 <0>        -0.1273
      2 C2          1.1717    2.0875    0.0030 C.ar      1 <0>        -0.0696
      3 C3          0.6125    1.3850    1.0541 C.ar      1 <0>        -0.1521
      4 C4          0.6335    0.0025    1.0539 C.ar      1 <0>         0.1205
      5 C5          1.2223   -0.6831   -0.0132 C.ar      1 <0>        -0.1189
      6 C6          1.7846    0.0354   -1.0704 C.ar      1 <0>        -0.0528
      7 C7          1.2497   -2.1598   -0.0218 C.2       1 <0>         0.2478
      8 C8          2.4579   -2.8026   -0.1362 C.2       1 <0>        -0.2881
      9 C9          2.5067   -4.2111   -0.1465 C.2       1 <0>         0.4237
     10 O1          3.5705   -4.8020   -0.2465 O.2       1 <0>        -0.4899
     11 C10         1.2378   -4.9498   -0.0327 C.ar      1 <0>        -0.1887
     12 C11         1.2132   -6.3465   -0.0378 C.ar      1 <0>        -0.0123
     13 C12         0.0095   -7.0093    0.0703 C.ar      1 <0>        -0.0034
     14 C13        -1.1844   -6.2871    0.1852 C.ar      1 <0>         0.1039
     15 C14        -1.1673   -4.9047    0.1910 C.ar      1 <0>        -0.1604
     16 C15         0.0395   -4.2235    0.0819 C.ar      1 <0>         0.2125
     17 N1          0.0745   -2.8440    0.0898 N.pl3     1 <0>        -0.5976
     18 H1         -0.7558   -2.3494    0.1727 H         1 <0>         0.4202
     19 O2         -2.2184   -7.1726    0.2761 O.3       1 <0>        -0.3020
     20 C16        -1.6948   -8.4275   -0.1962 C.3       1 <0>         0.2119
     21 O3         -0.2864   -8.3426    0.0896 O.3       1 <0>        -0.3020
     22 F1          0.0872   -0.6838    2.0814 F         1 <0>        -0.1305
     23 H2          2.1868    1.9697   -1.8756 H         1 <0>         0.1404
     24 H3          1.1531    3.1673    0.0081 H         1 <0>         0.1405
     25 H4          0.1587    1.9171    1.8771 H         1 <0>         0.1440
     26 H5          2.2407   -0.4877   -1.8979 H         1 <0>         0.1443
     27 H6          3.3696   -2.2295   -0.2186 H         1 <0>         0.1560
     28 H7          2.1335   -6.9048   -0.1264 H         1 <0>         0.1545
     29 H8         -2.0919   -4.3538    0.2800 H         1 <0>         0.1477
     30 H9         -2.1458   -9.2587    0.3458 H         1 <0>         0.1375
     31 H10        -1.8621   -8.5327   -1.2682 H         1 <0>         0.0901
@<TRIPOS>BOND
     1    1    6 ar
     2    1    2 ar
     3    1   23 1
     4    2    3 ar
     5    2   24 1
     6    3    4 ar
     7    3   25 1
     8    4    5 ar
     9    4   22 1
    10    5    6 ar
    11    5    7 1
    12    6   26 1
    13    7   17 1
    14    7    8 2
    15    8    9 1
    16    8   27 1
    17    9   10 2
    18    9   11 1
    19   11   16 ar
    20   11   12 ar
    21   12   13 ar
    22   12   28 1
    23   13   21 1
    24   13   14 ar
    25   14   15 ar
    26   14   19 1
    27   15   16 ar
    28   15   29 1
    29   16   17 1
    30   17   18 1
    31   19   20 1
    32   20   21 1
    33   20   30 1
    34   20   31 1
@<TRIPOS>MOLECULE
ZINC02014897
   27    27     0     0     0
SMALL
USER_CHARGES

@<TRIPOS>ATOM
      1 C1         -0.0187    1.5258    0.0104 C.3       1 <0>        -0.1623
      2 C2          0.0021   -0.0041    0.0020 C.3       1 <0>         0.2906
      3 C3          0.7421   -0.5109    1.2415 C.3       1 <0>        -0.1623
      4 C4         -1.3789   -0.5136    0.0125 C.1       1 <0>        -0.2064
      5 C5         -2.4803   -0.9199    0.0208 C.1       1 <0>        -0.1585
      6 N1          0.6878   -0.4765   -1.2033 N.am      1 <0>        -0.7172
      7 C6          1.9715   -0.1323   -1.4270 C.2       1 <0>         0.5689
      8 O1          2.5603    0.5702   -0.6287 O.2       1 <0>        -0.5175
      9 C7          2.6635   -0.6091   -2.6435 C.ar      1 <0>        -0.1096
     10 C8          1.9884   -1.4111   -3.5647 C.ar      1 <0>        -0.0753
     11 C9          2.6400   -1.8533   -4.6989 C.ar      1 <0>        -0.0310
     12 C10         3.9605   -1.5027   -4.9231 C.ar      1 <0>        -0.0764
     13 C11         4.6357   -0.7078   -4.0127 C.ar      1 <0>        -0.0312
     14 C12         3.9928   -0.2542   -2.8778 C.ar      1 <0>        -0.0456
     15 Cl1         6.2916   -0.2744   -4.3019 Cl        1 <0>        -0.0418
     16 Cl2         1.8021   -2.8515   -5.8458 Cl        1 <0>        -0.0447
     17 H1          1.0039    1.9031    0.0027 H         1 <0>         0.0891
     18 H2         -0.5459    1.8868   -0.8726 H         1 <0>         0.0604
     19 H3         -0.5289    1.8773    0.9072 H         1 <0>         0.0716
     20 H4          0.2319   -0.1594    2.1383 H         1 <0>         0.0716
     21 H5          0.7568   -1.6008    1.2356 H         1 <0>         0.0604
     22 H6          1.7647   -0.1336    1.2338 H         1 <0>         0.0891
     23 H7         -3.4654   -1.2834    0.0283 H         1 <0>         0.2239
     24 H8          0.2179   -1.0371   -1.8404 H         1 <0>         0.4025
     25 H9          0.9584   -1.6855   -3.3907 H         1 <0>         0.1430
     26 H10         4.4660   -1.8511   -5.8117 H         1 <0>         0.1519
     27 H11         4.5190    0.3698   -2.1707 H         1 <0>         0.1567
@<TRIPOS>BOND
     1    1    2 1
     2    1   17 1
     3    1   18 1
     4    1   19 1
     5    2    3 1
     6    2    4 1
     7    2    6 1
     8    3   20 1
     9    3   21 1
    10    3   22 1
    11    4    5 3
    12    5   23 1
    13    6    7 am
    14    6   24 1
    15    7    8 2
    16    7    9 1
    17    9   14 ar
    18    9   10 ar
    19   10   11 ar
    20   10   25 1
    21   11   12 ar
    22   11   16 1
    23   12   13 ar
    24   12   26 1
    25   13   14 ar
    26   13   15 1
    27   14   27 1
@<TRIPOS>MOLECULE
ZINC13777007
   45    47     0     0     0
SMALL
USER_CHARGES
2-(2,6-diisopropylphenyl)-5-hydroxy-isoindoline-1,3-dione
@<TRIPOS>ATOM
      1 C1          3.2746    3.5657    1.2399 C.3       1 <0>        -0.1433
      2 C2          2.4568    3.9321   -0.0002 C.3       1 <0>        -0.0602
      3 C3          3.2521    3.5783   -1.2585 C.3       1 <0>        -0.1432
      4 C4          1.1607    3.1631    0.0075 C.ar      1 <0>        -0.0483
      5 C5          1.1762    1.7820    0.0004 C.ar      1 <0>        -0.1132
      6 C6         -0.0126    1.0758    0.0080 C.ar      1 <0>        -0.0944
      7 C7         -1.2201    1.7494    0.0173 C.ar      1 <0>        -0.1133
      8 C8         -1.2421    3.1304    0.0298 C.ar      1 <0>        -0.0488
      9 C9         -0.0501    3.8423    0.0223 C.ar      1 <0>         0.1136
     10 N1         -0.0691    5.2436    0.0290 N.am      1 <0>        -0.5255
     11 C10        -0.0905    6.0097   -1.0764 C.2       1 <0>         0.5744
     12 O1         -0.0969    5.6021   -2.2208 O.2       1 <0>        -0.4467
     13 C11        -0.1057    7.4275   -0.6678 C.ar      1 <0>        -0.1511
     14 C12        -0.1294    8.6326   -1.3553 C.ar      1 <0>        -0.0231
     15 C13        -0.1390    9.8246   -0.6536 C.ar      1 <0>        -0.1223
     16 C14        -0.1248    9.8231    0.7346 C.ar      1 <0>         0.1386
     17 C15        -0.1010    8.6199    1.4365 C.ar      1 <0>        -0.0713
     18 C16        -0.0917    7.4228    0.7432 C.ar      1 <0>        -0.1197
     19 C17        -0.0742    5.9993    1.1420 C.2       1 <0>         0.5738
     20 O2         -0.0632    5.5822    2.2826 O.2       1 <0>        -0.4446
     21 O3         -0.1336   10.9995    1.4112 O.3       1 <0>        -0.4888
     22 C18        -2.5585    3.8638    0.0453 C.3       1 <0>        -0.0598
     23 C19        -3.3664    3.4878   -1.1984 C.3       1 <0>        -0.1433
     24 C20        -3.3436    3.4760    1.3000 C.3       1 <0>        -0.1433
     25 H1          3.4864    2.4965    1.2326 H         1 <0>         0.0612
     26 H2          4.2120    4.1219    1.2343 H         1 <0>         0.0614
     27 H3          2.7079    3.8177    2.1363 H         1 <0>         0.0580
     28 H4          2.2449    5.0013    0.0071 H         1 <0>         0.0667
     29 H5          2.6695    3.8393   -2.1420 H         1 <0>         0.0582
     30 H6          4.1896    4.1345   -1.2641 H         1 <0>         0.0613
     31 H7          3.4640    2.5091   -1.2658 H         1 <0>         0.0612
     32 H8          2.1178    1.2532   -0.0107 H         1 <0>         0.1319
     33 H9          0.0021   -0.0041    0.0020 H         1 <0>         0.1313
     34 H10        -2.1471    1.1952    0.0191 H         1 <0>         0.1318
     35 H11        -0.1405    8.6398   -2.4353 H         1 <0>         0.1496
     36 H12        -0.1574   10.7623   -1.1890 H         1 <0>         0.1513
     37 H13        -0.0904    8.6217    2.5165 H         1 <0>         0.1503
     38 H14        -1.0194   11.3287    1.6163 H         1 <0>         0.4024
     39 H15        -2.3758    4.9384    0.0487 H         1 <0>         0.0663
     40 H16        -4.3186    4.0182   -1.1872 H         1 <0>         0.0611
     41 H17        -2.8071    3.7640   -2.0922 H         1 <0>         0.0583
     42 H18        -3.5492    2.4132   -1.2018 H         1 <0>         0.0612
     43 H19        -2.7680    3.7439    2.1860 H         1 <0>         0.0581
     44 H20        -4.2957    4.0065    1.3112 H         1 <0>         0.0611
     45 H21        -3.5263    2.4015    1.2966 H         1 <0>         0.0613
@<TRIPOS>BOND
     1    1    2 1
     2    1   25 1
     3    1   26 1
     4    1   27 1
     5    2    3 1
     6    2    4 1
     7    2   28 1
     8    3   29 1
     9    3   30 1
    10    3   31 1
    11    4    9 ar
    12    4    5 ar
    13    5    6 ar
    14    5   32 1
    15    6    7 ar
    16    6   33 1
    17    7    8 ar
    18    7   34 1
    19    8    9 ar
    20    8   22 1
    21    9   10 1
    22   10   19 am
    23   10   11 am
    24   11   12 2
    25   11   13 1
    26   13   18 ar
    27   13   14 ar
    28   14   15 ar
    29   14   35 1
    30   15   16 ar
    31   15   36 1
    32   16   17 ar
    33   16   21 1
    34   17   18 ar
    35   17   37 1
    36   18   19 1
    37   19   20 2
    38   21   38 1
    39   22   23 1
    40   22   24 1
    41   22   39 1
    42   23   40 1
    43   23   41 1
    44   23   42 1
    45   24   43 1
    46   24   44 1
    47   24   45 1
@<TRIPOS>MOLECULE
ZINC03873953
   39    39     0     0     0
SMALL
USER_CHARGES

@<TRIPOS>ATOM
      1 C1         -0.0187    1.5258    0.0104 C.3       1 <0>        -0.1548
      2 C2          0.0021   -0.0041    0.0020 C.3       1 <0>        -0.1336
      3 C3          0.7182   -0.4975   -1.2568 C.3       1 <0>         0.1502
      4 N1          0.7381   -1.9623   -1.2648 N.pl3     1 <0>        -0.6714
      5 C4         -0.3566   -2.7063   -1.8928 C.3       1 <0>         0.1502
      6 C5         -0.0285   -2.9488   -3.3674 C.3       1 <0>        -0.1337
      7 C6         -1.1718   -3.7257   -4.0232 C.3       1 <0>        -0.1547
      8 C7          1.8007   -2.6496   -0.6738 C.ar      1 <0>         0.3406
      9 C8          2.9238   -2.9734   -1.4245 C.ar      1 <0>        -0.0694
     10 C9          3.9727   -3.6530   -0.8370 C.ar      1 <0>         0.0418
     11 C10         3.9057   -4.0116    0.4968 C.ar      1 <0>        -0.1918
     12 C11         2.7892   -3.6909    1.2470 C.ar      1 <0>         0.0418
     13 C12         1.7393   -3.0059    0.6674 C.ar      1 <0>        -0.0693
     14 N2          0.5474   -2.6572    1.4729 N.pl3     1 <0>         0.0294
     15 O1          0.4947   -2.9677    2.6401 O.2       1 <0>        -0.1681
     16 O2         -0.3734   -2.0620    0.9635 O.3       1 <0>        -0.0854
     17 C13         5.0518   -4.7541    1.1342 C.3       1 <0>         0.5225
     18 F1          5.9628   -3.8362    1.6679 F         1 <0>        -0.1623
     19 F2          4.5644   -5.5755    2.1564 F         1 <0>        -0.1633
     20 F3          5.6922   -5.5398    0.1700 F         1 <0>        -0.1633
     21 N3          2.9960   -2.5908   -2.8526 N.pl3     1 <0>         0.0297
     22 O3          3.9738   -2.8729   -3.5053 O.2       1 <0>        -0.1677
     23 O4          2.0772   -1.9962   -3.3663 O.3       1 <0>        -0.0859
     24 H1          1.0039    1.9031    0.0027 H         1 <0>         0.0490
     25 H2         -0.5459    1.8868   -0.8726 H         1 <0>         0.0588
     26 H3         -0.5289    1.8773    0.9072 H         1 <0>         0.0589
     27 H4          0.5293   -0.3651    0.8851 H         1 <0>         0.0496
     28 H5         -1.0205   -0.3814    0.0098 H         1 <0>         0.0866
     29 H6          0.1910   -0.1364   -2.1398 H         1 <0>         0.0918
     30 H7          1.7408   -0.1202   -1.2645 H         1 <0>         0.0560
     31 H8         -0.4829   -3.6633   -1.3865 H         1 <0>         0.0560
     32 H9         -1.2787   -2.1301   -1.8157 H         1 <0>         0.0918
     33 H10         0.0977   -1.9918   -3.8736 H         1 <0>         0.0865
     34 H11         0.8935   -3.5250   -3.4445 H         1 <0>         0.0492
     35 H12        -1.2980   -4.6828   -3.5169 H         1 <0>         0.0490
     36 H13        -2.0938   -3.1495   -3.9461 H         1 <0>         0.0588
     37 H14        -0.9380   -3.8985   -5.0737 H         1 <0>         0.0589
     38 H15         4.8462   -3.9051   -1.4201 H         1 <0>         0.1836
     39 H16         2.7400   -3.9725    2.2885 H         1 <0>         0.1836
@<TRIPOS>BOND
     1    1    2 1
     2    1   24 1
     3    1   25 1
     4    1   26 1
     5    2    3 1
     6    2   27 1
     7    2   28 1
     8    3    4 1
     9    3   29 1
    10    3   30 1
    11    4    5 1
    12    4    8 1
    13    5    6 1
    14    5   31 1
    15    5   32 1
    16    6    7 1
    17    6   33 1
    18    6   34 1
    19    7   35 1
    20    7   36 1
    21    7   37 1
    22    8   13 ar
    23    8    9 ar
    24    9   10 ar
    25    9   21 1
    26   10   11 ar
    27   10   38 1
    28   11   12 ar
    29   11   17 1
    30   12   13 ar
    31   12   39 1
    32   13   14 1
    33   14   15 2
    34   14   16 1
    35   17   18 1
    36   17   19 1
    37   17   20 1
    38   21   22 2
    39   21   23 1
@<TRIPOS>MOLECULE
ZINC09136136
   31    33     0     0     0
SMALL
USER_CHARGES

@<TRIPOS>ATOM
      1 C1         -0.0167    1.3798    0.0096 C.ar      1 <0>        -0.1044
      2 C2          1.1681    2.0951    0.0022 C.ar      1 <0>        -0.1231
      3 C3          2.3774    1.4328   -0.0129 C.ar      1 <0>        -0.0900
      4 C4          2.4047    0.0348   -0.0206 C.ar      1 <0>        -0.0841
      5 C5          1.2035   -0.6808   -0.0130 C.ar      1 <0>        -0.0999
      6 C6          0.0021   -0.0041    0.0020 C.ar      1 <0>        -0.1229
      7 C7          3.6917   -0.6800   -0.0372 C.2       1 <0>         0.0019
      8 C8          3.7140   -2.0274   -0.0446 C.2       1 <0>        -0.1664
      9 C9          4.9943   -2.7386   -0.0611 C.2       1 <0>         0.4368
     10 N1          4.9815   -4.1102   -0.0738 N.am      1 <0>        -0.6514
     11 H1          4.1355   -4.5848   -0.0718 H         1 <0>         0.4196
     12 C10         6.1429   -4.8049   -0.0897 C.2       1 <0>         0.5525
     13 O1          6.1503   -6.0220   -0.1020 O.2       1 <0>        -0.5111
     14 C11         7.3952   -4.0348   -0.0921 C.ar      1 <0>        -0.2048
     15 C12         8.6411   -4.6587   -0.1084 C.ar      1 <0>        -0.0396
     16 C13         9.7840   -3.8887   -0.1104 C.ar      1 <0>        -0.1404
     17 C14         9.7023   -2.5021   -0.0957 C.ar      1 <0>        -0.0705
     18 C15         8.4917   -1.8694   -0.0792 C.ar      1 <0>        -0.1131
     19 C16         7.3132   -2.6230   -0.0777 C.ar      1 <0>         0.1630
     20 N2          6.1022   -2.0347   -0.0683 N.2       1 <0>        -0.5227
     21 H2         -0.9607    1.9041    0.0260 H         1 <0>         0.1255
     22 H3          1.1454    3.1749    0.0078 H         1 <0>         0.1276
     23 H4          3.3011    1.9923   -0.0191 H         1 <0>         0.1301
     24 H5          1.2165   -1.7607   -0.0192 H         1 <0>         0.1272
     25 H6         -0.9266   -0.5554    0.0082 H         1 <0>         0.1267
     26 H7          4.6178   -0.1246   -0.0434 H         1 <0>         0.1455
     27 H8          2.7878   -2.5829   -0.0384 H         1 <0>         0.1411
     28 H9          8.7105   -5.7364   -0.1192 H         1 <0>         0.1382
     29 H10        10.7520   -4.3676   -0.1230 H         1 <0>         0.1342
     30 H11        10.6092   -1.9156   -0.0971 H         1 <0>         0.1349
     31 H12         8.4446   -0.7905   -0.0672 H         1 <0>         0.1397
@<TRIPOS>BOND
     1    1    6 ar
     2    1    2 ar
     3    1   21 1
     4    2    3 ar
     5    2   22 1
     6    3    4 ar
     7    3   23 1
     8    4    5 ar
     9    4    7 1
    10    5    6 ar
    11    5   24 1
    12    6   25 1
    13    7    8 2
    14    7   26 1
    15    8    9 1
    16    8   27 1
    17    9   20 2
    18    9   10 1
    19   10   11 1
    20   10   12 am
    21   12   13 2
    22   12   14 1
    23   14   19 ar
    24   14   15 ar
    25   15   16 ar
    26   15   28 1
    27   16   17 ar
    28   16   29 1
    29   17   18 ar
    30   17   30 1
    31   18   19 ar
    32   18   31 1
    33   19   20 1
@<TRIPOS>MOLECULE
ZINC03861806
   52    56     0     0     0
SMALL
USER_CHARGES

@<TRIPOS>ATOM
      1 C1         -3.6930   -4.3953    1.3855 C.3       1 <0>         0.0252
      2 O1         -2.4437   -3.8768    0.9246 O.3       1 <0>        -0.3003
      3 C2         -2.4359   -2.5932    0.4754 C.ar      1 <0>         0.1495
      4 C3         -3.6051   -1.8476    0.4840 C.ar      1 <0>        -0.2259
      5 C4         -3.5982   -0.5428    0.0277 C.ar      1 <0>        -0.0209
      6 C5         -2.4270    0.0241   -0.4388 C.ar      1 <0>        -0.2100
      7 C6         -1.2537   -0.7147   -0.4507 C.ar      1 <0>         0.1530
      8 C7         -1.2551   -2.0250    0.0125 C.ar      1 <0>         0.0322
      9 O2         -0.1044   -2.7517    0.0077 O.3       1 <0>        -0.3125
     10 C8          0.1804   -3.5080   -1.1708 C.3       1 <0>         0.0352
     11 O3         -0.1020   -0.1562   -0.9103 O.3       1 <0>        -0.3009
     12 C9         -0.1736    1.1963   -1.3658 C.3       1 <0>         0.0228
     13 C10        -4.8712    0.2637    0.0384 C.3       1 <0>         0.0189
     14 H1         -4.6351    1.3241    0.1275 H         1 <0>         0.1131
     15 C11        -5.7434   -0.1683    1.2044 C.ar      1 <0>        -0.0529
     16 C12        -5.3819    0.3279    2.4585 C.ar      1 <0>        -0.0868
     17 C13        -6.1565   -0.0324    3.5478 C.ar      1 <0>         0.0421
     18 C14        -7.2723   -0.8695    3.3919 C.ar      1 <0>         0.0393
     19 C15        -7.6229   -1.3601    2.1459 C.ar      1 <0>        -0.0960
     20 C16        -6.8323   -0.9991    1.0529 C.ar      1 <0>        -0.1113
     21 C17        -7.2358   -1.5900   -0.2866 C.3       1 <0>         0.1688
     22 H2         -8.0711   -1.0261   -0.7019 H         1 <0>         0.0847
     23 C18        -6.0407   -1.4964   -1.2162 C.3       1 <0>        -0.1345
     24 H3         -5.2202   -2.1338   -0.8868 H         1 <0>         0.1266
     25 C19        -5.6449    0.0168   -1.2401 C.3       1 <0>        -0.1550
     26 H4         -6.5338    0.6466   -1.2763 H         1 <0>         0.1353
     27 C20        -4.8681    0.0939   -2.5223 C.2       1 <0>         0.5007
     28 O4         -3.9698    0.8653   -2.7630 O.2       1 <0>        -0.4366
     29 O5         -5.3498   -0.8527   -3.3612 O.3       1 <0>        -0.3458
     30 C21        -6.3520   -1.6858   -2.7083 C.3       1 <0>         0.0681
     31 O6         -7.6124   -2.9581   -0.1179 O.3       1 <0>        -0.5509
     32 O7         -7.8478   -1.0577    4.6012 O.3       1 <0>        -0.3030
     33 C22        -6.8554   -0.6544    5.5678 C.3       1 <0>         0.2110
     34 O8         -6.0375    0.2962    4.8542 O.3       1 <0>        -0.3017
     35 H5         -3.5594   -5.4258    1.7147 H         1 <0>         0.1036
     36 H6         -4.0518   -3.7913    2.2188 H         1 <0>         0.0550
     37 H7         -4.4206   -4.3644    0.5745 H         1 <0>         0.0591
     38 H8         -4.5223   -2.2870    0.8474 H         1 <0>         0.1403
     39 H9         -2.4259    1.0438   -0.7948 H         1 <0>         0.1436
     40 H10         1.1236   -4.0390   -1.0427 H         1 <0>         0.0933
     41 H11        -0.6206   -4.2268   -1.3436 H         1 <0>         0.0441
     42 H12         0.2553   -2.8352   -2.0251 H         1 <0>         0.0449
     43 H13        -0.8820    1.2647   -2.1914 H         1 <0>         0.0632
     44 H14        -0.5045    1.8377   -0.5490 H         1 <0>         0.0578
     45 H15         0.8112    1.5183   -1.7045 H         1 <0>         0.1032
     46 H16        -4.5237    0.9730    2.5752 H         1 <0>         0.1469
     47 H17        -8.4816   -2.0034    2.0228 H         1 <0>         0.1434
     48 H18        -6.2416   -2.7319   -2.9939 H         1 <0>         0.1164
     49 H19        -7.3548   -1.3271   -2.9400 H         1 <0>         0.0940
     50 H20        -8.3572   -3.0895    0.4848 H         1 <0>         0.3841
     51 H21        -7.3297   -0.1809    6.4274 H         1 <0>         0.1352
     52 H22        -6.2591   -1.5107    5.8829 H         1 <0>         0.0906
@<TRIPOS>BOND
     1    1    2 1
     2    1   35 1
     3    1   36 1
     4    1   37 1
     5    2    3 1
     6    3    8 ar
     7    3    4 ar
     8    4    5 ar
     9    4   38 1
    10    5    6 ar
    11    5   13 1
    12    6    7 ar
    13    6   39 1
    14    7    8 ar
    15    7   11 1
    16    8    9 1
    17    9   10 1
    18   10   40 1
    19   10   41 1
    20   10   42 1
    21   11   12 1
    22   12   43 1
    23   12   44 1
    24   12   45 1
    25   13   14 1
    26   13   25 1
    27   13   15 1
    28   15   20 ar
    29   15   16 ar
    30   16   17 ar
    31   16   46 1
    32   17   34 1
    33   17   18 ar
    34   18   19 ar
    35   18   32 1
    36   19   20 ar
    37   19   47 1
    38   20   21 1
    39   21   22 1
    40   21   23 1
    41   21   31 1
    42   23   24 1
    43   23   30 1
    44   23   25 1
    45   25   26 1
    46   25   27 1
    47   27   28 2
    48   27   29 1
    49   29   30 1
    50   30   48 1
    51   30   49 1
    52   31   50 1
    53   32   33 1
    54   33   34 1
    55   33   51 1
    56   33   52 1
@<TRIPOS>MOLECULE
ZINC13452167
   43    44     0     0     0
SMALL
USER_CHARGES
2-methoxy-5-[(Z)-2-(3,4,5-trimethoxyphenyl)vinyl]phenol
@<TRIPOS>ATOM
      1 C1         -2.5739   -5.3278   -3.5961 C.3       1 <0>         0.0240
      2 O1         -1.6433   -6.2084   -2.9633 O.3       1 <0>        -0.3061
      3 C2         -0.5548   -5.6403   -2.3797 C.ar      1 <0>         0.1097
      4 C3         -0.3395   -4.2750   -2.4987 C.ar      1 <0>        -0.1980
      5 C4          0.7628   -3.6933   -1.9089 C.ar      1 <0>        -0.0560
      6 C5          1.6664   -4.4799   -1.1890 C.ar      1 <0>        -0.0890
      7 C6          1.4521   -5.8563   -1.0743 C.ar      1 <0>        -0.0967
      8 C7          0.3413   -6.4307   -1.6633 C.ar      1 <0>         0.0694
      9 O2          0.1266   -7.7688   -1.5490 O.3       1 <0>        -0.4855
     10 C8          2.8451   -3.8608   -0.5577 C.2       1 <0>        -0.0895
     11 C9          2.7487   -2.6388   -0.0089 C.2       1 <0>        -0.1155
     12 C10         1.4284   -2.0039    0.1484 C.ar      1 <0>         0.0156
     13 C11         0.3151   -2.7778    0.4869 C.ar      1 <0>        -0.2135
     14 C12        -0.9229   -2.1786    0.6342 C.ar      1 <0>         0.1497
     15 C13        -1.0593   -0.8059    0.4515 C.ar      1 <0>         0.0278
     16 C14         0.0461   -0.0334    0.1089 C.ar      1 <0>         0.1482
     17 C15         1.2869   -0.6264   -0.0400 C.ar      1 <0>        -0.2267
     18 O3         -0.0925    1.3070   -0.0743 O.3       1 <0>        -0.3027
     19 C16         1.0849    2.0399   -0.4188 C.3       1 <0>         0.0244
     20 O4         -2.2772   -0.2188    0.6026 O.3       1 <0>        -0.3121
     21 C17        -3.1047   -0.1329   -0.5593 C.3       1 <0>         0.0358
     22 O5         -2.0068   -2.9309    0.9640 O.3       1 <0>        -0.3010
     23 C18        -1.7777   -4.3154    1.2336 C.3       1 <0>         0.0252
     24 H1         -2.0933   -4.8395   -4.4439 H         1 <0>         0.0562
     25 H2         -3.4343   -5.8985   -3.9455 H         1 <0>         0.1031
     26 H3         -2.9040   -4.5736   -2.8817 H         1 <0>         0.0570
     27 H4         -1.0368   -3.6662   -3.0551 H         1 <0>         0.1322
     28 H5          0.9282   -2.6303   -2.0034 H         1 <0>         0.1292
     29 H6          2.1502   -6.4688   -0.5230 H         1 <0>         0.1393
     30 H7          0.5319   -8.2937   -2.2528 H         1 <0>         0.3875
     31 H8          3.7865   -4.3897   -0.5363 H         1 <0>         0.1328
     32 H9          3.6389   -2.1215    0.3171 H         1 <0>         0.1342
     33 H10         0.4211   -3.8426    0.6328 H         1 <0>         0.1395
     34 H11         2.1453   -0.0256   -0.3020 H         1 <0>         0.1375
     35 H12         1.4905    1.6567   -1.3552 H         1 <0>         0.0568
     36 H13         0.8353    3.0945   -0.5356 H         1 <0>         0.1033
     37 H14         1.8271    1.9275    0.3715 H         1 <0>         0.0585
     38 H15        -2.5933    0.4470   -1.3275 H         1 <0>         0.0434
     39 H16        -3.3076   -1.1356   -0.9357 H         1 <0>         0.0427
     40 H17        -4.0444    0.3552   -0.3008 H         1 <0>         0.0924
     41 H18        -2.7303   -4.8120    1.4183 H         1 <0>         0.1030
     42 H19        -1.2880   -4.7764    0.3758 H         1 <0>         0.0560
     43 H20        -1.1402   -4.4139    2.1122 H         1 <0>         0.0581
@<TRIPOS>BOND
     1    1    2 1
     2    1   24 1
     3    1   25 1
     4    1   26 1
     5    2    3 1
     6    3    8 ar
     7    3    4 ar
     8    4    5 ar
     9    4   27 1
    10    5    6 ar
    11    5   28 1
    12    6    7 ar
    13    6   10 1
    14    7    8 ar
    15    7   29 1
    16    8    9 1
    17    9   30 1
    18   10   11 2
    19   10   31 1
    20   11   12 1
    21   11   32 1
    22   12   17 ar
    23   12   13 ar
    24   13   14 ar
    25   13   33 1
    26   14   15 ar
    27   14   22 1
    28   15   16 ar
    29   15   20 1
    30   16   17 ar
    31   16   18 1
    32   17   34 1
    33   18   19 1
    34   19   35 1
    35   19   36 1
    36   19   37 1
    37   20   21 1
    38   21   38 1
    39   21   39 1
    40   21   40 1
    41   22   23 1
    42   23   41 1
    43   23   42 1
    44   23   43 1
@<TRIPOS>MOLECULE
ZINC03871987
   42    44     0     0     0
SMALL
USER_CHARGES

@<TRIPOS>ATOM
      1 C1          0.7867   -0.2825   -1.6502 C.3       1 <0>         0.0214
      2 O1         -0.0471    0.0810   -0.5480 O.3       1 <0>        -0.3020
      3 C2         -1.2362   -0.5666   -0.4342 C.ar      1 <0>         0.1315
      4 C3         -1.5882   -1.5360   -1.3630 C.ar      1 <0>        -0.2028
      5 C4         -2.7932   -2.1960   -1.2524 C.ar      1 <0>        -0.0433
      6 C5         -3.6637   -1.8897   -0.2027 C.ar      1 <0>        -0.0932
      7 C6         -3.3087   -0.9136    0.7328 C.ar      1 <0>        -0.0446
      8 C7         -2.0969   -0.2597    0.6181 C.ar      1 <0>         0.0711
      9 O2         -1.7461    0.6868    1.5294 O.3       1 <0>        -0.4806
     10 C8         -4.9535   -2.5941   -0.0826 C.2       1 <0>         0.1858
     11 C9         -6.0824   -1.8630    0.1366 C.2       1 <0>        -0.0822
     12 C10        -7.3313   -2.5257    0.2544 C.2       1 <0>         0.4082
     13 O3         -8.3632   -1.9036    0.4505 O.2       1 <0>        -0.4372
     14 C11        -7.3345   -3.9922    0.1306 C.ar      1 <0>        -0.2504
     15 C12        -6.1122   -4.6499   -0.0955 C.ar      1 <0>         0.1761
     16 O4         -4.9729   -3.9328   -0.1989 O.3       1 <0>        -0.2018
     17 C13        -6.0925   -6.0310   -0.2153 C.ar      1 <0>        -0.1669
     18 C14        -7.2702   -6.7542   -0.1130 C.ar      1 <0>         0.1746
     19 C15        -8.4836   -6.1063    0.1109 C.ar      1 <0>         0.0121
     20 C16        -8.5223   -4.7267    0.2333 C.ar      1 <0>         0.2036
     21 O5         -9.7031   -4.0917    0.4512 O.3       1 <0>        -0.4654
     22 O6         -9.6327   -6.8300    0.2092 O.3       1 <0>        -0.3145
     23 C17       -10.0054   -7.2818    1.5126 C.3       1 <0>         0.0334
     24 O7         -7.2417   -8.1070   -0.2326 O.3       1 <0>        -0.4750
     25 O8         -6.0123   -0.5080    0.2421 O.3       1 <0>        -0.2954
     26 C18        -6.6588    0.2564   -0.7776 C.3       1 <0>         0.0262
     27 H1          1.7025    0.3080   -1.6231 H         1 <0>         0.1054
     28 H2          1.0352   -1.3417   -1.5840 H         1 <0>         0.0599
     29 H3          0.2583   -0.0909   -2.5841 H         1 <0>         0.0593
     30 H4         -0.9164   -1.7736   -2.1746 H         1 <0>         0.1421
     31 H5         -3.0648   -2.9494   -1.9769 H         1 <0>         0.1374
     32 H6         -3.9784   -0.6738    1.5455 H         1 <0>         0.1498
     33 H7         -2.0302    1.5813    1.2967 H         1 <0>         0.3903
     34 H8         -5.1581   -6.5440   -0.3890 H         1 <0>         0.1605
     35 H9        -10.1662   -3.8339   -0.3576 H         1 <0>         0.4056
     36 H10       -10.1432   -6.4227    2.1693 H         1 <0>         0.0530
     37 H11       -10.9370   -7.8441    1.4497 H         1 <0>         0.1003
     38 H12        -9.2203   -7.9230    1.9132 H         1 <0>         0.0437
     39 H13        -7.1120   -8.5732    0.6046 H         1 <0>         0.4007
     40 H14        -7.7354    0.0945   -0.7256 H         1 <0>         0.0592
     41 H15        -6.4429    1.3146   -0.6303 H         1 <0>         0.0986
     42 H16        -6.2911   -0.0568   -1.7547 H         1 <0>         0.0454
@<TRIPOS>BOND
     1    1    2 1
     2    1   27 1
     3    1   28 1
     4    1   29 1
     5    2    3 1
     6    3    8 ar
     7    3    4 ar
     8    4    5 ar
     9    4   30 1
    10    5    6 ar
    11    5   31 1
    12    6    7 ar
    13    6   10 1
    14    7    8 ar
    15    7   32 1
    16    8    9 1
    17    9   33 1
    18   10   16 1
    19   10   11 2
    20   11   12 1
    21   11   25 1
    22   12   13 2
    23   12   14 1
    24   14   20 ar
    25   14   15 ar
    26   15   16 1
    27   15   17 ar
    28   17   18 ar
    29   17   34 1
    30   18   19 ar
    31   18   24 1
    32   19   20 ar
    33   19   22 1
    34   20   21 1
    35   21   35 1
    36   22   23 1
    37   23   36 1
    38   23   37 1
    39   23   38 1
    40   24   39 1
    41   25   26 1
    42   26   40 1
    43   26   41 1
    44   26   42 1
@<TRIPOS>MOLECULE
ZINC01595462
   55    57     0     0     0
SMALL
USER_CHARGES
N-(trimethoxy-methylamino-oxo-BLAHyl)acetamide
@<TRIPOS>ATOM
      1 C1          2.8146    5.1235   -5.3643 C.3       1 <0>        -0.1726
      2 C2          2.3932    4.3087   -4.1686 C.2       1 <0>         0.5138
      3 O1          1.2406    3.9488   -4.0558 O.2       1 <0>        -0.5381
      4 N1          3.2973    3.9801   -3.2246 N.am      1 <0>        -0.7282
      5 H1          4.2192    4.2679   -3.3148 H         1 <0>         0.4044
      6 C3          2.8876    3.1880   -2.0622 C.3       1 <0>         0.1679
      7 H2          2.1388    2.4602   -2.3747 H         1 <0>         0.1050
      8 C4          4.0945    2.4516   -1.5162 C.3       1 <0>        -0.1160
      9 C5          3.8185    1.9065   -0.1179 C.3       1 <0>        -0.0775
     10 C6          2.4527    1.2707   -0.0825 C.ar      1 <0>        -0.0285
     11 C7          2.3273   -0.1032   -0.0930 C.ar      1 <0>        -0.1954
     12 C8          1.0675   -0.6864   -0.0468 C.ar      1 <0>         0.1255
     13 C9         -0.0727    0.1075    0.0136 C.ar      1 <0>         0.0470
     14 C10         0.0462    1.4911    0.0221 C.ar      1 <0>         0.1337
     15 C11         1.3171    2.0714   -0.0319 C.ar      1 <0>        -0.0889
     16 C12         1.4507    3.5590   -0.0495 C.2       1 <0>        -0.0989
     17 C13         2.2771    4.1116   -1.0277 C.2       1 <0>         0.0468
     18 C14         2.5889    5.4157   -1.1350 C.2       1 <0>        -0.2447
     19 C15         2.2227    6.5206   -0.4229 C.2       1 <0>         0.3842
     20 O2          2.7564    7.5699   -0.7575 O.2       1 <0>        -0.5269
     21 C16         1.3214    6.6108    0.6354 C.2       1 <0>         0.1898
     22 C17         0.6697    5.5600    1.2087 C.2       1 <0>        -0.2044
     23 C18         0.7496    4.2526    0.9043 C.2       1 <0>         0.0147
     24 N2          1.0670    7.8719    1.1474 N.pl3     1 <0>        -0.7050
     25 C19         0.1293    8.0348    2.2611 C.3       1 <0>         0.0756
     26 O3         -1.0632    2.2741    0.0768 O.3       1 <0>        -0.3192
     27 C20        -1.5743    2.7625   -1.1651 C.3       1 <0>         0.0350
     28 O4         -1.3037   -0.4708    0.0639 O.3       1 <0>        -0.3130
     29 C21        -1.8939   -0.8495   -1.1812 C.3       1 <0>         0.0332
     30 O5          0.9486   -2.0404   -0.0602 O.3       1 <0>        -0.3037
     31 C22         2.1589   -2.7974   -0.1231 C.3       1 <0>         0.0236
     32 H3          3.8781    5.3513   -5.2922 H         1 <0>         0.0773
     33 H4          2.6256    4.5560   -6.2755 H         1 <0>         0.0963
     34 H5          2.2450    6.0524   -5.3900 H         1 <0>         0.0968
     35 H6          4.9416    3.1361   -1.4725 H         1 <0>         0.0818
     36 H7          4.3381    1.6232   -2.1814 H         1 <0>         0.0822
     37 H8          3.8577    2.7224    0.6038 H         1 <0>         0.0856
     38 H9          4.5723    1.1614    0.1363 H         1 <0>         0.0868
     39 H10         3.2089   -0.7254   -0.1368 H         1 <0>         0.1400
     40 H11         3.2655    5.6318   -1.9486 H         1 <0>         0.1294
     41 H12        -0.0012    5.8112    2.0169 H         1 <0>         0.1273
     42 H13         0.1410    3.6232    1.5367 H         1 <0>         0.1237
     43 H14         1.5096    8.6474    0.7687 H         1 <0>         0.4158
     44 H15         0.4852    7.4681    3.1216 H         1 <0>         0.0661
     45 H16         0.0585    9.0899    2.5251 H         1 <0>         0.0839
     46 H17        -0.8534    7.6674    1.9654 H         1 <0>         0.0660
     47 H18        -2.5099    3.2935   -0.9892 H         1 <0>         0.0966
     48 H19        -0.8498    3.4418   -1.6142 H         1 <0>         0.0548
     49 H20        -1.7532    1.9247   -1.8390 H         1 <0>         0.0453
     50 H21        -2.9077   -1.2104   -1.0079 H         1 <0>         0.0953
     51 H22        -1.9242    0.0135   -1.8463 H         1 <0>         0.0422
     52 H23        -1.2999   -1.6405   -1.6392 H         1 <0>         0.0484
     53 H24         1.9222   -3.8614   -0.1275 H         1 <0>         0.1033
     54 H25         2.7003   -2.5419   -1.0340 H         1 <0>         0.0569
     55 H26         2.7775   -2.5663    0.7441 H         1 <0>         0.0589
@<TRIPOS>BOND
     1    1    2 1
     2    1   32 1
     3    1   33 1
     4    1   34 1
     5    2    3 2
     6    2    4 am
     7    4    5 1
     8    4    6 1
     9    6    7 1
    10    6   17 1
    11    6    8 1
    12    8    9 1
    13    8   35 1
    14    8   36 1
    15    9   10 1
    16    9   37 1
    17    9   38 1
    18   10   15 ar
    19   10   11 ar
    20   11   12 ar
    21   11   39 1
    22   12   13 ar
    23   12   30 1
    24   13   14 ar
    25   13   28 1
    26   14   15 ar
    27   14   26 1
    28   15   16 1
    29   16   23 2
    30   16   17 1
    31   17   18 2
    32   18   19 1
    33   18   40 1
    34   19   20 2
    35   19   21 1
    36   21   22 2
    37   21   24 1
    38   22   23 1
    39   22   41 1
    40   23   42 1
    41   24   25 1
    42   24   43 1
    43   25   44 1
    44   25   45 1
    45   25   46 1
    46   26   27 1
    47   27   47 1
    48   27   48 1
    49   27   49 1
    50   28   29 1
    51   29   50 1
    52   29   51 1
    53   29   52 1
    54   30   31 1
    55   31   53 1
    56   31   54 1
    57   31   55 1
@<TRIPOS>MOLECULE
ZINC00056509
   32    34     0     0     0
SMALL
USER_CHARGES

@<TRIPOS>ATOM
      1 C1         -0.0597    1.4506   -0.1450 C.3       1 <0>         0.0460
      2 O1         -0.0313    0.0424    0.0961 O.3       1 <0>        -0.3317
      3 C2         -1.2083   -0.6149    0.0279 C.2       1 <0>         0.6419
      4 O2         -2.2313   -0.0066   -0.2297 O.2       1 <0>        -0.6165
      5 N1         -1.2510   -1.9335    0.2432 N.2       1 <0>        -0.6361
      6 C3         -2.4178   -2.5657    0.2603 C.2       1 <0>         0.6715
      7 N2         -3.6296   -1.9904    0.0309 N.pl3     1 <0>        -0.6092
      8 H1         -3.7845   -1.0544   -0.1711 H         1 <0>         0.4547
      9 C4         -4.6061   -2.9711    0.1353 C.ar      1 <0>         0.1172
     10 C5         -5.9897   -2.9448   -0.0007 C.ar      1 <0>        -0.1052
     11 C6         -6.7208   -4.0994    0.1617 C.ar      1 <0>        -0.0387
     12 C7         -6.0753   -5.3030    0.4635 C.ar      1 <0>        -0.1447
     13 C8         -4.6863   -5.3340    0.6005 C.ar      1 <0>        -0.0488
     14 C9         -3.9543   -4.1717    0.4372 C.ar      1 <0>         0.0797
     15 N3         -2.5916   -3.8926    0.5041 N.pl3     1 <0>        -0.5846
     16 C10        -6.8627   -6.5403    0.6377 C.2       1 <0>         0.4863
     17 O3         -8.0794   -6.4923    0.6412 O.2       1 <0>        -0.4343
     18 C11        -6.1803   -7.8249    0.8061 C.2       1 <0>        -0.2861
     19 C12        -6.7245   -9.0821    1.0351 C.2       1 <0>        -0.0558
     20 C13        -5.8215  -10.1102    1.1503 C.2       1 <0>        -0.1887
     21 C14        -4.4964   -9.8406    1.0365 C.2       1 <0>        -0.2255
     22 S1         -4.4347   -8.1842    0.7629 S.3       1 <0>         0.2135
     23 H2          0.9492    1.8543   -0.0597 H         1 <0>         0.1056
     24 H3         -0.4432    1.6399   -1.1476 H         1 <0>         0.0599
     25 H4         -0.7068    1.9318    0.5884 H         1 <0>         0.0596
     26 H5         -1.8883   -4.5331    0.6940 H         1 <0>         0.4509
     27 H6         -6.4912   -2.0171   -0.2337 H         1 <0>         0.1478
     28 H7         -7.7954   -4.0761    0.0562 H         1 <0>         0.1546
     29 H8         -4.1852   -6.2619    0.8332 H         1 <0>         0.1369
     30 H9         -7.7896   -9.2408    1.1177 H         1 <0>         0.1516
     31 H10        -6.1613  -11.1196    1.3293 H         1 <0>         0.1393
     32 H11        -3.6705  -10.5332    1.1029 H         1 <0>         0.1891
@<TRIPOS>BOND
     1    1    2 1
     2    1   23 1
     3    1   24 1
     4    1   25 1
     5    2    3 1
     6    3    4 2
     7    3    5 1
     8    5    6 2
     9    6   15 1
    10    6    7 1
    11    7    9 1
    12    7    8 1
    13    9   10 ar
    14    9   14 ar
    15   10   11 ar
    16   10   27 1
    17   11   12 ar
    18   11   28 1
    19   12   13 ar
    20   12   16 1
    21   13   14 ar
    22   13   29 1
    23   14   15 1
    24   15   26 1
    25   16   17 2
    26   16   18 1
    27   18   22 1
    28   18   19 2
    29   19   20 1
    30   19   30 1
    31   20   21 2
    32   20   31 1
    33   21   22 1
    34   21   32 1
@<TRIPOS>MOLECULE
ZINC00056509
   32    34     0     0     0
SMALL
USER_CHARGES

@<TRIPOS>ATOM
      1 C1         -0.1194    1.2456   -1.4289 C.3       1 <0>         0.0461
      2 O1         -0.0763   -0.1455   -1.1047 O.3       1 <0>        -0.3320
      3 C2         -1.2595   -0.7693   -0.9229 C.2       1 <0>         0.6414
      4 O2         -2.2998   -0.1468   -1.0371 O.2       1 <0>        -0.6156
      5 N1         -1.2892   -2.0704   -0.6175 N.2       1 <0>        -0.6369
      6 C3         -2.4467   -2.6641   -0.3552 C.2       1 <0>         0.6698
      7 N2         -3.6680   -2.0673   -0.4067 N.pl3     1 <0>        -0.6080
      8 H1         -3.8395   -1.1416   -0.6403 H         1 <0>         0.4547
      9 C4         -4.6296   -3.0155   -0.0667 C.ar      1 <0>         0.0733
     10 C5         -6.0076   -2.9619    0.0416 C.ar      1 <0>        -0.0319
     11 C6         -6.7185   -4.1050    0.4115 C.ar      1 <0>        -0.1433
     12 C7         -6.0365   -5.2983    0.6710 C.ar      1 <0>        -0.0595
     13 C8         -4.6655   -5.3485    0.5624 C.ar      1 <0>        -0.0980
     14 C9         -3.9535   -4.2123    0.1942 C.ar      1 <0>         0.1188
     15 N3         -2.6007   -3.9683    0.0022 N.pl3     1 <0>        -0.5834
     16 C10        -8.1899   -4.0543    0.5294 C.2       1 <0>         0.4847
     17 O3         -8.7726   -2.9902    0.4257 O.2       1 <0>        -0.4368
     18 C11        -8.9479   -5.2836    0.7708 C.2       1 <0>        -0.2864
     19 C12       -10.3136   -5.4464    0.9642 C.2       1 <0>        -0.0568
     20 C13       -10.7367   -6.7365    1.1696 C.2       1 <0>        -0.1895
     21 C14        -9.8218   -7.7387    1.1705 C.2       1 <0>        -0.2283
     22 S1         -8.3595   -6.9625    0.8855 S.3       1 <0>         0.2240
     23 H2          0.8964    1.6225   -1.5479 H         1 <0>         0.1055
     24 H3         -0.6699    1.3849   -2.3593 H         1 <0>         0.0599
     25 H4         -0.6175    1.7903   -0.6269 H         1 <0>         0.0596
     26 H5         -1.8866   -4.6162    0.1071 H         1 <0>         0.4512
     27 H6         -6.5315   -2.0391   -0.1590 H         1 <0>         0.1513
     28 H7         -6.5870   -6.1822    0.9575 H         1 <0>         0.1383
     29 H8         -4.1419   -6.2715    0.7634 H         1 <0>         0.1501
     30 H9        -10.9989   -4.6117    0.9539 H         1 <0>         0.1505
     31 H10       -11.7833   -6.9506    1.3286 H         1 <0>         0.1385
     32 H11        -9.9949   -8.7947    1.3166 H         1 <0>         0.1888
@<TRIPOS>BOND
     1    1    2 1
     2    1   23 1
     3    1   24 1
     4    1   25 1
     5    2    3 1
     6    3    4 2
     7    3    5 1
     8    5    6 2
     9    6   15 1
    10    6    7 1
    11    7    9 1
    12    7    8 1
    13    9   10 ar
    14    9   14 ar
    15   10   11 ar
    16   10   27 1
    17   11   12 ar
    18   11   16 1
    19   12   13 ar
    20   12   28 1
    21   13   14 ar
    22   13   29 1
    23   14   15 1
    24   15   26 1
    25   16   17 2
    26   16   18 1
    27   18   22 1
    28   18   19 2
    29   19   20 1
    30   19   30 1
    31   20   21 2
    32   20   31 1
    33   21   22 1
    34   21   32 1
