@<TRIPOS>MOLECULE
ZINC00621853
   54    56     0     0     0
SMALL
USER_CHARGES

@<TRIPOS>ATOM
      1 C1         -0.0284    1.4293   -0.4778 C.3       1 <0>        -0.1767
      2 C2         -0.0129   -0.0745   -0.3804 C.2       1 <0>         0.5133
      3 O1          1.0419   -0.6727   -0.4014 O.2       1 <0>        -0.5352
      4 N1         -1.1713   -0.7546   -0.2699 N.am      1 <0>        -0.7311
      5 C3         -1.1562   -2.2164   -0.1752 C.3       1 <0>         0.1688
      6 H1         -0.2762   -2.5266    0.3883 H         1 <0>         0.1083
      7 C4         -2.3999   -2.6766    0.5586 C.3       1 <0>        -0.1167
      8 C5         -2.6213   -4.1756    0.3776 C.3       1 <0>        -0.0793
      9 C6         -1.3153   -4.9067    0.5534 C.ar      1 <0>        -0.0232
     10 C7         -1.0582   -5.5960    1.7202 C.ar      1 <0>        -0.1967
     11 C8          0.1423   -6.2778    1.8745 C.ar      1 <0>         0.1328
     12 C9          1.0898   -6.2717    0.8565 C.ar      1 <0>         0.0421
     13 C10         0.8389   -5.5766   -0.3193 C.ar      1 <0>         0.1373
     14 C11        -0.3691   -4.8877   -0.4655 C.ar      1 <0>        -0.0983
     15 C12        -0.6334   -4.1159   -1.7162 C.2       1 <0>        -0.0547
     16 C13        -1.0800   -2.8009   -1.5711 C.2       1 <0>         0.0265
     17 C14        -1.4567   -1.9931   -2.5770 C.2       1 <0>        -0.2146
     18 C15        -1.4974   -2.1542   -3.9332 C.2       1 <0>         0.3926
     19 O2         -1.9764   -1.2222   -4.5653 O.2       1 <0>        -0.4893
     20 C16        -1.0654   -3.2383   -4.6895 C.2       1 <0>         0.1028
     21 C17        -0.5761   -4.4044   -4.1889 C.2       1 <0>        -0.1927
     22 C18        -0.4083   -4.7668   -2.9017 C.2       1 <0>        -0.0172
     23 O3         -1.1385   -3.1234   -6.0380 O.3       1 <0>        -0.2828
     24 C19        -0.6931   -4.2409   -6.8094 C.3       1 <0>         0.0136
     25 O4          1.7595   -5.5657   -1.3188 O.3       1 <0>        -0.3263
     26 C20         2.8002   -4.5904   -1.2317 C.3       1 <0>         0.0375
     27 O5          2.2617   -6.9458    1.0126 O.3       1 <0>        -0.3181
     28 C21         2.2856   -8.3114    0.5923 C.3       1 <0>         0.0378
     29 O6          0.3920   -6.9547    3.0264 O.3       1 <0>        -0.3018
     30 C22        -0.6230   -6.9211    4.0317 C.3       1 <0>         0.0227
     31 H2          0.9938    1.7986   -0.5602 H         1 <0>         0.0946
     32 H3         -0.5957    1.7305   -1.3585 H         1 <0>         0.0918
     33 H4         -0.4946    1.8464    0.4148 H         1 <0>         0.0904
     34 H5         -2.0149   -0.2761   -0.2531 H         1 <0>         0.4055
     35 H6         -2.2905   -2.4569    1.6206 H         1 <0>         0.0846
     36 H7         -3.2642   -2.1380    0.1701 H         1 <0>         0.0835
     37 H8         -3.3373   -4.5286    1.1197 H         1 <0>         0.0890
     38 H9         -3.0121   -4.3664   -0.6219 H         1 <0>         0.0850
     39 H10        -1.7902   -5.6054    2.5142 H         1 <0>         0.1419
     40 H11        -1.7954   -1.0220   -2.2473 H         1 <0>         0.1371
     41 H12        -0.2789   -5.1392   -4.9226 H         1 <0>         0.1361
     42 H13        -0.0246   -5.7689   -2.7793 H         1 <0>         0.1273
     43 H14        -1.2900   -5.1174   -6.5574 H         1 <0>         0.0642
     44 H15        -0.8052   -4.0177   -7.8704 H         1 <0>         0.1099
     45 H16         0.3557   -4.4397   -6.5888 H         1 <0>         0.0642
     46 H17         3.4194   -4.7966   -0.3586 H         1 <0>         0.0551
     47 H18         3.4145   -4.6331   -2.1311 H         1 <0>         0.0957
     48 H19         2.3606   -3.5973   -1.1389 H         1 <0>         0.0532
     49 H20         1.9730   -8.3763   -0.4499 H         1 <0>         0.0481
     50 H21         3.2970   -8.7050    0.6934 H         1 <0>         0.0941
     51 H22         1.6051   -8.8945    1.2127 H         1 <0>         0.0461
     52 H23        -1.5429   -7.3495    3.6338 H         1 <0>         0.0583
     53 H24        -0.2973   -7.4993    4.8964 H         1 <0>         0.1043
     54 H25        -0.8031   -5.8888    4.3318 H         1 <0>         0.0588
@<TRIPOS>BOND
     1    1    2 1
     2    1   31 1
     3    1   32 1
     4    1   33 1
     5    2    3 2
     6    2    4 am
     7    4    5 1
     8    4   34 1
     9    5    6 1
    10    5   16 1
    11    5    7 1
    12    7    8 1
    13    7   35 1
    14    7   36 1
    15    8    9 1
    16    8   37 1
    17    8   38 1
    18    9   14 ar
    19    9   10 ar
    20   10   11 ar
    21   10   39 1
    22   11   12 ar
    23   11   29 1
    24   12   13 ar
    25   12   27 1
    26   13   14 ar
    27   13   25 1
    28   14   15 1
    29   15   22 2
    30   15   16 1
    31   16   17 2
    32   17   18 1
    33   17   40 1
    34   18   19 2
    35   18   20 1
    36   20   21 2
    37   20   23 1
    38   21   22 1
    39   21   41 1
    40   22   42 1
    41   23   24 1
    42   24   43 1
    43   24   44 1
    44   24   45 1
    45   25   26 1
    46   26   46 1
    47   26   47 1
    48   26   48 1
    49   27   28 1
    50   28   49 1
    51   28   50 1
    52   28   51 1
    53   29   30 1
    54   30   52 1
    55   30   53 1
    56   30   54 1
@<TRIPOS>MOLECULE
ZINC28562954
   53    56     0     0     0
SMALL
USER_CHARGES
N-(3,5-dimethoxyphenyl)-3-[5-[(3-methoxyphenyl)amino]-2H-1,2,4-triazol-3-yl]pyridin-2-amine
@<TRIPOS>ATOM
      1 C1         -9.9003    0.1974   -1.8241 C.3       1 <0>         0.0222
      2 O1         -8.4888    0.4196   -1.8030 O.3       1 <0>        -0.3148
      3 C2         -7.7270   -0.5115   -1.1709 C.ar      1 <0>         0.1709
      4 C3         -8.3269   -1.6171   -0.5835 C.ar      1 <0>        -0.2341
      5 C4         -7.5537   -2.5653    0.0587 C.ar      1 <0>        -0.0364
      6 C5         -6.1811   -2.4190    0.1143 C.ar      1 <0>        -0.1884
      7 C6         -5.5756   -1.3117   -0.4668 C.ar      1 <0>         0.2184
      8 C7         -6.3511   -0.3582   -1.1129 C.ar      1 <0>        -0.2299
      9 N1         -4.1878   -1.1607   -0.4061 N.pl3     1 <0>        -0.6524
     10 C8         -3.6246    0.1168   -0.3896 C.2       1 <0>         0.5479
     11 N2         -2.3191    0.3883   -0.4414 N.2       1 <0>        -0.5869
     12 C9         -2.1348    1.6936   -0.4020 C.2       1 <0>         0.3142
     13 N3         -3.3497    2.2829   -0.3237 N.2       1 <0>        -0.3381
     14 H1         -5.3679    1.4767   -0.2665 H         1 <0>         0.4784
     15 N4         -4.2943    1.2438   -0.3206 N.pl3     1 <0>        -0.4821
     16 C10        -0.8315    2.3893   -0.4372 C.ar      1 <0>        -0.1319
     17 C11        -0.7557    3.7685   -0.2255 C.ar      1 <0>         0.0165
     18 C12         0.4887    4.3745   -0.2746 C.ar      1 <0>        -0.2274
     19 C13         1.6104    3.6057   -0.5234 C.ar      1 <0>         0.1793
     20 N5          1.5172    2.3038   -0.7152 N.ar      1 <0>        -0.5279
     21 C14         0.3528    1.6758   -0.6787 C.ar      1 <0>         0.4349
     22 N6          0.3019    0.3050   -0.8860 N.pl3     1 <0>        -0.6570
     23 C15         1.4612   -0.3922   -1.2367 C.ar      1 <0>         0.2456
     24 C16         2.4302    0.2206   -2.0202 C.ar      1 <0>        -0.1912
     25 C17         3.5827   -0.4696   -2.3624 C.ar      1 <0>         0.1836
     26 C18         3.7627   -1.7759   -1.9325 C.ar      1 <0>        -0.3213
     27 C19         2.7926   -2.3909   -1.1550 C.ar      1 <0>         0.1844
     28 C20         1.6422   -1.7000   -0.8067 C.ar      1 <0>        -0.2240
     29 O2          2.9700   -3.6708   -0.7342 O.3       1 <0>        -0.3142
     30 C21         4.1786   -4.3224   -1.1303 C.3       1 <0>         0.0246
     31 O3          4.5339    0.1319   -3.1241 O.3       1 <0>        -0.3115
     32 C22         5.6931   -0.6402   -3.4438 C.3       1 <0>         0.0244
     33 H2        -10.3929    1.0201   -2.3631 H         1 <0>         0.1058
     34 H3        -10.2803    0.1553   -0.7927 H         1 <0>         0.0606
     35 H4        -10.1141   -0.7542   -2.3328 H         1 <0>         0.0605
     36 H5         -9.3993   -1.7364   -0.6289 H         1 <0>         0.1335
     37 H6         -8.0231   -3.4244    0.5148 H         1 <0>         0.1350
     38 H7         -5.5787   -3.1637    0.6133 H         1 <0>         0.1343
     39 H8         -5.8827    0.5014   -1.5691 H         1 <0>         0.1331
     40 H9         -3.5390   -2.0483   -0.3713 H         1 <0>         0.4643
     41 H10        -1.5723    4.3172   -0.0464 H         1 <0>         0.1292
     42 H11         0.5706    5.3608   -0.1310 H         1 <0>         0.1281
     43 H12         2.5040    4.0533   -0.5571 H         1 <0>         0.1464
     44 H13        -0.6510   -0.2331   -0.7743 H         1 <0>         0.4602
     45 H14         2.2880    1.2361   -2.3591 H         1 <0>         0.1444
     46 H15         4.6586   -2.3148   -2.2035 H         1 <0>         0.1317
     47 H16         0.8873   -2.1788   -0.2007 H         1 <0>         0.1309
     48 H17         4.1937   -5.3449   -0.7250 H         1 <0>         0.1021
     49 H18         5.0416   -3.7614   -0.7424 H         1 <0>         0.0560
     50 H19         4.2307   -4.3623   -2.2283 H         1 <0>         0.0558
     51 H20         6.3766   -0.0375   -4.0600 H         1 <0>         0.1020
     52 H21         5.3924   -1.5391   -4.0019 H         1 <0>         0.0548
     53 H22         6.2026   -0.9382   -2.5156 H         1 <0>         0.0555
@<TRIPOS>BOND
     1    1    2 1
     2    1   33 1
     3    1   34 1
     4    1   35 1
     5    2    3 1
     6    3    8 ar
     7    3    4 ar
     8    4    5 ar
     9    4   36 1
    10    5    6 ar
    11    5   37 1
    12    6    7 ar
    13    6   38 1
    14    7    8 ar
    15    7    9 1
    16    8   39 1
    17    9   10 1
    18    9   40 1
    19   10   11 2
    20   10   15 1
    21   11   12 1
    22   12   16 1
    23   12   13 2
    24   13   15 1
    25   14   15 1
    26   16   21 ar
    27   16   17 ar
    28   17   18 ar
    29   17   41 1
    30   18   19 ar
    31   18   42 1
    32   19   20 ar
    33   19   43 1
    34   20   21 ar
    35   21   22 1
    36   22   23 1
    37   22   44 1
    38   23   28 ar
    39   23   24 ar
    40   24   25 ar
    41   24   45 1
    42   25   26 ar
    43   25   31 1
    44   26   27 ar
    45   26   46 1
    46   27   28 ar
    47   27   29 1
    48   28   47 1
    49   29   30 1
    50   30   48 1
    51   30   49 1
    52   30   50 1
    53   31   32 1
    54   32   51 1
    55   32   52 1
    56   32   53 1
@<TRIPOS>MOLECULE
ZINC03861806
   52    56     0     0     0
SMALL
USER_CHARGES

@<TRIPOS>ATOM
      1 C1         -3.6930   -4.3953    1.3855 C.3       1 <0>         0.0252
      2 O1         -2.4437   -3.8768    0.9246 O.3       1 <0>        -0.3003
      3 C2         -2.4359   -2.5932    0.4754 C.ar      1 <0>         0.1495
      4 C3         -3.6051   -1.8476    0.4840 C.ar      1 <0>        -0.2259
      5 C4         -3.5982   -0.5428    0.0277 C.ar      1 <0>        -0.0209
      6 C5         -2.4270    0.0241   -0.4388 C.ar      1 <0>        -0.2100
      7 C6         -1.2537   -0.7147   -0.4507 C.ar      1 <0>         0.1530
      8 C7         -1.2551   -2.0250    0.0125 C.ar      1 <0>         0.0322
      9 O2         -0.1044   -2.7517    0.0077 O.3       1 <0>        -0.3125
     10 C8          0.1804   -3.5080   -1.1708 C.3       1 <0>         0.0352
     11 O3         -0.1020   -0.1562   -0.9103 O.3       1 <0>        -0.3009
     12 C9         -0.1736    1.1963   -1.3658 C.3       1 <0>         0.0228
     13 C10        -4.8712    0.2637    0.0384 C.3       1 <0>         0.0189
     14 H1         -4.6351    1.3241    0.1275 H         1 <0>         0.1131
     15 C11        -5.7434   -0.1683    1.2044 C.ar      1 <0>        -0.0529
     16 C12        -5.3819    0.3279    2.4585 C.ar      1 <0>        -0.0868
     17 C13        -6.1565   -0.0324    3.5478 C.ar      1 <0>         0.0421
     18 C14        -7.2723   -0.8695    3.3919 C.ar      1 <0>         0.0393
     19 C15        -7.6229   -1.3601    2.1459 C.ar      1 <0>        -0.0960
     20 C16        -6.8323   -0.9991    1.0529 C.ar      1 <0>        -0.1113
     21 C17        -7.2358   -1.5900   -0.2866 C.3       1 <0>         0.1688
     22 H2         -8.0711   -1.0261   -0.7019 H         1 <0>         0.0847
     23 C18        -6.0407   -1.4964   -1.2162 C.3       1 <0>        -0.1345
     24 H3         -5.2202   -2.1338   -0.8868 H         1 <0>         0.1266
     25 C19        -5.6449    0.0168   -1.2401 C.3       1 <0>        -0.1550
     26 H4         -6.5338    0.6466   -1.2763 H         1 <0>         0.1353
     27 C20        -4.8681    0.0939   -2.5223 C.2       1 <0>         0.5007
     28 O4         -3.9698    0.8653   -2.7630 O.2       1 <0>        -0.4366
     29 O5         -5.3498   -0.8527   -3.3612 O.3       1 <0>        -0.3458
     30 C21        -6.3520   -1.6858   -2.7083 C.3       1 <0>         0.0681
     31 O6         -7.6124   -2.9581   -0.1179 O.3       1 <0>        -0.5509
     32 O7         -7.8478   -1.0577    4.6012 O.3       1 <0>        -0.3030
     33 C22        -6.8554   -0.6544    5.5678 C.3       1 <0>         0.2110
     34 O8         -6.0375    0.2962    4.8542 O.3       1 <0>        -0.3017
     35 H5         -3.5594   -5.4258    1.7147 H         1 <0>         0.1036
     36 H6         -4.0518   -3.7913    2.2188 H         1 <0>         0.0550
     37 H7         -4.4206   -4.3644    0.5745 H         1 <0>         0.0591
     38 H8         -4.5223   -2.2870    0.8474 H         1 <0>         0.1403
     39 H9         -2.4259    1.0438   -0.7948 H         1 <0>         0.1436
     40 H10         1.1236   -4.0390   -1.0427 H         1 <0>         0.0933
     41 H11        -0.6206   -4.2268   -1.3436 H         1 <0>         0.0441
     42 H12         0.2553   -2.8352   -2.0251 H         1 <0>         0.0449
     43 H13        -0.8820    1.2647   -2.1914 H         1 <0>         0.0632
     44 H14        -0.5045    1.8377   -0.5490 H         1 <0>         0.0578
     45 H15         0.8112    1.5183   -1.7045 H         1 <0>         0.1032
     46 H16        -4.5237    0.9730    2.5752 H         1 <0>         0.1469
     47 H17        -8.4816   -2.0034    2.0228 H         1 <0>         0.1434
     48 H18        -6.2416   -2.7319   -2.9939 H         1 <0>         0.1164
     49 H19        -7.3548   -1.3271   -2.9400 H         1 <0>         0.0940
     50 H20        -8.3572   -3.0895    0.4848 H         1 <0>         0.3841
     51 H21        -7.3297   -0.1809    6.4274 H         1 <0>         0.1352
     52 H22        -6.2591   -1.5107    5.8829 H         1 <0>         0.0906
@<TRIPOS>BOND
     1    1    2 1
     2    1   35 1
     3    1   36 1
     4    1   37 1
     5    2    3 1
     6    3    8 ar
     7    3    4 ar
     8    4    5 ar
     9    4   38 1
    10    5    6 ar
    11    5   13 1
    12    6    7 ar
    13    6   39 1
    14    7    8 ar
    15    7   11 1
    16    8    9 1
    17    9   10 1
    18   10   40 1
    19   10   41 1
    20   10   42 1
    21   11   12 1
    22   12   43 1
    23   12   44 1
    24   12   45 1
    25   13   14 1
    26   13   25 1
    27   13   15 1
    28   15   20 ar
    29   15   16 ar
    30   16   17 ar
    31   16   46 1
    32   17   34 1
    33   17   18 ar
    34   18   19 ar
    35   18   32 1
    36   19   20 ar
    37   19   47 1
    38   20   21 1
    39   21   22 1
    40   21   23 1
    41   21   31 1
    42   23   24 1
    43   23   30 1
    44   23   25 1
    45   25   26 1
    46   25   27 1
    47   27   28 2
    48   27   29 1
    49   29   30 1
    50   30   48 1
    51   30   49 1
    52   31   50 1
    53   32   33 1
    54   33   34 1
    55   33   51 1
    56   33   52 1
@<TRIPOS>MOLECULE
ZINC13452167
   43    44     0     0     0
SMALL
USER_CHARGES
2-methoxy-5-[(Z)-2-(3,4,5-trimethoxyphenyl)vinyl]phenol
@<TRIPOS>ATOM
      1 C1         -2.5739   -5.3278   -3.5961 C.3       1 <0>         0.0240
      2 O1         -1.6433   -6.2084   -2.9633 O.3       1 <0>        -0.3061
      3 C2         -0.5548   -5.6403   -2.3797 C.ar      1 <0>         0.1097
      4 C3         -0.3395   -4.2750   -2.4987 C.ar      1 <0>        -0.1980
      5 C4          0.7628   -3.6933   -1.9089 C.ar      1 <0>        -0.0560
      6 C5          1.6664   -4.4799   -1.1890 C.ar      1 <0>        -0.0890
      7 C6          1.4521   -5.8563   -1.0743 C.ar      1 <0>        -0.0967
      8 C7          0.3413   -6.4307   -1.6633 C.ar      1 <0>         0.0694
      9 O2          0.1266   -7.7688   -1.5490 O.3       1 <0>        -0.4855
     10 C8          2.8451   -3.8608   -0.5577 C.2       1 <0>        -0.0895
     11 C9          2.7487   -2.6388   -0.0089 C.2       1 <0>        -0.1155
     12 C10         1.4284   -2.0039    0.1484 C.ar      1 <0>         0.0156
     13 C11         0.3151   -2.7778    0.4869 C.ar      1 <0>        -0.2135
     14 C12        -0.9229   -2.1786    0.6342 C.ar      1 <0>         0.1497
     15 C13        -1.0593   -0.8059    0.4515 C.ar      1 <0>         0.0278
     16 C14         0.0461   -0.0334    0.1089 C.ar      1 <0>         0.1482
     17 C15         1.2869   -0.6264   -0.0400 C.ar      1 <0>        -0.2267
     18 O3         -0.0925    1.3070   -0.0743 O.3       1 <0>        -0.3027
     19 C16         1.0849    2.0399   -0.4188 C.3       1 <0>         0.0244
     20 O4         -2.2772   -0.2188    0.6026 O.3       1 <0>        -0.3121
     21 C17        -3.1047   -0.1329   -0.5593 C.3       1 <0>         0.0358
     22 O5         -2.0068   -2.9309    0.9640 O.3       1 <0>        -0.3010
     23 C18        -1.7777   -4.3154    1.2336 C.3       1 <0>         0.0252
     24 H1         -2.0933   -4.8395   -4.4439 H         1 <0>         0.0562
     25 H2         -3.4343   -5.8985   -3.9455 H         1 <0>         0.1031
     26 H3         -2.9040   -4.5736   -2.8817 H         1 <0>         0.0570
     27 H4         -1.0368   -3.6662   -3.0551 H         1 <0>         0.1322
     28 H5          0.9282   -2.6303   -2.0034 H         1 <0>         0.1292
     29 H6          2.1502   -6.4688   -0.5230 H         1 <0>         0.1393
     30 H7          0.5319   -8.2937   -2.2528 H         1 <0>         0.3875
     31 H8          3.7865   -4.3897   -0.5363 H         1 <0>         0.1328
     32 H9          3.6389   -2.1215    0.3171 H         1 <0>         0.1342
     33 H10         0.4211   -3.8426    0.6328 H         1 <0>         0.1395
     34 H11         2.1453   -0.0256   -0.3020 H         1 <0>         0.1375
     35 H12         1.4905    1.6567   -1.3552 H         1 <0>         0.0568
     36 H13         0.8353    3.0945   -0.5356 H         1 <0>         0.1033
     37 H14         1.8271    1.9275    0.3715 H         1 <0>         0.0585
     38 H15        -2.5933    0.4470   -1.3275 H         1 <0>         0.0434
     39 H16        -3.3076   -1.1356   -0.9357 H         1 <0>         0.0427
     40 H17        -4.0444    0.3552   -0.3008 H         1 <0>         0.0924
     41 H18        -2.7303   -4.8120    1.4183 H         1 <0>         0.1030
     42 H19        -1.2880   -4.7764    0.3758 H         1 <0>         0.0560
     43 H20        -1.1402   -4.4139    2.1122 H         1 <0>         0.0581
@<TRIPOS>BOND
     1    1    2 1
     2    1   24 1
     3    1   25 1
     4    1   26 1
     5    2    3 1
     6    3    8 ar
     7    3    4 ar
     8    4    5 ar
     9    4   27 1
    10    5    6 ar
    11    5   28 1
    12    6    7 ar
    13    6   10 1
    14    7    8 ar
    15    7   29 1
    16    8    9 1
    17    9   30 1
    18   10   11 2
    19   10   31 1
    20   11   12 1
    21   11   32 1
    22   12   17 ar
    23   12   13 ar
    24   13   14 ar
    25   13   33 1
    26   14   15 ar
    27   14   22 1
    28   15   16 ar
    29   15   20 1
    30   16   17 ar
    31   16   18 1
    32   17   34 1
    33   18   19 1
    34   19   35 1
    35   19   36 1
    36   19   37 1
    37   20   21 1
    38   21   38 1
    39   21   39 1
    40   21   40 1
    41   22   23 1
    42   23   41 1
    43   23   42 1
    44   23   43 1
