@<TRIPOS>MOLECULE
ZINC00206382
   31    33     0     0     0
SMALL
USER_CHARGES

@<TRIPOS>ATOM
      1 C1         -0.0201    1.3294    0.5207 C.ar      1 <0>        -0.0730
      2 C2          1.1656    2.0115    0.7020 C.ar      1 <0>        -0.1131
      3 C3          2.3746    1.3492    0.5732 C.ar      1 <0>        -0.0297
      4 C4          2.4007    0.0003    0.2627 C.ar      1 <0>        -0.1103
      5 C5          1.2205   -0.6909    0.0794 C.ar      1 <0>        -0.0910
      6 C6          0.0007   -0.0288    0.2080 C.ar      1 <0>        -0.0206
      7 C7         -1.2708   -0.7669    0.0126 C.2       1 <0>         0.1306
      8 C8         -1.2561   -2.0992   -0.2891 C.2       1 <0>        -0.2289
      9 S1         -3.0085   -2.4347   -0.4039 S.3       1 <0>         0.0220
     10 C9         -3.5792   -0.7803   -0.0416 C.2       1 <0>         0.3685
     11 N1         -2.4381   -0.1395    0.1346 N.2       1 <0>        -0.5558
     12 N2         -4.8763   -0.2986    0.0385 N.pl3     1 <0>        -0.6132
     13 C10        -5.9582   -1.1814   -0.0603 C.ar      1 <0>         0.1438
     14 C11        -5.8889   -2.4347    0.5341 C.ar      1 <0>        -0.1323
     15 C12        -6.9568   -3.3047    0.4365 C.ar      1 <0>        -0.1114
     16 C13        -8.0983   -2.9275   -0.2554 C.ar      1 <0>         0.0951
     17 C14        -8.1685   -1.6759   -0.8494 C.ar      1 <0>        -0.1153
     18 C15        -7.1037   -0.8024   -0.7480 C.ar      1 <0>        -0.1197
     19 O1         -9.1492   -3.7853   -0.3517 O.3       1 <0>        -0.4966
     20 Cl1         3.8628    2.2133    0.8013 Cl        1 <0>        -0.0677
     21 H1         -0.9627    1.8460    0.6254 H         1 <0>         0.1415
     22 H2          1.1506    3.0638    0.9443 H         1 <0>         0.1363
     23 H3          3.3464   -0.5118    0.1633 H         1 <0>         0.1380
     24 H4          1.2420   -1.7430   -0.1635 H         1 <0>         0.1356
     25 H5         -0.4171   -2.7661   -0.4219 H         1 <0>         0.1996
     26 H6         -5.0344    0.6503    0.1630 H         1 <0>         0.4276
     27 H7         -4.9999   -2.7288    1.0722 H         1 <0>         0.1341
     28 H8         -6.9030   -4.2793    0.8987 H         1 <0>         0.1380
     29 H9         -9.0575   -1.3831   -1.3882 H         1 <0>         0.1385
     30 H10        -7.1602    0.1737   -1.2067 H         1 <0>         0.1364
     31 H11        -9.7936   -3.6997    0.3642 H         1 <0>         0.3931
@<TRIPOS>BOND
     1    1    6 ar
     2    1    2 ar
     3    1   21 1
     4    2    3 ar
     5    2   22 1
     6    3    4 ar
     7    3   20 1
     8    4    5 ar
     9    4   23 1
    10    5    6 ar
    11    5   24 1
    12    6    7 1
    13    7   11 1
    14    7    8 2
    15    8    9 1
    16    8   25 1
    17    9   10 1
    18   10   11 2
    19   10   12 1
    20   12   13 1
    21   12   26 1
    22   13   18 ar
    23   13   14 ar
    24   14   15 ar
    25   14   27 1
    26   15   16 ar
    27   15   28 1
    28   16   17 ar
    29   16   19 1
    30   17   18 ar
    31   17   29 1
    32   18   30 1
    33   19   31 1
@<TRIPOS>MOLECULE
ZINC00613611
   37    40     0     0     0
SMALL
USER_CHARGES

@<TRIPOS>ATOM
      1 C1         -0.0057    1.2435   -1.0668 C.ar      1 <0>        -0.1135
      2 C2          1.1802    1.9649   -1.1920 C.ar      1 <0>        -0.1182
      3 C3          2.3881    1.3604   -1.0266 C.ar      1 <0>        -0.1018
      4 C4          2.4440   -0.0120   -0.7244 C.ar      1 <0>        -0.0556
      5 C5          3.6727   -0.6666   -0.5468 C.ar      1 <0>        -0.0661
      6 C6          3.6872   -2.0170   -0.2502 C.ar      1 <0>        -0.0276
      7 C7          2.4854   -2.7340   -0.1266 C.ar      1 <0>        -0.0990
      8 C8          1.2868   -2.1187   -0.2951 C.ar      1 <0>        -0.1060
      9 C9          1.2375   -0.7456   -0.5967 C.ar      1 <0>        -0.0475
     10 C10         0.0098   -0.0861   -0.7752 C.ar      1 <0>        -0.1085
     11 C11         4.9819   -2.7143   -0.0614 C.2       1 <0>         0.1334
     12 C12         5.0114   -4.0497    0.2270 C.2       1 <0>        -0.2311
     13 S1          6.7739   -4.3281    0.3388 S.3       1 <0>         0.0172
     14 C13         7.2896   -2.6522   -0.0069 C.2       1 <0>         0.3674
     15 N1          6.1280   -2.0475   -0.1765 N.2       1 <0>        -0.5558
     16 N2          8.5700   -2.1271   -0.0817 N.pl3     1 <0>        -0.6139
     17 C14         9.6805   -2.9747    0.0080 C.ar      1 <0>         0.1449
     18 C15         9.6525   -4.2231   -0.5997 C.ar      1 <0>        -0.1324
     19 C16        10.7484   -5.0587   -0.5107 C.ar      1 <0>        -0.1114
     20 C17        11.8769   -4.6513    0.1855 C.ar      1 <0>         0.0944
     21 C18        11.9057   -3.4046    0.7928 C.ar      1 <0>        -0.1154
     22 C19        10.8129   -2.5654    0.7000 C.ar      1 <0>        -0.1203
     23 O1         12.9554   -5.4750    0.2730 O.3       1 <0>        -0.4967
     24 H1         -0.9514    1.7480   -1.1988 H         1 <0>         0.1237
     25 H2          1.1399    3.0189   -1.4241 H         1 <0>         0.1239
     26 H3          3.2992    1.9315   -1.1272 H         1 <0>         0.1274
     27 H4          4.5994   -0.1200   -0.6415 H         1 <0>         0.1374
     28 H5          2.5153   -3.7884    0.1052 H         1 <0>         0.1267
     29 H6          0.3714   -2.6835   -0.1976 H         1 <0>         0.1311
     30 H7         -0.9176   -0.6315   -0.6811 H         1 <0>         0.1278
     31 H8          4.1950   -4.7453    0.3531 H         1 <0>         0.1988
     32 H9          8.6967   -1.1722   -0.1962 H         1 <0>         0.4272
     33 H10         8.7738   -4.5406   -1.1415 H         1 <0>         0.1342
     34 H11        10.7267   -6.0297   -0.9830 H         1 <0>         0.1378
     35 H12        12.7847   -3.0882    1.3347 H         1 <0>         0.1383
     36 H13        10.8371   -1.5930    1.1691 H         1 <0>         0.1362
     37 H14        13.5967   -5.3606   -0.4417 H         1 <0>         0.3928
@<TRIPOS>BOND
     1    1   10 ar
     2    1    2 ar
     3    1   24 1
     4    2    3 ar
     5    2   25 1
     6    3    4 ar
     7    3   26 1
     8    4    9 ar
     9    4    5 ar
    10    5    6 ar
    11    5   27 1
    12    6    7 ar
    13    6   11 1
    14    7    8 ar
    15    7   28 1
    16    8    9 ar
    17    8   29 1
    18    9   10 ar
    19   10   30 1
    20   11   15 1
    21   11   12 2
    22   12   13 1
    23   12   31 1
    24   13   14 1
    25   14   15 2
    26   14   16 1
    27   16   17 1
    28   16   32 1
    29   17   22 ar
    30   17   18 ar
    31   18   19 ar
    32   18   33 1
    33   19   20 ar
    34   19   34 1
    35   20   21 ar
    36   20   23 1
    37   21   22 ar
    38   21   35 1
    39   22   36 1
    40   23   37 1
@<TRIPOS>MOLECULE
ZINC00034746
   32    34     0     0     0
SMALL
USER_CHARGES
N-[4-(4-chlorophenyl)thiazol-2-yl]benzene-1,4-diamine
@<TRIPOS>ATOM
      1 C1         -1.8237    5.7930    0.6243 C.ar      1 <0>        -0.0916
      2 C2         -2.9097    6.6439    0.6495 C.ar      1 <0>        -0.1106
      3 C3         -4.1896    6.1416    0.4880 C.ar      1 <0>        -0.0305
      4 C4         -4.3868    4.7848    0.2960 C.ar      1 <0>        -0.1133
      5 C5         -3.3072    3.9260    0.2648 C.ar      1 <0>        -0.0733
      6 C6         -2.0164    4.4267    0.4265 C.ar      1 <0>        -0.0193
      7 C7         -0.8524    3.5081    0.3943 C.2       1 <0>         0.1326
      8 C8          0.4146    3.9936    0.5522 C.2       1 <0>        -0.2375
      9 S1          1.3677    2.4861    0.4277 S.3       1 <0>         0.0175
     10 C9         -0.0062    1.3704    0.1799 C.2       1 <0>         0.3737
     11 N1         -1.0310    2.2029    0.2054 N.2       1 <0>        -0.5622
     12 N2          0.0021   -0.0041    0.0020 N.pl3     1 <0>        -0.6072
     13 C10         1.2186   -0.6872   -0.1185 C.ar      1 <0>         0.0923
     14 C11         2.3009   -0.0744   -0.7364 C.ar      1 <0>        -0.1022
     15 C12         3.5019   -0.7459   -0.8504 C.ar      1 <0>        -0.1637
     16 C13         3.6245   -2.0381   -0.3566 C.ar      1 <0>         0.2058
     17 C14         2.5406   -2.6531    0.2562 C.ar      1 <0>        -0.1684
     18 C15         1.3411   -1.9796    0.3750 C.ar      1 <0>        -0.0874
     19 N3          4.8404   -2.7208   -0.4770 N.pl3     1 <0>        -0.8772
     20 Cl1        -5.5521    7.2167    0.5268 Cl        1 <0>        -0.0689
     21 H1         -0.8259    6.1853    0.7545 H         1 <0>         0.1354
     22 H2         -2.7612    7.7031    0.7997 H         1 <0>         0.1375
     23 H3         -5.3872    4.3978    0.1709 H         1 <0>         0.1359
     24 H4         -3.4620    2.8676    0.1157 H         1 <0>         0.1416
     25 H5          0.7487    5.0087    0.7087 H         1 <0>         0.1973
     26 H6         -0.8348   -0.4929   -0.0390 H         1 <0>         0.4251
     27 H7          2.2043    0.9290   -1.1241 H         1 <0>         0.1303
     28 H8          4.3448   -0.2678   -1.3273 H         1 <0>         0.1286
     29 H9          2.6360   -3.6580    0.6402 H         1 <0>         0.1291
     30 H10         0.4983   -2.4577    0.8519 H         1 <0>         0.1306
     31 H11         4.9259   -3.6235   -0.1324 H         1 <0>         0.3998
     32 H12         5.5975   -2.2913   -0.9050 H         1 <0>         0.4000
@<TRIPOS>BOND
     1    1    6 ar
     2    1    2 ar
     3    1   21 1
     4    2    3 ar
     5    2   22 1
     6    3    4 ar
     7    3   20 1
     8    4    5 ar
     9    4   23 1
    10    5    6 ar
    11    5   24 1
    12    6    7 1
    13    7   11 1
    14    7    8 2
    15    8    9 1
    16    8   25 1
    17    9   10 1
    18   10   11 2
    19   10   12 1
    20   12   13 1
    21   12   26 1
    22   13   18 ar
    23   13   14 ar
    24   14   15 ar
    25   14   27 1
    26   15   16 ar
    27   15   28 1
    28   16   17 ar
    29   16   19 1
    30   17   18 ar
    31   17   29 1
    32   18   30 1
    33   19   31 1
    34   19   32 1
@<TRIPOS>MOLECULE
ZINC36242028
   35    37     0     0     0
SMALL
USER_CHARGES

@<TRIPOS>ATOM
      1 C1         -0.0142    1.3245   -0.9276 C.3       1 <0>         0.0205
      2 O1          0.0042   -0.0712   -0.6212 O.3       1 <0>        -0.2757
      3 C2         -1.1984   -0.6924   -0.5017 C.ar      1 <0>         0.1594
      4 C3         -2.3711    0.0229   -0.6808 C.ar      1 <0>        -0.2170
      5 C4         -3.5940   -0.6100   -0.5585 C.ar      1 <0>        -0.0705
      6 C5         -3.6549   -1.9592   -0.2575 C.ar      1 <0>        -0.1602
      7 C6         -2.4942   -2.6840   -0.0769 C.ar      1 <0>        -0.0634
      8 C7         -1.2565   -2.0571   -0.2031 C.ar      1 <0>        -0.0651
      9 C8         -0.0062   -2.8324   -0.0157 C.2       1 <0>         0.1440
     10 C9         -0.0581   -4.1671    0.2711 C.2       1 <0>        -0.2392
     11 S1          1.6841   -4.5526    0.3826 S.3       1 <0>         0.0036
     12 C10         2.3009   -2.9108    0.0388 C.2       1 <0>         0.3641
     13 N1          1.1781   -2.2365   -0.1305 N.2       1 <0>        -0.5276
     14 N2          3.6110   -2.4646   -0.0359 N.pl3     1 <0>        -0.6149
     15 C11         4.6678   -3.3783    0.0533 C.ar      1 <0>         0.1481
     16 C12         4.5635   -4.6228   -0.5543 C.ar      1 <0>        -0.1330
     17 C13         5.6065   -5.5235   -0.4657 C.ar      1 <0>        -0.1112
     18 C14         6.7579   -5.1858    0.2303 C.ar      1 <0>         0.0922
     19 C15         6.8629   -3.9431    0.8375 C.ar      1 <0>        -0.1153
     20 C16         5.8234   -3.0387    0.7447 C.ar      1 <0>        -0.1222
     21 O2          7.7841   -6.0738    0.3178 O.3       1 <0>        -0.4969
     22 H1          1.0086    1.6952   -0.9947 H         1 <0>         0.0982
     23 H2         -0.5205    1.4807   -1.8801 H         1 <0>         0.0526
     24 H3         -0.5447    1.8620   -0.1417 H         1 <0>         0.0526
     25 H4         -2.3299    1.0762   -0.9159 H         1 <0>         0.1300
     26 H5         -4.5060   -0.0488   -0.6981 H         1 <0>         0.1264
     27 H6         -4.6139   -2.4467   -0.1631 H         1 <0>         0.1284
     28 H7         -2.5454   -3.7370    0.1580 H         1 <0>         0.1322
     29 H8         -0.9155   -4.8118    0.3960 H         1 <0>         0.1967
     30 H9          3.7956   -1.5192   -0.1501 H         1 <0>         0.4267
     31 H10         3.6669   -4.8861   -1.0956 H         1 <0>         0.1343
     32 H11         5.5255   -6.4913   -0.9381 H         1 <0>         0.1371
     33 H12         7.7596   -3.6811    1.3795 H         1 <0>         0.1375
     34 H13         5.9071   -2.0695    1.2138 H         1 <0>         0.1355
     35 H14         8.4310   -5.9990   -0.3970 H         1 <0>         0.3921
@<TRIPOS>BOND
     1    1    2 1
     2    1   22 1
     3    1   23 1
     4    1   24 1
     5    2    3 1
     6    3    8 ar
     7    3    4 ar
     8    4    5 ar
     9    4   25 1
    10    5    6 ar
    11    5   26 1
    12    6    7 ar
    13    6   27 1
    14    7    8 ar
    15    7   28 1
    16    8    9 1
    17    9   13 1
    18    9   10 2
    19   10   11 1
    20   10   29 1
    21   11   12 1
    22   12   13 2
    23   12   14 1
    24   14   15 1
    25   14   30 1
    26   15   20 ar
    27   15   16 ar
    28   16   17 ar
    29   16   31 1
    30   17   18 ar
    31   17   32 1
    32   18   19 ar
    33   18   21 1
    34   19   20 ar
    35   19   33 1
    36   20   34 1
    37   21   35 1
@<TRIPOS>MOLECULE
ZINC00295955
   28    30     0     0     0
SMALL
USER_CHARGES

@<TRIPOS>ATOM
      1 C1          0.0402    1.3168   -0.6412 C.2       1 <0>        -0.1581
      2 C2          1.2231    2.0127   -0.5056 C.2       1 <0>        -0.1248
      3 C3          2.3660    1.3168   -0.2170 C.2       1 <0>        -0.0949
      4 S1          1.7632   -0.3617   -0.1336 S.3       1 <0>         0.0679
      5 C4          0.0446   -0.0309   -0.4852 C.2       1 <0>        -0.1696
      6 C5          3.7419    1.8233   -0.0247 C.2       1 <0>         0.1755
      7 C6          4.7644    0.9590    0.2560 C.2       1 <0>        -0.2298
      8 S2          6.1388    2.0959    0.3772 S.3       1 <0>         0.0309
      9 C7          5.2231    3.5942    0.0450 C.2       1 <0>         0.3702
     10 N1          4.0009    3.1254   -0.1284 N.2       1 <0>        -0.5519
     11 N2          5.6769    4.9022   -0.0190 N.pl3     1 <0>        -0.6125
     12 C8          7.0473    5.1729    0.0728 C.ar      1 <0>         0.1438
     13 C9          7.9646    4.3310   -0.5423 C.ar      1 <0>        -0.1326
     14 C10         9.3162    4.5988   -0.4512 C.ar      1 <0>        -0.1112
     15 C11         9.7578    5.7084    0.2545 C.ar      1 <0>         0.0951
     16 C12         8.8423    6.5499    0.8693 C.ar      1 <0>        -0.1152
     17 C13         7.4900    6.2868    0.7743 C.ar      1 <0>        -0.1195
     18 O1         11.0891    5.9711    0.3442 O.3       1 <0>        -0.4966
     19 H1         -0.8787    1.8385   -0.8644 H         1 <0>         0.1373
     20 H2          1.2473    3.0858   -0.6252 H         1 <0>         0.1393
     21 H3         -0.7798   -0.7250   -0.5553 H         1 <0>         0.1896
     22 H4          4.7463   -0.1145    0.3728 H         1 <0>         0.1986
     23 H5          5.0449    5.6300   -0.1274 H         1 <0>         0.4279
     24 H6          7.6210    3.4669   -1.0915 H         1 <0>         0.1344
     25 H7         10.0297    3.9440   -0.9292 H         1 <0>         0.1382
     26 H8          9.1870    7.4135    1.4185 H         1 <0>         0.1385
     27 H9          6.7770    6.9447    1.2490 H         1 <0>         0.1366
     28 H10        11.4276    6.5336   -0.3658 H         1 <0>         0.3930
@<TRIPOS>BOND
     1    1    5 2
     2    1    2 1
     3    1   19 1
     4    2    3 2
     5    2   20 1
     6    3    4 1
     7    3    6 1
     8    4    5 1
     9    5   21 1
    10    6   10 1
    11    6    7 2
    12    7    8 1
    13    7   22 1
    14    8    9 1
    15    9   10 2
    16    9   11 1
    17   11   12 1
    18   11   23 1
    19   12   17 ar
    20   12   13 ar
    21   13   14 ar
    22   13   24 1
    23   14   15 ar
    24   14   25 1
    25   15   16 ar
    26   15   18 1
    27   16   17 ar
    28   16   26 1
    29   17   27 1
    30   18   28 1
@<TRIPOS>MOLECULE
ZINC00440786
   33    35     0     0     0
SMALL
USER_CHARGES
4-[4-(3-nitrophenyl)thiazol-2-yl]aminophenol
@<TRIPOS>ATOM
      1 C1         -1.2528    1.7872    0.5635 C.ar      1 <0>        -0.1133
      2 C2         -1.2605    3.1674    0.5727 C.ar      1 <0>        -0.0552
      3 C3         -0.0721    3.8695    0.3795 C.ar      1 <0>        -0.0183
      4 C4          1.1190    3.1724    0.1827 C.ar      1 <0>        -0.0251
      5 C5          1.1155    1.7926    0.1803 C.ar      1 <0>        -0.0447
      6 C6         -0.0671    1.1009    0.3730 C.ar      1 <0>        -0.0529
      7 N1          2.3794    1.0510   -0.0285 N.pl3     1 <0>         0.0269
      8 O1          2.3776   -0.1670   -0.0305 O.2       1 <0>        -0.1565
      9 O2          3.4212    1.6588   -0.1983 O.3       1 <0>        -0.1558
     10 C7         -0.0747    5.3525    0.3837 C.2       1 <0>         0.1269
     11 C8         -1.2394    6.0402    0.5761 C.2       1 <0>        -0.2279
     12 S1         -0.6507    7.7259    0.4839 S.3       1 <0>         0.0373
     13 C9          1.0730    7.3478    0.2008 C.2       1 <0>         0.3713
     14 N2          1.0584    6.0274    0.2055 N.2       1 <0>        -0.5579
     15 N3          2.1428    8.2119    0.0282 N.pl3     1 <0>        -0.6089
     16 C10         1.9206    9.5907   -0.0677 C.ar      1 <0>         0.1464
     17 C11         0.7617   10.0677   -0.6663 C.ar      1 <0>        -0.1397
     18 C12         0.5407   11.4279   -0.7553 C.ar      1 <0>        -0.1079
     19 C13         1.4810   12.3179   -0.2574 C.ar      1 <0>         0.0929
     20 C14         2.6414   11.8424    0.3355 C.ar      1 <0>        -0.1118
     21 C15         2.8615   10.4824    0.4305 C.ar      1 <0>        -0.1224
     22 O3          1.2653   13.6573   -0.3509 O.3       1 <0>        -0.4964
     23 H1         -2.1736    1.2420    0.7094 H         1 <0>         0.1536
     24 H2         -2.1861    3.7022    0.7259 H         1 <0>         0.1466
     25 H3          2.0428    3.7113    0.0322 H         1 <0>         0.1624
     26 H4         -0.0652    0.0209    0.3703 H         1 <0>         0.1561
     27 H5         -2.2400    5.6681    0.7393 H         1 <0>         0.2015
     28 H6          3.0456    7.8612   -0.0262 H         1 <0>         0.4295
     29 H7          0.0316    9.3750   -1.0580 H         1 <0>         0.1348
     30 H8         -0.3627   11.7990   -1.2164 H         1 <0>         0.1385
     31 H9          3.3728   12.5360    0.7233 H         1 <0>         0.1393
     32 H10         3.7648   10.1124    0.8925 H         1 <0>         0.1374
     33 H11         1.6082   14.0551   -1.1628 H         1 <0>         0.3932
@<TRIPOS>BOND
     1    1    6 ar
     2    1    2 ar
     3    1   23 1
     4    2    3 ar
     5    2   24 1
     6    3    4 ar
     7    3   10 1
     8    4    5 ar
     9    4   25 1
    10    5    6 ar
    11    5    7 1
    12    6   26 1
    13    7    8 2
    14    7    9 1
    15   10   14 1
    16   10   11 2
    17   11   12 1
    18   11   27 1
    19   12   13 1
    20   13   14 2
    21   13   15 1
    22   15   16 1
    23   15   28 1
    24   16   21 ar
    25   16   17 ar
    26   17   18 ar
    27   17   29 1
    28   18   19 ar
    29   18   30 1
    30   19   20 ar
    31   19   22 1
    32   20   21 ar
    33   20   31 1
    34   21   32 1
    35   22   33 1
@<TRIPOS>MOLECULE
ZINC00246644
   35    37     0     0     0
SMALL
USER_CHARGES

@<TRIPOS>ATOM
      1 C1          0.9397    1.3250   -0.5210 C.3       1 <0>         0.0258
      2 O1          0.6889   -0.0747   -0.3792 O.3       1 <0>        -0.3165
      3 C2          1.1479   -0.6723    0.7518 C.ar      1 <0>         0.1349
      4 C3          1.8209    0.0772    1.7069 C.ar      1 <0>        -0.2122
      5 C4          2.2880   -0.5264    2.8559 C.ar      1 <0>        -0.0428
      6 C5          2.0836   -1.8905    3.0573 C.ar      1 <0>        -0.0664
      7 C6          1.4075   -2.6404    2.0962 C.ar      1 <0>        -0.0612
      8 C7          0.9379   -2.0297    0.9520 C.ar      1 <0>        -0.1526
      9 C8          2.5851   -2.5429    4.2915 C.2       1 <0>         0.1429
     10 C9          2.3919   -3.8804    4.4913 C.2       1 <0>        -0.2385
     11 S1          3.1779   -4.0953    6.0829 S.3       1 <0>         0.0158
     12 C10         3.6787   -2.3954    6.3160 C.2       1 <0>         0.3663
     13 N1          3.2293   -1.8344    5.2078 N.2       1 <0>        -0.5572
     14 N2          4.3617   -1.8197    7.3759 N.pl3     1 <0>        -0.6141
     15 C11         4.8628   -2.6248    8.4056 C.ar      1 <0>         0.1453
     16 C12         5.4152   -3.8647    8.1120 C.ar      1 <0>        -0.1324
     17 C13         5.9092   -4.6583    9.1284 C.ar      1 <0>        -0.1113
     18 C14         5.8534   -4.2175   10.4425 C.ar      1 <0>         0.0940
     19 C15         5.3018   -2.9792   10.7367 C.ar      1 <0>        -0.1153
     20 C16         4.8129   -2.1817    9.7209 C.ar      1 <0>        -0.1207
     21 O2          6.3393   -5.0000   11.4429 O.3       1 <0>        -0.4967
     22 H1          2.0148    1.5044   -0.5106 H         1 <0>         0.0568
     23 H2          0.5220    1.6752   -1.4649 H         1 <0>         0.1017
     24 H3          0.4736    1.8631    0.3044 H         1 <0>         0.0567
     25 H4          1.9792    1.1339    1.5501 H         1 <0>         0.1306
     26 H5          2.8118    0.0572    3.5985 H         1 <0>         0.1346
     27 H6          1.2479   -3.6975    2.2492 H         1 <0>         0.1333
     28 H7          0.4101   -2.6092    0.2091 H         1 <0>         0.1354
     29 H8          1.8999   -4.6073    3.8620 H         1 <0>         0.1981
     30 H9          4.4925   -0.8590    7.4040 H         1 <0>         0.4269
     31 H10         5.4580   -4.2084    7.0890 H         1 <0>         0.1344
     32 H11         6.3388   -5.6226    8.9002 H         1 <0>         0.1378
     33 H12         5.2584   -2.6370   11.7601 H         1 <0>         0.1381
     34 H13         4.3875   -1.2157    9.9496 H         1 <0>         0.1360
     35 H14         7.2741   -4.8510   11.6401 H         1 <0>         0.3927
@<TRIPOS>BOND
     1    1    2 1
     2    1   22 1
     3    1   23 1
     4    1   24 1
     5    2    3 1
     6    3    8 ar
     7    3    4 ar
     8    4    5 ar
     9    4   25 1
    10    5    6 ar
    11    5   26 1
    12    6    7 ar
    13    6    9 1
    14    7    8 ar
    15    7   27 1
    16    8   28 1
    17    9   13 1
    18    9   10 2
    19   10   11 1
    20   10   29 1
    21   11   12 1
    22   12   13 2
    23   12   14 1
    24   14   15 1
    25   14   30 1
    26   15   20 ar
    27   15   16 ar
    28   16   17 ar
    29   16   31 1
    30   17   18 ar
    31   17   32 1
    32   18   19 ar
    33   18   21 1
    34   19   20 ar
    35   19   33 1
    36   20   34 1
    37   21   35 1
@<TRIPOS>MOLECULE
ZINC00447067
   31    33     0     0     0
SMALL
USER_CHARGES
4-[4-(3,4-dichlorophenyl)thiazol-2-yl]aminophenol
@<TRIPOS>ATOM
      1 C1          7.3834   -3.7681   -0.8035 C.ar      1 <0>        -0.1397
      2 C2          8.6712   -4.2535   -0.9167 C.ar      1 <0>        -0.1077
      3 C3          8.9844   -5.5118   -0.4239 C.ar      1 <0>         0.0918
      4 C4          8.0055   -6.2815    0.1873 C.ar      1 <0>        -0.1121
      5 C5          6.7184   -5.7955    0.3061 C.ar      1 <0>        -0.1236
      6 C6          6.4041   -4.5357   -0.1866 C.ar      1 <0>         0.1479
      7 N1          5.0996   -4.0422   -0.0666 N.pl3     1 <0>        -0.6102
      8 C7          4.8860   -2.6841    0.1097 C.2       1 <0>         0.3678
      9 N2          3.7482   -2.0142    0.1354 N.2       1 <0>        -0.5552
     10 C8          3.7301   -0.6957    0.3144 C.2       1 <0>         0.1285
     11 C9          4.9096   -0.0278    0.4846 C.2       1 <0>        -0.2269
     12 S1          6.0768   -1.3772    0.3705 S.3       1 <0>         0.0311
     13 C10         2.4425    0.0402    0.3349 C.ar      1 <0>        -0.0064
     14 C11         2.4290    1.4206    0.5290 C.ar      1 <0>        -0.0882
     15 C12         1.2289    2.1012    0.5474 C.ar      1 <0>        -0.0970
     16 C13         0.0387    1.4157    0.3741 C.ar      1 <0>        -0.0282
     17 C14         0.0460    0.0438    0.1813 C.ar      1 <0>        -0.0333
     18 C15         1.2423   -0.6462    0.1608 C.ar      1 <0>        -0.0666
     19 Cl1        -1.4505   -0.8090   -0.0355 Cl        1 <0>        -0.0444
     20 Cl2        -1.4673    2.2789    0.3912 Cl        1 <0>        -0.0452
     21 O1         10.2516   -5.9912   -0.5404 O.3       1 <0>        -0.4965
     22 H1          7.1387   -2.7902   -1.1912 H         1 <0>         0.1353
     23 H2          9.4339   -3.6549   -1.3924 H         1 <0>         0.1382
     24 H3          8.2502   -7.2611    0.5708 H         1 <0>         0.1387
     25 H4          5.9566   -6.3948    0.7823 H         1 <0>         0.1367
     26 H5          4.3453   -4.6506   -0.1068 H         1 <0>         0.4283
     27 H6          5.0878    1.0253    0.6446 H         1 <0>         0.2010
     28 H7          3.3568    1.9568    0.6641 H         1 <0>         0.1427
     29 H8          1.2180    3.1707    0.6970 H         1 <0>         0.1481
     30 H9          1.2476   -1.7156    0.0097 H         1 <0>         0.1521
     31 H10        10.4112   -6.4870   -1.3552 H         1 <0>         0.3928
@<TRIPOS>BOND
     1    1    6 ar
     2    1    2 ar
     3    1   22 1
     4    2    3 ar
     5    2   23 1
     6    3    4 ar
     7    3   21 1
     8    4    5 ar
     9    4   24 1
    10    5    6 ar
    11    5   25 1
    12    6    7 1
    13    7    8 1
    14    7   26 1
    15    8   12 1
    16    8    9 2
    17    9   10 1
    18   10   11 2
    19   10   13 1
    20   11   12 1
    21   11   27 1
    22   13   18 ar
    23   13   14 ar
    24   14   15 ar
    25   14   28 1
    26   15   16 ar
    27   15   29 1
    28   16   17 ar
    29   16   20 1
    30   17   18 ar
    31   17   19 1
    32   18   30 1
    33   21   31 1
@<TRIPOS>MOLECULE
ZINC02900976
   33    35     0     0     0
SMALL
USER_CHARGES
4-(4-chlorophenyl)-N-[3-(trifluoromethyl)phenyl]-thiazol-2-amine
@<TRIPOS>ATOM
      1 C1         -4.1633    6.7351    0.3637 C.ar      1 <0>        -0.0841
      2 C2         -5.0046    5.8165   -0.2374 C.ar      1 <0>        -0.0887
      3 C3         -4.4941    4.6370   -0.7474 C.ar      1 <0>        -0.1456
      4 C4         -3.1407    4.3747   -0.6627 C.ar      1 <0>        -0.1118
      5 C5         -2.2937    5.2929   -0.0554 C.ar      1 <0>         0.1617
      6 C6         -2.8099    6.4771    0.4560 C.ar      1 <0>        -0.1103
      7 N1         -0.9243    5.0287    0.0359 N.pl3     1 <0>        -0.6103
      8 C7         -0.4790    3.7258    0.1968 C.2       1 <0>         0.3589
      9 N2          0.7564    3.2595    0.1951 N.2       1 <0>        -0.5483
     10 C8          1.0026    1.9629    0.3655 C.2       1 <0>         0.1288
     11 C9         -0.0427    1.1018    0.5450 C.2       1 <0>        -0.2235
     12 S1         -1.4253    2.2316    0.4533 S.3       1 <0>         0.0268
     13 C10         2.3971    1.4578    0.3600 C.ar      1 <0>        -0.0215
     14 C11         2.6496    0.0994    0.5442 C.ar      1 <0>        -0.0906
     15 C12         3.9486   -0.3660    0.5340 C.ar      1 <0>        -0.1100
     16 C13         5.0007    0.5151    0.3513 C.ar      1 <0>        -0.0291
     17 C14         4.7555    1.8659    0.1727 C.ar      1 <0>        -0.1130
     18 C15         3.4599    2.3408    0.1765 C.ar      1 <0>        -0.0727
     19 Cl1         6.6330   -0.0758    0.3466 Cl        1 <0>        -0.0671
     20 C16        -5.4146    3.6393   -1.4019 C.3       1 <0>         0.5079
     21 F1         -6.7260    4.1259   -1.3731 F         1 <0>        -0.1732
     22 F2         -5.0197    3.4414   -2.7293 F         1 <0>        -0.1735
     23 F3         -5.3528    2.4245   -0.7108 F         1 <0>        -0.1718
     24 H1         -4.5652    7.6554    0.7611 H         1 <0>         0.1466
     25 H2         -6.0626    6.0211   -0.3089 H         1 <0>         0.1458
     26 H3         -2.7420    3.4553   -1.0653 H         1 <0>         0.1413
     27 H4         -2.1535    7.1948    0.9255 H         1 <0>         0.1427
     28 H5         -0.2856    5.7570   -0.0134 H         1 <0>         0.4309
     29 H6         -0.0360    0.0324    0.6960 H         1 <0>         0.2013
     30 H7          1.8298   -0.5881    0.6913 H         1 <0>         0.1358
     31 H8          4.1451   -1.4189    0.6729 H         1 <0>         0.1384
     32 H9          5.5797    2.5492    0.0305 H         1 <0>         0.1366
     33 H10         3.2697    3.3948    0.0378 H         1 <0>         0.1415
@<TRIPOS>BOND
     1    1    6 ar
     2    1    2 ar
     3    1   24 1
     4    2    3 ar
     5    2   25 1
     6    3    4 ar
     7    3   20 1
     8    4    5 ar
     9    4   26 1
    10    5    6 ar
    11    5    7 1
    12    6   27 1
    13    7    8 1
    14    7   28 1
    15    8   12 1
    16    8    9 2
    17    9   10 1
    18   10   11 2
    19   10   13 1
    20   11   12 1
    21   11   29 1
    22   13   18 ar
    23   13   14 ar
    24   14   15 ar
    25   14   30 1
    26   15   16 ar
    27   15   31 1
    28   16   17 ar
    29   16   19 1
    30   17   18 ar
    31   17   32 1
    32   18   33 1
    33   20   21 1
    34   20   22 1
    35   20   23 1
@<TRIPOS>MOLECULE
ZINC00088525
   30    32     0     0     0
SMALL
USER_CHARGES

@<TRIPOS>ATOM
      1 C1          0.0487    1.3516   -0.6857 C.ar      1 <0>        -0.1742
      2 C2          1.2301    2.0522   -0.5120 C.ar      1 <0>        -0.0432
      3 C3          2.3914    1.3312   -0.2200 C.ar      1 <0>        -0.0769
      4 C4          2.3148   -0.0567   -0.1158 C.ar      1 <0>         0.1166
      5 N1          1.1673   -0.6795   -0.2895 N.ar      1 <0>        -0.4821
      6 C5          0.0552   -0.0260   -0.5659 C.ar      1 <0>         0.1015
      7 C6          3.6841    2.0315   -0.0246 C.2       1 <0>         0.1348
      8 C7          4.8177    1.3225    0.2556 C.2       1 <0>        -0.2292
      9 S1          6.0154    2.6440    0.3812 S.3       1 <0>         0.0253
     10 C8          4.8947    3.9963    0.0505 C.2       1 <0>         0.3681
     11 N2          3.7530    3.3566   -0.1259 N.2       1 <0>        -0.5573
     12 N3          5.1558    5.3562   -0.0096 N.pl3     1 <0>        -0.6132
     13 C9          6.4729    5.8209    0.0851 C.ar      1 <0>         0.1436
     14 C10         7.5025    5.1210   -0.5302 C.ar      1 <0>        -0.1323
     15 C11         8.8014    5.5804   -0.4367 C.ar      1 <0>        -0.1113
     16 C12         9.0779    6.7406    0.2715 C.ar      1 <0>         0.0953
     17 C13         8.0501    7.4401    0.8868 C.ar      1 <0>        -0.1153
     18 C14         6.7499    6.9852    0.7895 C.ar      1 <0>        -0.1197
     19 O1         10.3573    7.1923    0.3631 O.3       1 <0>        -0.4965
     20 H1         -0.8690    1.8758   -0.9080 H         1 <0>         0.1385
     21 H2          1.2538    3.1283   -0.6002 H         1 <0>         0.1426
     22 H3          3.2043   -0.6265    0.1090 H         1 <0>         0.1579
     23 H4         -0.8647   -0.5755   -0.7009 H         1 <0>         0.1585
     24 H5          4.9532    0.2571    0.3698 H         1 <0>         0.2008
     25 H6          4.4258    5.9859   -0.1173 H         1 <0>         0.4274
     26 H7          7.2875    4.2174   -1.0814 H         1 <0>         0.1342
     27 H8          9.6023    5.0360   -0.9149 H         1 <0>         0.1382
     28 H9          8.2664    8.3429    1.4386 H         1 <0>         0.1386
     29 H10         5.9492    7.5324    1.2649 H         1 <0>         0.1364
     30 H11        10.6118    7.7992   -0.3455 H         1 <0>         0.3931
@<TRIPOS>BOND
     1    1    6 ar
     2    1    2 ar
     3    1   20 1
     4    2    3 ar
     5    2   21 1
     6    3    4 ar
     7    3    7 1
     8    4    5 ar
     9    4   22 1
    10    5    6 ar
    11    6   23 1
    12    7   11 1
    13    7    8 2
    14    8    9 1
    15    8   24 1
    16    9   10 1
    17   10   11 2
    18   10   12 1
    19   12   13 1
    20   12   25 1
    21   13   18 ar
    22   13   14 ar
    23   14   15 ar
    24   14   26 1
    25   15   16 ar
    26   15   27 1
    27   16   17 ar
    28   16   19 1
    29   17   18 ar
    30   17   28 1
    31   18   29 1
    32   19   30 1
@<TRIPOS>MOLECULE
ZINC00073545
   31    33     0     0     0
SMALL
USER_CHARGES
4-(4-phenylthiazol-2-yl)aminophenol
@<TRIPOS>ATOM
      1 C1         -4.1892    6.1416    0.4851 C.ar      1 <0>        -0.1131
      2 C2         -4.3865    4.7858    0.2944 C.ar      1 <0>        -0.1241
      3 C3         -3.3072    3.9263    0.2641 C.ar      1 <0>        -0.0853
      4 C4         -2.0164    4.4268    0.4257 C.ar      1 <0>        -0.0281
      5 C5         -1.8240    5.7932    0.6228 C.ar      1 <0>        -0.1030
      6 C6         -2.9103    6.6440    0.6456 C.ar      1 <0>        -0.1212
      7 C7         -0.8525    3.5082    0.3940 C.2       1 <0>         0.1329
      8 C8          0.4147    3.9938    0.5519 C.2       1 <0>        -0.2331
      9 S1          1.3677    2.4862    0.4275 S.3       1 <0>         0.0194
     10 C9         -0.0062    1.3704    0.1798 C.2       1 <0>         0.3646
     11 N1         -1.0309    2.2029    0.2053 N.2       1 <0>        -0.5535
     12 N2          0.0021   -0.0041    0.0020 N.pl3     1 <0>        -0.6115
     13 C10         1.2182   -0.6869   -0.1184 C.ar      1 <0>         0.1498
     14 C11         2.3007   -0.0745   -0.7363 C.ar      1 <0>        -0.1399
     15 C12         3.5017   -0.7467   -0.8495 C.ar      1 <0>        -0.1076
     16 C13         3.6236   -2.0376   -0.3565 C.ar      1 <0>         0.0904
     17 C14         2.5411   -2.6522    0.2557 C.ar      1 <0>        -0.1121
     18 C15         1.3411   -1.9793    0.3749 C.ar      1 <0>        -0.1249
     19 O1          4.8048   -2.7011   -0.4739 O.3       1 <0>        -0.4966
     20 H1         -5.0367    6.8105    0.5085 H         1 <0>         0.1236
     21 H2         -5.3871    4.3991    0.1694 H         1 <0>         0.1246
     22 H3         -3.4625    2.8679    0.1152 H         1 <0>         0.1312
     23 H4         -0.8264    6.1858    0.7533 H         1 <0>         0.1251
     24 H5         -2.7621    7.7034    0.7941 H         1 <0>         0.1263
     25 H6          0.7487    5.0087    0.7091 H         1 <0>         0.1984
     26 H7         -0.8348   -0.4929   -0.0390 H         1 <0>         0.4275
     27 H8          2.2046    0.9289   -1.1241 H         1 <0>         0.1355
     28 H9          4.3450   -0.2688   -1.3257 H         1 <0>         0.1378
     29 H10         2.6370   -3.6571    0.6395 H         1 <0>         0.1383
     30 H11         0.4986   -2.4579    0.8518 H         1 <0>         0.1363
     31 H12         4.8878   -3.2153   -1.2886 H         1 <0>         0.3923
@<TRIPOS>BOND
     1    1    6 ar
     2    1    2 ar
     3    1   20 1
     4    2    3 ar
     5    2   21 1
     6    3    4 ar
     7    3   22 1
     8    4    5 ar
     9    4    7 1
    10    5    6 ar
    11    5   23 1
    12    6   24 1
    13    7   11 1
    14    7    8 2
    15    8    9 1
    16    8   25 1
    17    9   10 1
    18   10   11 2
    19   10   12 1
    20   12   13 1
    21   12   26 1
    22   13   18 ar
    23   13   14 ar
    24   14   15 ar
    25   14   27 1
    26   15   16 ar
    27   15   28 1
    28   16   17 ar
    29   16   19 1
    30   17   18 ar
    31   17   29 1
    32   18   30 1
    33   19   31 1
@<TRIPOS>MOLECULE
ZINC00088404
   30    32     0     0     0
SMALL
USER_CHARGES
4-[4-(4-pyridyl)thiazol-2-yl]aminophenol
@<TRIPOS>ATOM
      1 C1          3.0265    4.4502    0.7141 C.ar      1 <0>        -0.1399
      2 C2          4.3726    4.7453    0.8028 C.ar      1 <0>        -0.1076
      3 C3          4.8542    5.9463    0.3029 C.ar      1 <0>         0.0918
      4 C4          3.9849    6.8499   -0.2904 C.ar      1 <0>        -0.1120
      5 C5          2.6392    6.5543   -0.3843 C.ar      1 <0>        -0.1238
      6 C6          2.1563    5.3519    0.1156 C.ar      1 <0>         0.1479
      7 N1          0.7922    5.0516    0.0213 N.pl3     1 <0>        -0.6103
      8 C7          0.3820    3.7392   -0.1510 C.2       1 <0>         0.3663
      9 N2         -0.8403    3.2404   -0.1538 N.2       1 <0>        -0.5526
     10 C8         -1.0527    1.9398   -0.3424 C.2       1 <0>         0.1237
     11 C9          0.0165    1.1075   -0.5240 C.2       1 <0>        -0.2218
     12 S1          1.3676    2.2745   -0.4286 S.3       1 <0>         0.0305
     13 C10        -2.4325    1.3994   -0.3504 C.ar      1 <0>         0.0206
     14 C11        -2.6687    0.0350   -0.5485 C.ar      1 <0>        -0.1596
     15 C12        -3.9682   -0.4264   -0.5433 C.ar      1 <0>         0.1007
     16 N3         -4.9804    0.4016   -0.3654 N.ar      1 <0>        -0.4842
     17 C13        -4.8015    1.6960   -0.1802 C.ar      1 <0>         0.0976
     18 C14        -3.5347    2.2406   -0.1657 C.ar      1 <0>        -0.1410
     19 O1          6.1792    6.2382    0.3950 O.3       1 <0>        -0.4964
     20 H1          2.6512    3.5167    1.1068 H         1 <0>         0.1351
     21 H2          5.0501    4.0424    1.2646 H         1 <0>         0.1383
     22 H3          4.3606    7.7847   -0.6793 H         1 <0>         0.1388
     23 H4          1.9626    7.2578   -0.8466 H         1 <0>         0.1367
     24 H5          0.1343    5.7622    0.0765 H         1 <0>         0.4282
     25 H6          0.0387    0.0399   -0.6853 H         1 <0>         0.2009
     26 H7         -1.8454   -0.6475   -0.6996 H         1 <0>         0.1377
     27 H8         -4.1605   -1.4787   -0.6918 H         1 <0>         0.1599
     28 H9         -5.6588    2.3374   -0.0385 H         1 <0>         0.1585
     29 H10        -3.3957    3.3008   -0.0137 H         1 <0>         0.1430
     30 H11         6.4238    6.7044    1.2061 H         1 <0>         0.3928
@<TRIPOS>BOND
     1    1    6 ar
     2    1    2 ar
     3    1   20 1
     4    2    3 ar
     5    2   21 1
     6    3    4 ar
     7    3   19 1
     8    4    5 ar
     9    4   22 1
    10    5    6 ar
    11    5   23 1
    12    6    7 1
    13    7    8 1
    14    7   24 1
    15    8   12 1
    16    8    9 2
    17    9   10 1
    18   10   11 2
    19   10   13 1
    20   11   12 1
    21   11   25 1
    22   13   18 ar
    23   13   14 ar
    24   14   15 ar
    25   14   26 1
    26   15   16 ar
    27   15   27 1
    28   16   17 ar
    29   17   18 ar
    30   17   28 1
    31   18   29 1
    32   19   30 1
@<TRIPOS>MOLECULE
ZINC00088181
   30    32     0     0     0
SMALL
USER_CHARGES
4-[4-(2-pyridyl)thiazol-2-yl]aminophenol
@<TRIPOS>ATOM
      1 C1          0.0235    1.3362   -0.1730 C.ar      1 <0>        -0.0784
      2 C2          0.0503   -0.0380   -0.3702 C.ar      1 <0>        -0.1703
      3 C3          1.2631   -0.6723   -0.5602 C.ar      1 <0>         0.1028
      4 N1          2.3914    0.0092   -0.5565 N.ar      1 <0>        -0.4763
      5 C4          2.4094    1.3235   -0.3716 C.ar      1 <0>         0.1884
      6 C5          1.2216    2.0272   -0.1738 C.ar      1 <0>        -0.1366
      7 C6          3.7013    2.0486   -0.3753 C.2       1 <0>         0.1185
      8 C7          4.8733    1.3716   -0.5680 C.2       1 <0>        -0.1821
      9 S1          6.0522    2.7125   -0.4757 S.3       1 <0>         0.0221
     10 C8          4.8763    4.0282   -0.1923 C.2       1 <0>         0.3629
     11 N2          3.7335    3.3676   -0.1965 N.2       1 <0>        -0.5504
     12 N3          5.1037    5.3843   -0.0196 N.pl3     1 <0>        -0.6116
     13 C9          6.4141    5.8678    0.0758 C.ar      1 <0>         0.1504
     14 C10         7.3988    5.0925    0.6740 C.ar      1 <0>        -0.1400
     15 C11         8.6923    5.5680    0.7630 C.ar      1 <0>        -0.1074
     16 C12         9.0056    6.8242    0.2649 C.ar      1 <0>         0.0902
     17 C13         8.0214    7.6015   -0.3277 C.ar      1 <0>        -0.1121
     18 C14         6.7287    7.1252   -0.4226 C.ar      1 <0>        -0.1251
     19 O1         10.2784    7.2940    0.3579 O.3       1 <0>        -0.4966
     20 H1         -0.9126    1.8547   -0.0268 H         1 <0>         0.1372
     21 H2         -0.8683   -0.6060   -0.3746 H         1 <0>         0.1374
     22 H3          1.2869   -1.7410   -0.7141 H         1 <0>         0.1608
     23 H4          1.2372    3.0965   -0.0230 H         1 <0>         0.1432
     24 H5          5.0409    0.3172   -0.7305 H         1 <0>         0.2057
     25 H6          4.3550    5.9985    0.0352 H         1 <0>         0.4274
     26 H7          7.1541    4.1163    1.0659 H         1 <0>         0.1356
     27 H8          9.4592    4.9635    1.2242 H         1 <0>         0.1379
     28 H9          8.2663    8.5794   -0.7152 H         1 <0>         0.1382
     29 H10         5.9627    7.7303   -0.8847 H         1 <0>         0.1362
     30 H11        10.4569    7.7881    1.1698 H         1 <0>         0.3922
@<TRIPOS>BOND
     1    1    6 ar
     2    1    2 ar
     3    1   20 1
     4    2    3 ar
     5    2   21 1
     6    3    4 ar
     7    3   22 1
     8    4    5 ar
     9    5    6 ar
    10    5    7 1
    11    6   23 1
    12    7   11 1
    13    7    8 2
    14    8    9 1
    15    8   24 1
    16    9   10 1
    17   10   11 2
    18   10   12 1
    19   12   13 1
    20   12   25 1
    21   13   18 ar
    22   13   14 ar
    23   14   15 ar
    24   14   26 1
    25   15   16 ar
    26   15   27 1
    27   16   17 ar
    28   16   19 1
    29   17   18 ar
    30   17   28 1
    31   18   29 1
    32   19   30 1
