@<TRIPOS>MOLECULE
ZINC03799478
   41    44     0     0     0
SMALL
USER_CHARGES
(3-acridin-9-ylamino-5-amino-phenyl)methanol
@<TRIPOS>ATOM
      1 C1          0.6425    7.9653    5.4164 C.ar      1 <0>        -0.1186
      2 C2         -0.0699    8.4683    6.5049 C.ar      1 <0>        -0.0900
      3 C3         -1.1814    7.8385    6.9689 C.ar      1 <0>        -0.1025
      4 C4         -1.6295    6.6559    6.3454 C.ar      1 <0>         0.1676
      5 C5         -0.9014    6.1474    5.2376 C.ar      1 <0>        -0.1096
      6 C6          0.2435    6.8267    4.7873 C.ar      1 <0>        -0.0865
      7 C7         -1.3381    4.9665    4.6051 C.ar      1 <0>         0.2350
      8 C8         -2.4968    4.3424    5.1084 C.ar      1 <0>        -0.1080
      9 C9         -2.9886    3.1595    4.5308 C.ar      1 <0>        -0.0853
     10 C10        -4.1062    2.5745    5.0409 C.ar      1 <0>        -0.1184
     11 C11        -4.7698    3.1317    6.1340 C.ar      1 <0>        -0.0887
     12 C12        -4.3213    4.2724    6.7214 C.ar      1 <0>        -0.1038
     13 C13        -3.1664    4.9104    6.2242 C.ar      1 <0>         0.1682
     14 N1         -2.7171    6.0290    6.7908 N.ar      1 <0>        -0.4689
     15 N2         -0.6577    4.4423    3.5265 N.pl3     1 <0>        -0.6984
     16 C14         0.3206    3.4651    3.7255 C.ar      1 <0>         0.2479
     17 C15         0.9283    2.8563    2.6335 C.ar      1 <0>        -0.2161
     18 C16         1.8919    1.8863    2.8296 C.ar      1 <0>        -0.0048
     19 C17         2.2627    1.5252    4.1108 C.ar      1 <0>        -0.2190
     20 C18         1.6631    2.1336    5.2068 C.ar      1 <0>         0.2549
     21 C19         0.6907    3.1049    5.0136 C.ar      1 <0>        -0.2501
     22 N3          2.0382    1.7677    6.5015 N.pl3     1 <0>        -0.8754
     23 C20         2.5447    1.2246    1.6434 C.3       1 <0>         0.1158
     24 O1          1.7986    0.0627    1.2756 O.3       1 <0>        -0.5657
     25 H1          1.5224    8.4861    5.0685 H         1 <0>         0.1290
     26 H2          0.2677    9.3735    6.9877 H         1 <0>         0.1323
     27 H3         -1.7203    8.2431    7.8128 H         1 <0>         0.1386
     28 H4          0.8034    6.4473    3.9454 H         1 <0>         0.1301
     29 H5         -2.4839    2.7187    3.6839 H         1 <0>         0.1307
     30 H6         -4.4846    1.6673    4.5934 H         1 <0>         0.1294
     31 H7         -5.6553    2.6486    6.5199 H         1 <0>         0.1326
     32 H8         -4.8481    4.6889    7.5672 H         1 <0>         0.1387
     33 H9         -0.8584    4.7521    2.6294 H         1 <0>         0.4147
     34 H10         0.6437    3.1390    1.6308 H         1 <0>         0.1207
     35 H11         3.0192    0.7691    4.2605 H         1 <0>         0.1188
     36 H12         0.2229    3.5790    5.8637 H         1 <0>         0.1153
     37 H13         2.6600    1.0358    6.6377 H         1 <0>         0.3997
     38 H14         1.6769    2.2456    7.2644 H         1 <0>         0.3980
     39 H15         3.5629    0.9353    1.9036 H         1 <0>         0.0553
     40 H16         2.5679    1.9217    0.8057 H         1 <0>         0.0556
     41 H17         2.1622   -0.4145    0.5173 H         1 <0>         0.3809
@<TRIPOS>BOND
     1    1    6 ar
     2    1    2 ar
     3    1   25 1
     4    2    3 ar
     5    2   26 1
     6    3    4 ar
     7    3   27 1
     8    4   14 ar
     9    4    5 ar
    10    5    6 ar
    11    5    7 ar
    12    6   28 1
    13    7    8 ar
    14    7   15 1
    15    8   13 ar
    16    8    9 ar
    17    9   10 ar
    18    9   29 1
    19   10   11 ar
    20   10   30 1
    21   11   12 ar
    22   11   31 1
    23   12   13 ar
    24   12   32 1
    25   13   14 ar
    26   15   16 1
    27   15   33 1
    28   16   21 ar
    29   16   17 ar
    30   17   18 ar
    31   17   34 1
    32   18   19 ar
    33   18   23 1
    34   19   20 ar
    35   19   35 1
    36   20   21 ar
    37   20   22 1
    38   21   36 1
    39   22   37 1
    40   22   38 1
    41   23   24 1
    42   23   39 1
    43   23   40 1
    44   24   41 1
@<TRIPOS>MOLECULE
ZINC00026213
   41    43     0     0     0
SMALL
USER_CHARGES

@<TRIPOS>ATOM
      1 C1         -0.0169    1.3944    0.0097 C.ar      1 <0>        -0.1034
      2 C2          1.1568    2.0931    0.0023 C.ar      1 <0>        -0.0481
      3 C3          2.3764    1.4109   -0.0131 C.ar      1 <0>        -0.1544
      4 C4          2.3959    0.0135   -0.0207 C.ar      1 <0>        -0.0457
      5 C5          1.2229   -0.6863   -0.0133 C.ar      1 <0>        -0.0972
      6 C6          0.0021   -0.0041    0.0020 C.ar      1 <0>         0.0563
      7 C7         -1.2647   -0.7590    0.0105 C.2       1 <0>         0.0190
      8 C8         -1.3841   -2.1180    0.0099 C.2       1 <0>        -0.1549
      9 C9         -2.7553   -2.4080    0.0206 C.2       1 <0>        -0.1548
     10 C10        -3.4146   -1.2136    0.0273 C.2       1 <0>         0.0190
     11 O1         -2.5007   -0.2242    0.0262 O.3       1 <0>        -0.1557
     12 C11        -4.8785   -1.0362    0.0384 C.ar      1 <0>         0.0564
     13 C12        -5.7186   -2.1542    0.0488 C.ar      1 <0>        -0.0972
     14 C13        -7.0745   -1.9893    0.0591 C.ar      1 <0>        -0.0457
     15 C14        -7.6223   -0.7036    0.0593 C.ar      1 <0>        -0.1544
     16 C15        -6.7833    0.4140    0.0484 C.ar      1 <0>        -0.0481
     17 C16        -5.4272    0.2502    0.0444 C.ar      1 <0>        -0.1034
     18 C17        -9.0890   -0.5258    0.0704 C.cat     1 <0>         0.5991
     19 N1         -9.6116    0.7000    0.0706 N.pl3     1 <0>        -0.7604
     20 N2         -9.8893   -1.5913    0.0803 N.pl3     1 <0>        -0.7593
     21 C18         3.6456    2.1672   -0.0216 C.cat     1 <0>         0.5991
     22 N3          4.8086    1.5170   -0.0362 N.pl3     1 <0>        -0.7593
     23 N4          3.6272    3.4997   -0.0147 N.pl3     1 <0>        -0.7604
     24 H1         -0.9593    1.9216    0.0260 H         1 <0>         0.1515
     25 H2          1.1423    3.1730    0.0078 H         1 <0>         0.1440
     26 H3          3.3387   -0.5132   -0.0329 H         1 <0>         0.1469
     27 H4          1.2381   -1.7661   -0.0196 H         1 <0>         0.1554
     28 H5         -0.5757   -2.8342    0.0023 H         1 <0>         0.1686
     29 H6         -3.2045   -3.3901    0.0228 H         1 <0>         0.1686
     30 H7         -5.2954   -3.1479    0.0483 H         1 <0>         0.1554
     31 H8         -7.7234   -2.8526    0.0668 H         1 <0>         0.1470
     32 H9         -7.2072    1.4073    0.0482 H         1 <0>         0.1440
     33 H10        -4.7789    1.1140    0.0413 H         1 <0>         0.1515
     34 H11        -9.0291    1.4756    0.0634 H         1 <0>         0.4439
     35 H12        -9.5089   -2.4836    0.0802 H         1 <0>         0.4446
     36 H13       -10.8522   -1.4745    0.0876 H         1 <0>         0.4360
     37 H14         4.8220    0.5471   -0.0412 H         1 <0>         0.4446
     38 H15         2.7806    3.9730   -0.0041 H         1 <0>         0.4439
     39 H16         4.4604    3.9962   -0.0203 H         1 <0>         0.4359
     40 H17       -10.5746    0.8168    0.0779 H         1 <0>         0.4359
     41 H18         5.6419    2.0136   -0.0418 H         1 <0>         0.4360
@<TRIPOS>BOND
     1    1    6 ar
     2    1    2 ar
     3    1   24 1
     4    2    3 ar
     5    2   25 1
     6    3    4 ar
     7    3   21 1
     8    4    5 ar
     9    4   26 1
    10    5    6 ar
    11    5   27 1
    12    6    7 1
    13    7   11 1
    14    7    8 2
    15    8    9 1
    16    8   28 1
    17    9   10 2
    18    9   29 1
    19   10   11 1
    20   10   12 1
    21   12   17 ar
    22   12   13 ar
    23   13   14 ar
    24   13   30 1
    25   14   15 ar
    26   14   31 1
    27   15   16 ar
    28   15   18 1
    29   16   17 ar
    30   16   32 1
    31   17   33 1
    32   18   19 2
    33   18   20 1
    34   19   34 1
    35   19   40 1
    36   20   35 1
    37   20   36 1
    38   21   22 2
    39   21   23 1
    40   22   37 1
    41   22   41 1
    42   23   38 1
    43   23   39 1
@<TRIPOS>MOLECULE
ZINC03812923
   47    50     0     0     0
SMALL
USER_CHARGES

@<TRIPOS>ATOM
      1 C1          0.3807    1.4007   -0.0396 C.3       1 <0>         0.0335
      2 O1          0.2444   -0.0216   -0.0638 O.3       1 <0>        -0.3321
      3 C2         -0.3722   -0.6008    1.0007 C.ar      1 <0>         0.1403
      4 C3         -0.8403    0.1832    2.0417 C.ar      1 <0>        -0.2385
      5 C4         -1.4696   -0.4104    3.1278 C.ar      1 <0>         0.3077
      6 C5         -1.6293   -1.7896    3.1706 C.ar      1 <0>        -0.2469
      7 C6         -1.1630   -2.5733    2.1329 C.ar      1 <0>        -0.0789
      8 C7         -0.5391   -1.9836    1.0428 C.ar      1 <0>         0.0206
      9 N1         -0.0714   -2.7787   -0.0122 N.pl3     1 <0>        -0.7076
     10 C8         -0.1230   -4.1518    0.0849 C.ar      1 <0>         0.4223
     11 C9         -1.3030   -4.8599   -0.2199 C.ar      1 <0>        -0.1480
     12 C10        -2.4636   -4.1844   -0.6332 C.ar      1 <0>        -0.0187
     13 C11        -3.5891   -4.8929   -0.9216 C.ar      1 <0>        -0.1365
     14 C12        -3.6066   -6.2832   -0.8120 C.ar      1 <0>        -0.0034
     15 C13        -2.5031   -6.9707   -0.4154 C.ar      1 <0>        -0.1822
     16 C14        -1.3161   -6.2750   -0.1075 C.ar      1 <0>         0.2199
     17 N2         -0.2278   -6.9373    0.2819 N.ar      1 <0>        -0.5116
     18 C15         0.9091   -6.3101    0.5801 C.ar      1 <0>         0.2211
     19 C16         1.0041   -4.8967    0.4868 C.ar      1 <0>        -0.1461
     20 C17         2.2160   -4.2589    0.8013 C.ar      1 <0>        -0.0195
     21 C18         3.2885   -5.0024    1.1870 C.ar      1 <0>        -0.1381
     22 C19         3.2014   -6.3917    1.2742 C.ar      1 <0>        -0.0046
     23 C20         2.0423   -7.0424    0.9890 C.ar      1 <0>        -0.1816
     24 N3         -1.9427    0.3810    4.1799 N.2       1 <0>        -1.0898
     25 S1         -2.6934   -0.3264    5.4755 S.o2      1 <0>         2.5299
     26 O2         -3.8690   -0.9150    4.9364 O.2       1 <0>        -1.0277
     27 O3         -1.6911   -1.1326    6.0794 O.2       1 <0>        -1.0278
     28 C21        -3.1305    1.0520    6.5707 C.3       1 <0>        -0.6362
     29 H1          0.8884    1.7325   -0.9453 H         1 <0>         0.0922
     30 H2         -0.6067    1.8595    0.0122 H         1 <0>         0.0568
     31 H3          0.9643    1.6950    0.8326 H         1 <0>         0.0567
     32 H4         -0.7157    1.2555    2.0091 H         1 <0>         0.1295
     33 H5         -2.1184   -2.2498    4.0163 H         1 <0>         0.1102
     34 H6         -1.2881   -3.6454    2.1681 H         1 <0>         0.0986
     35 H7          0.2887   -2.3622   -0.8108 H         1 <0>         0.4288
     36 H8         -2.4627   -3.1080   -0.7212 H         1 <0>         0.1597
     37 H9         -4.4803   -4.3719   -1.2391 H         1 <0>         0.1505
     38 H10        -4.5125   -6.8227   -1.0459 H         1 <0>         0.1520
     39 H11        -2.5357   -8.0473   -0.3360 H         1 <0>         0.1531
     40 H12         2.2960   -3.1838    0.7369 H         1 <0>         0.1590
     41 H13         4.2192   -4.5105    1.4284 H         1 <0>         0.1499
     42 H14         4.0669   -6.9595    1.5821 H         1 <0>         0.1517
     43 H15         1.9934   -8.1187    1.0633 H         1 <0>         0.1531
     44 H16        -3.7949    1.7374    6.0446 H         1 <0>         0.1178
     45 H17        -3.6342    0.6662    7.4570 H         1 <0>         0.1055
     46 H18        -2.2250    1.5806    6.8686 H         1 <0>         0.1177
     47 H19        -0.2642   -7.9042    0.3506 H         1 <0>         0.4379
@<TRIPOS>BOND
     1    1    2 1
     2    1   29 1
     3    1   30 1
     4    1   31 1
     5    2    3 1
     6    3    8 ar
     7    3    4 ar
     8    4    5 ar
     9    4   32 1
    10    5    6 ar
    11    5   24 1
    12    6    7 ar
    13    6   33 1
    14    7    8 ar
    15    7   34 1
    16    8    9 1
    17    9   10 1
    18    9   35 1
    19   10   19 ar
    20   10   11 ar
    21   11   16 ar
    22   11   12 ar
    23   12   13 ar
    24   12   36 1
    25   13   14 ar
    26   13   37 1
    27   14   15 ar
    28   14   38 1
    29   15   16 ar
    30   15   39 1
    31   16   17 ar
    32   17   18 ar
    33   17   47 1
    34   18   23 ar
    35   18   19 ar
    36   19   20 ar
    37   20   21 ar
    38   20   40 1
    39   21   22 ar
    40   21   41 1
    41   22   23 ar
    42   22   42 1
    43   23   43 1
    44   24   25 1
    45   25   26 2
    46   25   27 2
    47   25   28 1
    48   28   44 1
    49   28   45 1
    50   28   46 1
@<TRIPOS>MOLECULE
ZINC03938684
   74    80     0     0     0
SMALL
USER_CHARGES
(4,5-dihydroxy-8-methyl-2,7,9-trioxabicyclo[4.4.0]dec-3-yl)oxy-(4-hydroxy-3,5-dimethoxy-phenyl)-BLAHone
@<TRIPOS>ATOM
      1 C1         -0.3704   -8.8482   -1.8306 C.3       1 <0>        -0.1389
      2 C2          0.3922   -7.5499   -1.5590 C.3       1 <0>         0.2387
      3 H1          1.4619   -7.7299   -1.6659 H         1 <0>         0.0639
      4 O1          0.1191   -7.1099   -0.2278 O.3       1 <0>        -0.3803
      5 C3          0.7378   -5.8656    0.1226 C.3       1 <0>         0.0713
      6 C4          0.2806   -4.8029   -0.8776 C.3       1 <0>         0.0381
      7 H2         -0.7967   -4.6630   -0.7890 H         1 <0>         0.0858
      8 C5          0.6176   -5.2913   -2.2923 C.3       1 <0>         0.0655
      9 H3          1.6970   -5.4079   -2.3891 H         1 <0>         0.0834
     10 O2         -0.0179   -6.5523   -2.5009 O.3       1 <0>        -0.3659
     11 C6          0.1250   -4.2510   -3.2983 C.3       1 <0>         0.1279
     12 H4         -0.9570   -4.1468   -3.2174 H         1 <0>         0.0769
     13 C7          0.8025   -2.9129   -2.9813 C.3       1 <0>         0.0629
     14 H5          1.8791   -3.0074   -3.1229 H         1 <0>         0.0866
     15 C8          0.5125   -2.5188   -1.5319 C.3       1 <0>         0.2236
     16 H6         -0.5584   -2.3573   -1.4083 H         1 <0>         0.0747
     17 O3          0.9410   -3.5602   -0.6484 O.3       1 <0>        -0.3829
     18 O4          1.2130   -1.3132   -1.2190 O.3       1 <0>        -0.3461
     19 C9          0.9189   -0.7900    0.0778 C.3       1 <0>         0.1531
     20 H7          0.6832   -1.6066    0.7603 H         1 <0>         0.1008
     21 C10        -0.2590    0.1647   -0.0079 C.ar      1 <0>        -0.1057
     22 C11        -1.5242   -0.4245   -0.0546 C.ar      1 <0>        -0.0920
     23 C12        -2.6275    0.4094   -0.1135 C.ar      1 <0>         0.0373
     24 C13        -2.4750    1.8046   -0.1292 C.ar      1 <0>         0.0483
     25 C14        -1.2172    2.3814   -0.0934 C.ar      1 <0>        -0.0900
     26 C15        -0.1090    1.5341   -0.0312 C.ar      1 <0>        -0.0410
     27 C16         1.2493    2.2128    0.0020 C.3       1 <0>         0.0185
     28 H8          1.2652    3.0401   -0.7074 H         1 <0>         0.1125
     29 C17         2.2947    1.1873   -0.3840 C.3       1 <0>        -0.1494
     30 H9          2.1570    0.8589   -1.4142 H         1 <0>         0.1387
     31 C18         2.1111   -0.0110    0.6012 C.3       1 <0>        -0.1384
     32 H10         1.9649    0.3082    1.6331 H         1 <0>         0.1300
     33 C19         3.4765   -0.6851    0.3962 C.3       1 <0>         0.0677
     34 O5          4.3926    0.4573    0.2686 O.3       1 <0>        -0.3452
     35 C20         3.7271    1.5623   -0.1421 C.2       1 <0>         0.4967
     36 O6          4.2049    2.6623   -0.2887 O.2       1 <0>        -0.4413
     37 C21         1.5283    2.7263    1.3911 C.ar      1 <0>        -0.0211
     38 C22         1.0365    2.0459    2.4892 C.ar      1 <0>        -0.2269
     39 C23         1.2958    2.5120    3.7692 C.ar      1 <0>         0.1422
     40 C24         2.0412    3.6715    3.9467 C.ar      1 <0>         0.0438
     41 C25         2.5291    4.3558    2.8398 C.ar      1 <0>         0.1471
     42 C26         2.2705    3.8797    1.5634 C.ar      1 <0>        -0.2070
     43 O7          3.2586    5.4911    3.0083 O.3       1 <0>        -0.3016
     44 C27         3.7275    6.1424    1.8259 C.3       1 <0>         0.0230
     45 O8          2.2924    4.1357    5.2011 O.3       1 <0>        -0.4720
     46 O9          0.8162    1.8388    4.8492 O.3       1 <0>        -0.3003
     47 C28         0.0582    0.6551    4.5916 C.3       1 <0>         0.0250
     48 O10        -3.6995    2.3760   -0.1838 O.3       1 <0>        -0.3011
     49 C29        -4.6276    1.3371    0.1920 C.3       1 <0>         0.2109
     50 O11        -3.9466    0.1149   -0.1612 O.3       1 <0>        -0.3025
     51 O12         0.2950   -1.9056   -3.8586 O.3       1 <0>        -0.5498
     52 O13         0.4701   -4.6624   -4.6226 O.3       1 <0>        -0.5426
     53 H11        -0.1542   -9.1916   -2.8423 H         1 <0>         0.0841
     54 H12        -0.0594   -9.6088   -1.1145 H         1 <0>         0.0842
     55 H13        -1.4407   -8.6690   -1.7287 H         1 <0>         0.0746
     56 H14         1.8220   -5.9692    0.0787 H         1 <0>         0.0715
     57 H15         0.4364   -5.5762    1.1294 H         1 <0>         0.1156
     58 H16        -1.6384   -1.4984   -0.0453 H         1 <0>         0.1389
     59 H17        -1.0969    3.4546   -0.1067 H         1 <0>         0.1473
     60 H18         3.7389   -1.2951    1.2606 H         1 <0>         0.1121
     61 H19         3.4779   -1.2841   -0.5145 H         1 <0>         0.1036
     62 H20         0.4533    1.1476    2.3502 H         1 <0>         0.1362
     63 H21         2.6493    4.4109    0.7027 H         1 <0>         0.1431
     64 H22         4.3695    5.4619    1.2666 H         1 <0>         0.0641
     65 H23         2.8769    6.4298    1.2079 H         1 <0>         0.0572
     66 H24         4.2936    7.0321    2.1014 H         1 <0>         0.1036
     67 H25         1.6242    4.7503    5.5342 H         1 <0>         0.3829
     68 H26        -0.2635    0.2169    5.5364 H         1 <0>         0.1048
     69 H27        -0.8162    0.9070    3.9915 H         1 <0>         0.0554
     70 H28         0.6761   -0.0615    4.0505 H         1 <0>         0.0556
     71 H29        -4.8234    1.3692    1.2638 H         1 <0>         0.0908
     72 H30        -5.5565    1.4330   -0.3701 H         1 <0>         0.1356
     73 H31         0.6812   -1.0303   -3.7178 H         1 <0>         0.3946
     74 H32         0.1867   -4.0466   -5.3121 H         1 <0>         0.3909
@<TRIPOS>BOND
     1    1    2 1
     2    1   53 1
     3    1   54 1
     4    1   55 1
     5    2    3 1
     6    2   10 1
     7    2    4 1
     8    4    5 1
     9    5    6 1
    10    5   56 1
    11    5   57 1
    12    6    7 1
    13    6   17 1
    14    6    8 1
    15    8    9 1
    16    8   10 1
    17    8   11 1
    18   11   12 1
    19   11   13 1
    20   11   52 1
    21   13   14 1
    22   13   15 1
    23   13   51 1
    24   15   16 1
    25   15   17 1
    26   15   18 1
    27   18   19 1
    28   19   20 1
    29   19   31 1
    30   19   21 1
    31   21   26 ar
    32   21   22 ar
    33   22   23 ar
    34   22   58 1
    35   23   50 1
    36   23   24 ar
    37   24   25 ar
    38   24   48 1
    39   25   26 ar
    40   25   59 1
    41   26   27 1
    42   27   28 1
    43   27   29 1
    44   27   37 1
    45   29   30 1
    46   29   35 1
    47   29   31 1
    48   31   32 1
    49   31   33 1
    50   33   34 1
    51   33   60 1
    52   33   61 1
    53   34   35 1
    54   35   36 2
    55   37   42 ar
    56   37   38 ar
    57   38   39 ar
    58   38   62 1
    59   39   40 ar
    60   39   46 1
    61   40   41 ar
    62   40   45 1
    63   41   42 ar
    64   41   43 1
    65   42   63 1
    66   43   44 1
    67   44   64 1
    68   44   65 1
    69   44   66 1
    70   45   67 1
    71   46   47 1
    72   47   68 1
    73   47   69 1
    74   47   70 1
    75   48   49 1
    76   49   50 1
    77   49   71 1
    78   49   72 1
    79   51   73 1
    80   52   74 1
@<TRIPOS>MOLECULE
ZINC00020220
   42    45     0     0     0
SMALL
USER_CHARGES

@<TRIPOS>ATOM
      1 C1          0.0085    1.3942    0.4546 C.ar      1 <0>        -0.0524
      2 C2          1.1990    2.0892    0.2267 C.ar      1 <0>        -0.1603
      3 C3          2.4277    1.4047    0.2038 C.ar      1 <0>         0.2079
      4 C4          2.4426    0.0303    0.4107 C.ar      1 <0>        -0.1586
      5 C5          1.2543   -0.6455    0.6358 C.ar      1 <0>         0.1643
      6 C6          0.0386    0.0436    0.6558 C.ar      1 <0>         0.0441
      7 F1         -1.1120   -0.6291    0.8766 F         1 <0>        -0.1374
      8 N1          1.2713   -2.0225    0.8429 N.pl3     1 <0>        -0.6709
      9 C7          1.1586   -2.9587   -0.2863 C.3       1 <0>         0.1161
     10 C8          2.2921   -3.9844   -0.1818 C.3       1 <0>        -0.0230
     11 N2          2.2535   -4.6221    1.1403 N.4       1 <0>        -0.5025
     12 C9          2.5249   -3.6257    2.1842 C.3       1 <0>        -0.0226
     13 C10         1.4086   -2.5822    2.1964 C.3       1 <0>         0.1154
     14 N3          3.6029    2.0906   -0.0220 N.pl3     1 <0>        -0.4659
     15 C11         3.6428    3.4125   -0.2271 C.2       1 <0>         0.1387
     16 C12         2.5016    4.1915   -0.2270 C.2       1 <0>        -0.2784
     17 C13         1.1985    3.5450    0.0060 C.2       1 <0>         0.4097
     18 O1          0.1633    4.1882    0.0157 O.2       1 <0>        -0.4329
     19 C14         2.5862    5.6377   -0.4546 C.2       1 <0>         0.5339
     20 O2          3.6743    6.1644   -0.6468 O.co2     1 <0>        -0.6969
     21 O3          1.5686    6.3181   -0.4524 O.co2     1 <0>        -0.6577
     22 C15         4.8610    1.3402   -0.0375 C.3       1 <0>         0.0420
     23 C16         6.1624    2.1413    0.0391 C.3       1 <0>        -0.1780
     24 C17         5.7496    1.4764   -1.2756 C.3       1 <0>        -0.1817
     25 H1         -0.9324    1.9241    0.4759 H         1 <0>         0.1548
     26 H2          3.3780   -0.5095    0.3956 H         1 <0>         0.1378
     27 H3          0.1969   -3.4699   -0.2436 H         1 <0>         0.0817
     28 H4          1.2448   -2.4120   -1.2253 H         1 <0>         0.1185
     29 H5          2.1684   -4.7428   -0.9548 H         1 <0>         0.1396
     30 H6          3.2502   -3.4821   -0.3152 H         1 <0>         0.1324
     31 H7          1.3411   -5.0256    1.2913 H         1 <0>         0.4275
     32 H8          2.5727   -4.1198    3.1546 H         1 <0>         0.1399
     33 H9          3.4760   -3.1343    1.9792 H         1 <0>         0.1320
     34 H10         1.6600   -1.7868    2.8979 H         1 <0>         0.1184
     35 H11         0.4726   -3.0548    2.4940 H         1 <0>         0.0813
     36 H12         4.5984    3.8860   -0.3979 H         1 <0>         0.1734
     37 H13         4.8364    0.3708    0.4601 H         1 <0>         0.1363
     38 H14         6.0824    3.2266    0.1010 H         1 <0>         0.1164
     39 H15         6.9941    1.6989    0.5873 H         1 <0>         0.1122
     40 H16         6.3098    0.5966   -1.5923 H         1 <0>         0.1074
     41 H17         5.3980    2.1242   -2.0786 H         1 <0>         0.1079
     42 H18         2.9514   -5.3496    1.1820 H         1 <0>         0.4296
@<TRIPOS>BOND
     1    1    6 ar
     2    1    2 ar
     3    1   25 1
     4    2   17 1
     5    2    3 ar
     6    3    4 ar
     7    3   14 1
     8    4    5 ar
     9    4   26 1
    10    5    6 ar
    11    5    8 1
    12    6    7 1
    13    8   13 1
    14    8    9 1
    15    9   10 1
    16    9   27 1
    17    9   28 1
    18   10   11 1
    19   10   29 1
    20   10   30 1
    21   11   12 1
    22   11   31 1
    23   11   42 1
    24   12   13 1
    25   12   32 1
    26   12   33 1
    27   13   34 1
    28   13   35 1
    29   14   15 1
    30   14   22 1
    31   15   16 2
    32   15   36 1
    33   16   17 1
    34   16   19 1
    35   17   18 2
    36   19   20 2
    37   19   21 1
    38   22   24 1
    39   22   23 1
    40   22   37 1
    41   23   24 1
    42   23   38 1
    43   23   39 1
    44   24   40 1
    45   24   41 1
@<TRIPOS>MOLECULE
ZINC00020220
   43    46     0     0     0
SMALL
USER_CHARGES

@<TRIPOS>ATOM
      1 C1         -0.0973    1.4829   -0.2906 C.2       1 <0>        -0.0028
      2 C2          1.1426    2.1108   -0.0459 C.2       1 <0>        -0.1630
      3 C3          2.3126    1.3408    0.1671 C.2       1 <0>         0.2522
      4 C4          2.2490   -0.0367    0.1368 C.2       1 <0>        -0.2505
      5 C5          1.0195   -0.6747   -0.1066 C.2       1 <0>         0.2840
      6 C6         -0.1812    0.1310   -0.3249 C.2       1 <0>         0.0100
      7 F1         -1.3684   -0.4698   -0.5591 F         1 <0>        -0.1151
      8 N1          0.9490   -2.0051   -0.1375 N.pl3     1 <0>        -0.6001
      9 C7          2.1664   -2.8249   -0.2373 C.3       1 <0>         0.0805
     10 C8          2.1235   -3.8936    0.8600 C.3       1 <0>        -0.0229
     11 N2          0.8712   -4.6528    0.7538 N.4       1 <0>        -0.5067
     12 C9         -0.2725   -3.7703    1.0170 C.3       1 <0>        -0.0206
     13 C10        -0.3480   -2.6957   -0.0668 C.3       1 <0>         0.0504
     14 N3          3.5171    1.9720    0.4055 N.pl3     1 <0>        -0.4101
     15 C11         3.6050    3.3087    0.4404 C.2       1 <0>         0.2443
     16 C12         2.4922    4.1080    0.2387 C.2       1 <0>        -0.2898
     17 C13         1.2318    3.5128   -0.0099 C.2       1 <0>         0.3600
     18 O1          0.1370    4.2773   -0.2090 O.3       1 <0>        -0.4287
     19 C14         2.6192    5.5711    0.2833 C.2       1 <0>         0.5376
     20 O2          3.7247    6.0866    0.3812 O.co2     1 <0>        -0.6319
     21 O3          1.6194    6.2742    0.2224 O.co2     1 <0>        -0.6504
     22 C15         4.7206    1.1659    0.6249 C.3       1 <0>         0.0042
     23 C16         5.9853    1.8949    1.0833 C.3       1 <0>        -0.1643
     24 C17         5.8869    1.3590   -0.3464 C.3       1 <0>        -0.1636
     25 H1         -0.9826    2.0815   -0.4466 H         1 <0>         0.1757
     26 H2          3.1409   -0.6237    0.2991 H         1 <0>         0.1588
     27 H3          2.2054   -3.3052   -1.2150 H         1 <0>         0.1087
     28 H4          3.0448   -2.1944   -0.1004 H         1 <0>         0.1340
     29 H5          2.9699   -4.5702    0.7416 H         1 <0>         0.1528
     30 H6          2.1758   -3.4135    1.8371 H         1 <0>         0.1390
     31 H7          0.7905   -5.0379   -0.1753 H         1 <0>         0.4314
     32 H8         -1.1917   -4.3560    1.0144 H         1 <0>         0.1539
     33 H9         -0.1478   -3.2939    1.9894 H         1 <0>         0.1382
     34 H10        -1.1311   -1.9797    0.1828 H         1 <0>         0.1631
     35 H11        -0.5672   -3.1627   -1.0270 H         1 <0>         0.1054
     36 H12         4.5622    3.7717    0.6297 H         1 <0>         0.2093
     37 H13         4.5497    0.1617    1.0127 H         1 <0>         0.1559
     38 H14         5.9218    2.9743    1.2217 H         1 <0>         0.1206
     39 H15         6.6465    1.3704    1.7730 H         1 <0>         0.1297
     40 H16         6.4835    0.4819   -0.5973 H         1 <0>         0.1248
     41 H17         5.7588    2.0858   -1.1486 H         1 <0>         0.1149
     42 H18         0.8767   -5.4041    1.4273 H         1 <0>         0.4391
     43 H19         0.3215    5.2257   -0.2487 H         1 <0>         0.4420
@<TRIPOS>BOND
     1    1    6 2
     2    1    2 1
     3    1   25 1
     4    2   17 2
     5    2    3 1
     6    3    4 2
     7    3   14 1
     8    4    5 1
     9    4   26 1
    10    5    6 1
    11    5    8 2
    12    6    7 1
    13    8   13 1
    14    8    9 1
    15    9   10 1
    16    9   27 1
    17    9   28 1
    18   10   11 1
    19   10   29 1
    20   10   30 1
    21   11   12 1
    22   11   31 1
    23   11   42 1
    24   12   13 1
    25   12   32 1
    26   12   33 1
    27   13   34 1
    28   13   35 1
    29   14   15 1
    30   14   22 1
    31   15   16 2
    32   15   36 1
    33   16   17 1
    34   16   19 1
    35   17   18 1
    36   18   43 1
    37   19   20 2
    38   19   21 1
    39   22   24 1
    40   22   23 1
    41   22   37 1
    42   23   24 1
    43   23   38 1
    44   23   39 1
    45   24   40 1
    46   24   41 1
@<TRIPOS>MOLECULE
ZINC01485869
   42    45     0     0     0
SMALL
USER_CHARGES
1-cyclopropyl-7-(2,6-dimethyl-4-pyridyl)-6,8-difluoro-4-oxo-quinoline-3-carboxylic acid
@<TRIPOS>ATOM
      1 C1         -0.2928    0.2788    0.2579 C.3       1 <0>        -0.1034
      2 C2         -0.2448    1.7843    0.2100 C.ar      1 <0>         0.1348
      3 C3          0.9763    2.4255    0.1747 C.ar      1 <0>        -0.1521
      4 C4          1.0075    3.8227    0.1299 C.ar      1 <0>         0.0031
      5 C5         -0.2099    4.5104    0.1228 C.ar      1 <0>        -0.1530
      6 C6         -1.3858    3.7898    0.1600 C.ar      1 <0>         0.1347
      7 N1         -1.3711    2.4711    0.1967 N.ar      1 <0>        -0.4825
      8 C7         -2.7048    4.5186    0.1529 C.3       1 <0>        -0.1032
      9 C8          2.2961    4.5548    0.0915 C.ar      1 <0>        -0.0701
     10 C9          3.1655    4.4920    1.1877 C.ar      1 <0>         0.0921
     11 C10         4.3585    5.1581    1.1600 C.ar      1 <0>        -0.0655
     12 C11         4.7081    5.9150    0.0399 C.ar      1 <0>        -0.1408
     13 C12         3.8434    5.9920   -1.0651 C.ar      1 <0>         0.1742
     14 C13         2.6320    5.3047   -1.0307 C.ar      1 <0>         0.0866
     15 F1          1.7873    5.3659   -2.0833 F         1 <0>        -0.1158
     16 N2          4.1916    6.7400   -2.1711 N.pl3     1 <0>        -0.4618
     17 C14         5.3423    7.4188   -2.2544 C.2       1 <0>         0.1649
     18 C15         6.2712    7.4193   -1.2329 C.2       1 <0>        -0.2781
     19 C16         5.9867    6.6484   -0.0122 C.2       1 <0>         0.4183
     20 O1          6.7748    6.6169    0.9168 O.2       1 <0>        -0.4401
     21 C17         7.5234    8.1776   -1.3625 C.2       1 <0>         0.5084
     22 O2          8.3343    8.1714   -0.4569 O.co2     1 <0>        -0.6062
     23 C18         3.2620    6.7942   -3.3020 C.3       1 <0>         0.0187
     24 C19         3.6755    7.6269   -4.5172 C.3       1 <0>        -0.1785
     25 C20         2.5711    8.1296   -3.5852 C.3       1 <0>        -0.1780
     26 F2          2.8259    3.7652    2.2747 F         1 <0>        -0.1263
     27 H1         -0.2916   -0.0519    1.2966 H         1 <0>         0.0796
     28 H2         -1.2001   -0.0717   -0.2340 H         1 <0>         0.0778
     29 H3          0.5788   -0.1290   -0.2541 H         1 <0>         0.0758
     30 H4          1.8943    1.8568    0.1813 H         1 <0>         0.1376
     31 H5         -0.2293    5.5897    0.0891 H         1 <0>         0.1368
     32 H6         -3.0353    4.6617   -0.8759 H         1 <0>         0.0791
     33 H7         -3.4469    3.9322    0.6947 H         1 <0>         0.0779
     34 H8         -2.5863    5.4891    0.6347 H         1 <0>         0.0758
     35 H9          5.0278    5.1036    2.0059 H         1 <0>         0.1618
     36 H10         5.5509    7.9849   -3.1502 H         1 <0>         0.1806
     37 H11         2.6918    5.8836   -3.4859 H         1 <0>         0.1640
     38 H12         4.6393    8.1343   -4.4751 H         1 <0>         0.1154
     39 H13         3.3775    7.2641   -5.5009 H         1 <0>         0.1131
     40 H14         1.5466    8.0977   -3.9558 H         1 <0>         0.1084
     41 H15         2.8083    8.9679   -2.9301 H         1 <0>         0.1034
     42 O3          7.7728    8.8801   -2.4858 O.co2     1 <0>        -0.7675
@<TRIPOS>BOND
     1    1    2 1
     2    1   27 1
     3    1   28 1
     4    1   29 1
     5    2    7 ar
     6    2    3 ar
     7    3    4 ar
     8    3   30 1
     9    4    5 ar
    10    4    9 1
    11    5    6 ar
    12    5   31 1
    13    6    7 ar
    14    6    8 1
    15    8   32 1
    16    8   33 1
    17    8   34 1
    18    9   14 ar
    19    9   10 ar
    20   10   11 ar
    21   10   26 1
    22   11   12 ar
    23   11   35 1
    24   12   19 1
    25   12   13 ar
    26   13   14 ar
    27   13   16 1
    28   14   15 1
    29   16   17 1
    30   16   23 1
    31   17   18 2
    32   17   36 1
    33   18   19 1
    34   18   21 1
    35   19   20 2
    36   21   22 2
    37   21   42 1
    38   23   25 1
    39   23   24 1
    40   23   37 1
    41   24   25 1
    42   24   38 1
    43   24   39 1
    44   25   40 1
    45   25   41 1
