@<TRIPOS>MOLECULE
ZINC00389752
   17    18     0     0     0
SMALL
USER_CHARGES
5-phenyl-1,3,4-oxathiazol-2-one
@<TRIPOS>ATOM
      1 C1          0.0021   -0.0041    0.0020 C.ar      1 <0>        -0.0795
      2 C2         -0.0167    1.3793    0.0096 C.ar      1 <0>        -0.1241
      3 C3          1.1669    2.0883    0.0021 C.ar      1 <0>        -0.0667
      4 C4          2.3846    1.4070   -0.0137 C.ar      1 <0>        -0.0599
      5 C5          2.3966    0.0116   -0.0213 C.ar      1 <0>        -0.0541
      6 C6          1.2061   -0.6855   -0.0132 C.ar      1 <0>        -0.1243
      7 C7          3.6570    2.1606   -0.0228 C.2       1 <0>         0.3477
      8 N1          4.7954    1.5218   -0.0326 N.2       1 <0>        -0.4193
      9 S1          5.9426    2.7912   -0.0422 S.3       1 <0>         0.1138
     10 C8          4.8363    4.1271   -0.0240 C.2       1 <0>         0.4468
     11 O1          5.0712    5.3213   -0.0203 O.2       1 <0>        -0.3731
     12 O2          3.6439    3.4900   -0.0156 O.3       1 <0>        -0.2977
     13 H1         -0.9272   -0.5544    0.0083 H         1 <0>         0.1343
     14 H2         -0.9599    1.9054    0.0170 H         1 <0>         0.1370
     15 H3          1.1509    3.1681    0.0078 H         1 <0>         0.1380
     16 H4          3.3358   -0.5214   -0.0332 H         1 <0>         0.1429
     17 H5          1.2140   -1.7654   -0.0191 H         1 <0>         0.1382
@<TRIPOS>BOND
     1    1    6 ar
     2    1    2 ar
     3    1   13 1
     4    2    3 ar
     5    2   14 1
     6    3    4 ar
     7    3   15 1
     8    4    5 ar
     9    4    7 1
    10    5    6 ar
    11    5   16 1
    12    6   17 1
    13    7   12 1
    14    7    8 2
    15    8    9 1
    16    9   10 1
    17   10   11 2
    18   10   12 1
