@<TRIPOS>MOLECULE
ZINC03928377
   48    49     0     0     0
SMALL
USER_CHARGES
1-(2-aminobutanoyl)-N-butyl-indoline-2-carboxamide
@<TRIPOS>ATOM
      1 C1          7.1684    2.6914   -2.4608 C.3       1 <0>        -0.1560
      2 C2          6.2568    2.9411   -1.2576 C.3       1 <0>        -0.1215
      3 C3          4.8769    2.3388   -1.5296 C.3       1 <0>        -0.1351
      4 C4          3.9653    2.5884   -0.3264 C.3       1 <0>         0.1146
      5 N1          2.6440    2.0117   -0.5868 N.am      1 <0>        -0.7114
      6 C5          1.6708    2.1109    0.3403 C.2       1 <0>         0.5011
      7 O1          1.8889    2.6776    1.3902 O.2       1 <0>        -0.5395
      8 C6          0.3116    1.5177    0.0724 C.3       1 <0>         0.0990
      9 H1          0.3962    0.4459   -0.1070 H         1 <0>         0.1288
     10 C7         -0.3443    2.2101   -1.1334 C.3       1 <0>        -0.0791
     11 C8         -1.6095    2.8262   -0.5740 C.ar      1 <0>        -0.1247
     12 C9         -2.6011    3.5702   -1.1845 C.ar      1 <0>        -0.0753
     13 C10        -3.6765    4.0305   -0.4482 C.ar      1 <0>        -0.1177
     14 C11        -3.7583    3.7446    0.9025 C.ar      1 <0>        -0.0902
     15 C12        -2.7713    3.0031    1.5157 C.ar      1 <0>        -0.1154
     16 C13        -1.6821    2.5343    0.7786 C.ar      1 <0>         0.1216
     17 N2         -0.5867    1.7748    1.2012 N.am      1 <0>        -0.5123
     18 C14        -0.3863    1.3430    2.4621 C.2       1 <0>         0.5286
     19 O2         -1.1360    1.6924    3.3492 O.2       1 <0>        -0.4985
     20 C15         0.7693    0.4259    2.7698 C.3       1 <0>         0.0146
     21 H2          1.6056    0.6620    2.1118 H         1 <0>         0.1579
     22 C16         0.3408   -1.0262    2.5489 C.3       1 <0>        -0.1467
     23 C17         1.5465   -1.9484    2.7400 C.3       1 <0>        -0.1710
     24 H3          7.2664    1.6184   -2.6259 H         1 <0>         0.0560
     25 H4          6.7367    3.1574   -3.3465 H         1 <0>         0.0571
     26 H5          8.1514    3.1205   -2.2670 H         1 <0>         0.0604
     27 H6          6.1588    4.0140   -1.0925 H         1 <0>         0.0670
     28 H7          6.6885    2.4750   -0.3718 H         1 <0>         0.0650
     29 H8          4.9749    1.2658   -1.6947 H         1 <0>         0.0727
     30 H9          4.4452    2.8048   -2.4153 H         1 <0>         0.0745
     31 H10         3.8673    3.6614   -0.1613 H         1 <0>         0.0764
     32 H11         4.3970    2.1224    0.5594 H         1 <0>         0.0723
     33 H12         2.4696    1.5585   -1.4265 H         1 <0>         0.4100
     34 H13         0.3128    2.9833   -1.5315 H         1 <0>         0.1032
     35 H14        -0.5856    1.4801   -1.9060 H         1 <0>         0.1149
     36 H15        -2.5354    3.7929   -2.2392 H         1 <0>         0.1350
     37 H16        -4.4507    4.6122   -0.9263 H         1 <0>         0.1372
     38 H17        -4.5983    4.1035    1.4786 H         1 <0>         0.1372
     39 H18        -2.8413    2.7830    2.5707 H         1 <0>         0.1397
     40 H19        -0.4354   -1.2893    3.2676 H         1 <0>         0.1031
     41 H20        -0.0473   -1.1406    1.5368 H         1 <0>         0.1138
     42 H21         2.3227   -1.6854    2.0214 H         1 <0>         0.0747
     43 H22         1.9346   -1.8341    3.7522 H         1 <0>         0.0580
     44 H23         1.2413   -2.9829    2.5827 H         1 <0>         0.0932
     45 H24         1.5283    1.5420    4.3243 H         1 <0>         0.4462
     46 H25         0.4213    0.3951    4.7986 H         1 <0>         0.4438
     47 N3          1.1984    0.5907    4.1698 N.4       1 <0>        -0.6274
     48 H26         1.9630   -0.0654    4.3679 H         1 <0>         0.4443
@<TRIPOS>BOND
     1    1    2 1
     2    1   24 1
     3    1   25 1
     4    1   26 1
     5    2    3 1
     6    2   27 1
     7    2   28 1
     8    3    4 1
     9    3   29 1
    10    3   30 1
    11    4    5 1
    12    4   31 1
    13    4   32 1
    14    5    6 am
    15    5   33 1
    16    6    7 2
    17    6    8 1
    18    8    9 1
    19    8   17 1
    20    8   10 1
    21   10   11 1
    22   10   34 1
    23   10   35 1
    24   11   16 ar
    25   11   12 ar
    26   12   13 ar
    27   12   36 1
    28   13   14 ar
    29   13   37 1
    30   14   15 ar
    31   14   38 1
    32   15   16 ar
    33   15   39 1
    34   16   17 1
    35   17   18 am
    36   18   19 2
    37   18   20 1
    38   20   21 1
    39   20   22 1
    40   20   47 1
    41   22   23 1
    42   22   40 1
    43   22   41 1
    44   23   42 1
    45   23   43 1
    46   23   44 1
    47   45   47 1
    48   46   47 1
    49   47   48 1
@<TRIPOS>MOLECULE
ZINC02391110
   55    55     0     0     0
SMALL
USER_CHARGES
2-[1-(2-amino-3-methyl-pentanoyl)pyrrolidin-2-yl]carbonylamino-3-methyl-pentanoic acid
@<TRIPOS>ATOM
      1 C1          1.7117   -1.7632   -1.5881 C.3       1 <0>        -0.1586
      2 C2          1.2053   -0.7432   -0.5664 C.3       1 <0>        -0.1280
      3 C3         -0.3243   -0.7629   -0.5410 C.3       1 <0>        -0.1041
      4 H1         -0.6714   -1.7784   -0.3501 H         1 <0>         0.1065
      5 C4         -0.8630   -0.2852   -1.8910 C.3       1 <0>        -0.1576
      6 C5         -0.8281    0.1649    0.5663 C.3       1 <0>         0.0202
      7 H2         -0.4706    1.1780    0.3820 H         1 <0>         0.1520
      8 C6         -2.3350    0.1587    0.5801 C.2       1 <0>         0.4996
      9 O1         -2.9323   -0.7122    1.1765 O.2       1 <0>        -0.4506
     10 N1         -3.0189    1.1208   -0.0703 N.am      1 <0>        -0.5886
     11 C7         -2.4283    2.2928   -0.7331 C.3       1 <0>         0.0859
     12 C8         -3.5908    3.1237   -1.3159 C.3       1 <0>        -0.1293
     13 C9         -4.8044    2.6703   -0.4620 C.3       1 <0>        -0.1219
     14 C10        -4.4825    1.1690   -0.2405 C.3       1 <0>         0.1187
     15 H3         -4.7830    0.5821   -1.1085 H         1 <0>         0.1005
     16 C11        -5.1717    0.6630    1.0004 C.2       1 <0>         0.5204
     17 O2         -4.6370    0.7822    2.0825 O.2       1 <0>        -0.5367
     18 N2         -6.3823    0.0779    0.9078 N.am      1 <0>        -0.6907
     19 C12        -7.0524   -0.4140    2.1141 C.3       1 <0>         0.1033
     20 H4         -6.8268    0.2476    2.9505 H         1 <0>         0.0829
     21 C13        -8.5643   -0.4443    1.8814 C.3       1 <0>        -0.0759
     22 H5         -8.9035    0.5430    1.5677 H         1 <0>         0.0579
     23 C14        -8.8920   -1.4663    0.7910 C.3       1 <0>        -0.1454
     24 C15        -9.2723   -0.8383    3.1792 C.3       1 <0>        -0.1256
     25 C16       -10.7868   -0.7479    2.9816 C.3       1 <0>        -0.1489
     26 C17        -6.5645   -1.8048    2.4280 C.2       1 <0>         0.4655
     27 O3         -5.7415   -2.3312    1.7170 O.co2     1 <0>        -0.6259
     28 H6          1.3658   -2.7587   -1.3098 H         1 <0>         0.0623
     29 H7          1.3286   -1.5086   -2.5763 H         1 <0>         0.0668
     30 H8          2.8015   -1.7492   -1.6062 H         1 <0>         0.0657
     31 H9          1.5513    0.2523   -0.8447 H         1 <0>         0.0803
     32 H10         1.5884   -0.9978    0.4218 H         1 <0>         0.0580
     33 H11        -0.5969   -1.0061   -2.6641 H         1 <0>         0.0837
     34 H12        -1.9478   -0.1936   -1.8375 H         1 <0>         0.0715
     35 H13        -0.4280    0.6845   -2.1332 H         1 <0>         0.0704
     36 H14        -1.8739    2.8886   -0.0079 H         1 <0>         0.0734
     37 H15        -1.7648    1.9698   -1.5353 H         1 <0>         0.0812
     38 H16        -3.4053    4.1901   -1.1868 H         1 <0>         0.0922
     39 H17        -3.7456    2.8853   -2.3682 H         1 <0>         0.0861
     40 H18        -4.8394    3.2096    0.4845 H         1 <0>         0.0874
     41 H19        -5.7369    2.7915   -1.0131 H         1 <0>         0.0984
     42 H20        -6.8100   -0.0174    0.0424 H         1 <0>         0.3910
     43 H21        -8.5528   -2.4536    1.1046 H         1 <0>         0.0665
     44 H22        -9.9691   -1.4879    0.6252 H         1 <0>         0.0543
     45 H23        -8.3876   -1.1856   -0.1336 H         1 <0>         0.0408
     46 H24        -9.0010   -1.8599    3.4454 H         1 <0>         0.1084
     47 H25        -8.9691   -0.1619    3.9783 H         1 <0>         0.0520
     48 H26       -11.0900   -1.4243    2.1825 H         1 <0>         0.0515
     49 H27       -11.2912   -1.0286    3.9062 H         1 <0>         0.0499
     50 H28       -11.0581    0.2737    2.7155 H         1 <0>         0.0421
     51 H29        -0.6424   -1.2412    2.0586 H         1 <0>         0.4473
     52 H30         0.6822   -0.2475    1.9033 H         1 <0>         0.4369
     53 O4         -7.0442   -2.4589    3.4975 O.co2     1 <0>        -0.7575
     54 N3         -0.3355   -0.2865    1.8797 N.4       1 <0>        -0.6319
     55 H31        -0.7113    0.3288    2.6108 H         1 <0>         0.4457
@<TRIPOS>BOND
     1    1    2 1
     2    1   28 1
     3    1   29 1
     4    1   30 1
     5    2    3 1
     6    2   31 1
     7    2   32 1
     8    3    4 1
     9    3    5 1
    10    3    6 1
    11    5   33 1
    12    5   34 1
    13    5   35 1
    14    6    7 1
    15    6    8 1
    16    6   54 1
    17    8    9 2
    18    8   10 am
    19   10   14 1
    20   10   11 1
    21   11   12 1
    22   11   36 1
    23   11   37 1
    24   12   13 1
    25   12   38 1
    26   12   39 1
    27   13   14 1
    28   13   40 1
    29   13   41 1
    30   14   15 1
    31   14   16 1
    32   16   17 2
    33   16   18 am
    34   18   19 1
    35   18   42 1
    36   19   20 1
    37   19   21 1
    38   19   26 1
    39   21   22 1
    40   21   23 1
    41   21   24 1
    42   23   43 1
    43   23   44 1
    44   23   45 1
    45   24   25 1
    46   24   46 1
    47   24   47 1
    48   25   48 1
    49   25   49 1
    50   25   50 1
    51   26   27 2
    52   26   53 1
    53   51   54 1
    54   52   54 1
    55   54   55 1
@<TRIPOS>MOLECULE
ZINC03872319
   55    55     0     0     0
SMALL
USER_CHARGES
2-[1-(2-amino-3-methyl-pentanoyl)pyrrolidin-2-yl]carbonylamino-3-methyl-pentanoic acid
@<TRIPOS>ATOM
      1 C1          9.5432    3.4988    5.9921 C.3       1 <0>        -0.1575
      2 C2          8.0199    3.3806    6.0742 C.3       1 <0>        -0.1321
      3 C3          7.4453    3.2069    4.6669 C.3       1 <0>        -0.1050
      4 H1          7.7841    4.0259    4.0325 H         1 <0>         0.1213
      5 C4          7.9235    1.8767    4.0814 C.3       1 <0>        -0.1732
      6 C5          5.9168    3.2138    4.7357 C.3       1 <0>         0.0197
      7 H2          5.5762    4.1614    5.1529 H         1 <0>         0.1585
      8 C6          5.3508    3.0427    3.3496 C.2       1 <0>         0.5174
      9 O1          4.9551    1.9554    2.9861 O.2       1 <0>        -0.4880
     10 N1          5.2844    4.0979    2.5138 N.am      1 <0>        -0.5812
     11 C7          5.7267    5.4694    2.8248 C.3       1 <0>         0.0901
     12 C8          4.9090    6.3756    1.8710 C.3       1 <0>        -0.1329
     13 C9          4.8572    5.5083    0.5855 C.3       1 <0>        -0.1265
     14 C10         4.7580    4.0721    1.1413 C.3       1 <0>         0.1181
     15 H3          5.3520    3.3934    0.5292 H         1 <0>         0.1097
     16 C11         3.3188    3.6252    1.1527 C.2       1 <0>         0.5140
     17 O2          2.7769    3.3523    2.2028 O.2       1 <0>        -0.5410
     18 N2          2.6340    3.5287   -0.0041 N.am      1 <0>        -0.6915
     19 C12         1.2350    3.0943    0.0069 C.3       1 <0>         0.1025
     20 H4          0.7441    3.4725    0.9036 H         1 <0>         0.0841
     21 C13         0.5222    3.6385   -1.2327 C.3       1 <0>        -0.0750
     22 H5          0.6407    4.7213   -1.2739 H         1 <0>         0.0581
     23 C14         1.1311    3.0106   -2.4880 C.3       1 <0>        -0.1467
     24 C15        -0.9660    3.2909   -1.1591 C.3       1 <0>        -0.1260
     25 C16        -1.7003    3.9407   -2.3336 C.3       1 <0>        -0.1488
     26 C17         1.1765    1.5884   -0.0006 C.2       1 <0>         0.4643
     27 O3          2.1986    0.9442   -0.0139 O.co2     1 <0>        -0.6309
     28 H6          9.8082    4.3624    5.3823 H         1 <0>         0.0640
     29 H7          9.9526    3.6225    6.9947 H         1 <0>         0.0662
     30 H8          9.9538    2.5955    5.5409 H         1 <0>         0.0644
     31 H9          7.6093    4.2838    6.5255 H         1 <0>         0.0797
     32 H10         7.7549    2.5169    6.6841 H         1 <0>         0.0631
     33 H11         7.5141    1.7529    3.0788 H         1 <0>         0.0773
     34 H12         9.0123    1.8718    4.0324 H         1 <0>         0.0886
     35 H13         7.5846    1.0577    4.7159 H         1 <0>         0.0566
     36 H14         5.5041    5.7135    3.8636 H         1 <0>         0.0794
     37 H15         6.7935    5.5775    2.6291 H         1 <0>         0.0837
     38 H16         3.9076    6.5529    2.2633 H         1 <0>         0.0839
     39 H17         5.4267    7.3171    1.6872 H         1 <0>         0.0965
     40 H18         5.7676    5.6329   -0.0008 H         1 <0>         0.0937
     41 H19         3.9775    5.7531   -0.0097 H         1 <0>         0.0961
     42 H20         3.0675    3.7470   -0.8440 H         1 <0>         0.3925
     43 H21         0.6233    3.3984   -3.3711 H         1 <0>         0.0550
     44 H22         2.1913    3.2583   -2.5405 H         1 <0>         0.0414
     45 H23         1.0125    1.9279   -2.4468 H         1 <0>         0.0672
     46 H24        -1.0892    2.2089   -1.2074 H         1 <0>         0.1087
     47 H25        -1.3799    3.6622   -0.2216 H         1 <0>         0.0521
     48 H26        -1.5771    5.0226   -2.2853 H         1 <0>         0.0419
     49 H27        -1.2863    3.5694   -3.2711 H         1 <0>         0.0519
     50 H28        -2.7604    3.6930   -2.2811 H         1 <0>         0.0501
     51 H29         5.7636    1.2199    5.2251 H         1 <0>         0.4418
     52 H30         5.7733    2.2359    6.5417 H         1 <0>         0.4378
     53 O4         -0.0110    0.9628    0.0073 O.co2     1 <0>        -0.7538
     54 N3          5.4351    2.1130    5.5887 N.4       1 <0>        -0.6307
     55 H31         4.4084    2.1150    5.5947 H         1 <0>         0.4493
@<TRIPOS>BOND
     1    1    2 1
     2    1   28 1
     3    1   29 1
     4    1   30 1
     5    2    3 1
     6    2   31 1
     7    2   32 1
     8    3    4 1
     9    3    5 1
    10    3    6 1
    11    5   33 1
    12    5   34 1
    13    5   35 1
    14    6    7 1
    15    6    8 1
    16    6   54 1
    17    8    9 2
    18    8   10 am
    19   10   14 1
    20   10   11 1
    21   11   12 1
    22   11   36 1
    23   11   37 1
    24   12   13 1
    25   12   38 1
    26   12   39 1
    27   13   14 1
    28   13   40 1
    29   13   41 1
    30   14   15 1
    31   14   16 1
    32   16   17 2
    33   16   18 am
    34   18   19 1
    35   18   42 1
    36   19   20 1
    37   19   21 1
    38   19   26 1
    39   21   22 1
    40   21   23 1
    41   21   24 1
    42   23   43 1
    43   23   44 1
    44   23   45 1
    45   24   25 1
    46   24   46 1
    47   24   47 1
    48   25   48 1
    49   25   49 1
    50   25   50 1
    51   26   27 2
    52   26   53 1
    53   51   54 1
    54   52   54 1
    55   54   55 1
@<TRIPOS>MOLECULE
ZINC03872320
   55    55     0     0     0
SMALL
USER_CHARGES
2-[1-(2-amino-3-methyl-pentanoyl)pyrrolidin-2-yl]carbonylamino-3-methyl-pentanoic acid
@<TRIPOS>ATOM
      1 C1         -0.4260    3.9730    3.0322 C.3       1 <0>        -0.1590
      2 C2         -0.3551    3.5890    1.5529 C.3       1 <0>        -0.1291
      3 C3         -0.3223    2.0649    1.4226 C.3       1 <0>        -0.1050
      4 H1          0.5019    1.6672    2.0148 H         1 <0>         0.1086
      5 C4         -1.6426    1.4812    1.9294 C.3       1 <0>        -0.1624
      6 C5         -0.1260    1.6826   -0.0458 C.3       1 <0>         0.0193
      7 H2         -0.9923    2.0043   -0.6239 H         1 <0>         0.1546
      8 C6          0.0268    0.1877   -0.1597 C.2       1 <0>         0.5199
      9 O1          1.1241   -0.3190   -0.0591 O.2       1 <0>        -0.4899
     10 N1         -1.0558   -0.5860   -0.3733 N.am      1 <0>        -0.5798
     11 C7         -2.4281   -0.0990   -0.6032 C.3       1 <0>         0.0831
     12 C8         -3.1270   -1.2433   -1.3835 C.3       1 <0>        -0.1297
     13 C9         -2.5130   -2.4978   -0.7078 C.3       1 <0>        -0.1266
     14 C10        -1.0649   -2.0558   -0.4092 C.3       1 <0>         0.1184
     15 H3         -0.3991   -2.4115   -1.1956 H         1 <0>         0.1093
     16 C11        -0.6228   -2.6038    0.9232 C.2       1 <0>         0.5104
     17 O2         -0.3265   -1.8459    1.8225 O.2       1 <0>        -0.5367
     18 N2         -0.5567   -3.9362    1.1154 N.am      1 <0>        -0.6904
     19 C12        -0.1269   -4.4689    2.4107 C.3       1 <0>         0.1025
     20 H4         -0.4850   -3.8179    3.2082 H         1 <0>         0.0846
     21 C13        -0.7033   -5.8733    2.6011 C.3       1 <0>        -0.0747
     22 H5         -1.7864   -5.8407    2.4823 H         1 <0>         0.0582
     23 C14        -0.1038   -6.8167    1.5564 C.3       1 <0>        -0.1464
     24 C15        -0.3591   -6.3801    4.0031 C.3       1 <0>        -0.1262
     25 C16        -1.0396   -7.7300    4.2388 C.3       1 <0>        -0.1486
     26 C17         1.3781   -4.5337    2.4528 C.2       1 <0>         0.4645
     27 O3          2.0253   -4.1720    1.4988 O.co2     1 <0>        -0.6316
     28 H6          0.4494    3.5827    3.5513 H         1 <0>         0.0637
     29 H7         -0.4494    5.0588    3.1250 H         1 <0>         0.0659
     30 H8         -1.3286    3.5510    3.4742 H         1 <0>         0.0691
     31 H9          0.5475    4.0109    1.1108 H         1 <0>         0.0549
     32 H10        -1.2305    3.9792    1.0338 H         1 <0>         0.0810
     33 H11        -1.8098    1.8001    2.9582 H         1 <0>         0.0827
     34 H12        -2.4608    1.8347    1.3020 H         1 <0>         0.0645
     35 H13        -1.5980    0.3928    1.8892 H         1 <0>         0.0859
     36 H14        -2.9320    0.0782    0.3470 H         1 <0>         0.0871
     37 H15        -2.4121    0.8124   -1.2008 H         1 <0>         0.0802
     38 H16        -2.8758   -1.2080   -2.4436 H         1 <0>         0.0845
     39 H17        -4.2068   -1.2106   -1.2387 H         1 <0>         0.0957
     40 H18        -2.5239   -3.3476   -1.3903 H         1 <0>         0.0997
     41 H19        -3.0406   -2.7393    0.2149 H         1 <0>         0.0888
     42 H20        -0.7936   -4.5423    0.3961 H         1 <0>         0.3922
     43 H21        -0.3491   -6.4557    0.5576 H         1 <0>         0.0412
     44 H22         0.9792   -6.8493    1.6752 H         1 <0>         0.0671
     45 H23        -0.5145   -7.8172    1.6921 H         1 <0>         0.0548
     46 H24         0.7209   -6.4972    4.0921 H         1 <0>         0.1087
     47 H25        -0.7091   -5.6623    4.7450 H         1 <0>         0.0522
     48 H26        -2.1196   -7.6129    4.1498 H         1 <0>         0.0419
     49 H27        -0.6896   -8.4478    3.4969 H         1 <0>         0.0517
     50 H28        -0.7944   -8.0910    5.2376 H         1 <0>         0.0500
     51 H29         1.8984    2.0572   -0.0458 H         1 <0>         0.4465
     52 H30         1.1972    2.1546   -1.5507 H         1 <0>         0.4387
     53 O4          1.9997   -4.9933    3.5502 O.co2     1 <0>        -0.7536
     54 N3          1.0749    2.3635   -0.5612 N.4       1 <0>        -0.6325
     55 H31         0.9643    3.3776   -0.4441 H         1 <0>         0.4402
@<TRIPOS>BOND
     1    1    2 1
     2    1   28 1
     3    1   29 1
     4    1   30 1
     5    2    3 1
     6    2   31 1
     7    2   32 1
     8    3    4 1
     9    3    5 1
    10    3    6 1
    11    5   33 1
    12    5   34 1
    13    5   35 1
    14    6    7 1
    15    6    8 1
    16    6   54 1
    17    8    9 2
    18    8   10 am
    19   10   14 1
    20   10   11 1
    21   11   12 1
    22   11   36 1
    23   11   37 1
    24   12   13 1
    25   12   38 1
    26   12   39 1
    27   13   14 1
    28   13   40 1
    29   13   41 1
    30   14   15 1
    31   14   16 1
    32   16   17 2
    33   16   18 am
    34   18   19 1
    35   18   42 1
    36   19   20 1
    37   19   21 1
    38   19   26 1
    39   21   22 1
    40   21   23 1
    41   21   24 1
    42   23   43 1
    43   23   44 1
    44   23   45 1
    45   24   25 1
    46   24   46 1
    47   24   47 1
    48   25   48 1
    49   25   49 1
    50   25   50 1
    51   26   27 2
    52   26   53 1
    53   51   54 1
    54   52   54 1
    55   54   55 1
@<TRIPOS>MOLECULE
ZINC03872321
   55    55     0     0     0
SMALL
USER_CHARGES
2-[1-(2-amino-3-methyl-pentanoyl)pyrrolidin-2-yl]carbonylamino-3-methyl-pentanoic acid
@<TRIPOS>ATOM
      1 C1          4.4236    4.8684    7.8920 C.3       1 <0>        -0.1586
      2 C2          5.4529    4.1423    7.0236 C.3       1 <0>        -0.1290
      3 C3          4.8443    3.8459    5.6515 C.3       1 <0>        -0.1045
      4 H1          4.4781    4.7722    5.2087 H         1 <0>         0.1212
      5 C4          3.6829    2.8626    5.8103 C.3       1 <0>        -0.1770
      6 C5          5.9110    3.2327    4.7421 C.3       1 <0>         0.0206
      7 H2          6.7764    3.8941    4.7000 H         1 <0>         0.1579
      8 C6          5.3473    3.0543    3.3559 C.2       1 <0>         0.5163
      9 O1          4.9522    1.9651    2.9975 O.2       1 <0>        -0.4879
     10 N1          5.2821    4.1051    2.5145 N.am      1 <0>        -0.5813
     11 C7          5.7239    5.4783    2.8190 C.3       1 <0>         0.0869
     12 C8          4.9077    6.3795    1.8591 C.3       1 <0>        -0.1325
     13 C9          4.8585    5.5039    0.5744 C.3       1 <0>        -0.1263
     14 C10         4.7580    4.0721    1.1413 C.3       1 <0>         0.1177
     15 H3          5.3530    3.3902    0.5338 H         1 <0>         0.1091
     16 C11         3.3188    3.6252    1.1527 C.2       1 <0>         0.5117
     17 O2          2.7769    3.3523    2.2028 O.2       1 <0>        -0.5344
     18 N2          2.6340    3.5287   -0.0041 N.am      1 <0>        -0.6925
     19 C12         1.2350    3.0943    0.0069 C.3       1 <0>         0.1032
     20 H4          0.7441    3.4725    0.9036 H         1 <0>         0.0842
     21 C13         0.5222    3.6385   -1.2327 C.3       1 <0>        -0.0749
     22 H5          0.6407    4.7213   -1.2739 H         1 <0>         0.0579
     23 C14         1.1311    3.0106   -2.4880 C.3       1 <0>        -0.1464
     24 C15        -0.9660    3.2909   -1.1591 C.3       1 <0>        -0.1260
     25 C16        -1.7003    3.9407   -2.3336 C.3       1 <0>        -0.1487
     26 C17         1.1765    1.5884   -0.0006 C.2       1 <0>         0.4648
     27 O3          2.1986    0.9442   -0.0139 O.co2     1 <0>        -0.6317
     28 H6          4.8571    5.0796    8.8695 H         1 <0>         0.0654
     29 H7          4.1381    5.8042    7.4113 H         1 <0>         0.0637
     30 H8          3.5421    4.2389    8.0138 H         1 <0>         0.0654
     31 H9          5.7383    3.2066    7.5042 H         1 <0>         0.0622
     32 H10         6.3343    4.7719    6.9018 H         1 <0>         0.0773
     33 H11         4.0491    1.9363    6.2531 H         1 <0>         0.0507
     34 H12         2.9230    3.2994    6.4582 H         1 <0>         0.0880
     35 H13         3.2494    2.6514    4.8328 H         1 <0>         0.0927
     36 H14         5.4996    5.7278    3.8561 H         1 <0>         0.0810
     37 H15         6.7910    5.5854    2.6245 H         1 <0>         0.0836
     38 H16         3.9057    6.5587    2.2488 H         1 <0>         0.0841
     39 H17         5.4256    7.3200    1.6712 H         1 <0>         0.0961
     40 H18         5.7704    5.6239   -0.0106 H         1 <0>         0.0933
     41 H19         3.9802    5.7439   -0.0249 H         1 <0>         0.0962
     42 H20         3.0675    3.7470   -0.8440 H         1 <0>         0.3917
     43 H21         1.0125    1.9279   -2.4468 H         1 <0>         0.0671
     44 H22         0.6233    3.3984   -3.3711 H         1 <0>         0.0548
     45 H23         2.1913    3.2583   -2.5405 H         1 <0>         0.0413
     46 H24        -1.0892    2.2089   -1.2074 H         1 <0>         0.1086
     47 H25        -1.3799    3.6622   -0.2216 H         1 <0>         0.0521
     48 H26        -2.7604    3.6930   -2.2811 H         1 <0>         0.0500
     49 H27        -1.5771    5.0226   -2.2853 H         1 <0>         0.0418
     50 H28        -1.2863    3.5694   -3.2711 H         1 <0>         0.0518
     51 H29         6.7587    2.0267    6.1792 H         1 <0>         0.4384
     52 H30         5.5331    1.2950    5.3258 H         1 <0>         0.4448
     53 O4         -0.0110    0.9628    0.0073 O.co2     1 <0>        -0.7540
     54 N3          6.3350    1.9196    5.2591 N.4       1 <0>        -0.6305
     55 H31         7.0252    1.5113    4.6179 H         1 <0>         0.4430
@<TRIPOS>BOND
     1    1    2 1
     2    1   28 1
     3    1   29 1
     4    1   30 1
     5    2    3 1
     6    2   31 1
     7    2   32 1
     8    3    4 1
     9    3    5 1
    10    3    6 1
    11    5   33 1
    12    5   34 1
    13    5   35 1
    14    6    7 1
    15    6    8 1
    16    6   54 1
    17    8    9 2
    18    8   10 am
    19   10   14 1
    20   10   11 1
    21   11   12 1
    22   11   36 1
    23   11   37 1
    24   12   13 1
    25   12   38 1
    26   12   39 1
    27   13   14 1
    28   13   40 1
    29   13   41 1
    30   14   15 1
    31   14   16 1
    32   16   17 2
    33   16   18 am
    34   18   19 1
    35   18   42 1
    36   19   20 1
    37   19   21 1
    38   19   26 1
    39   21   22 1
    40   21   23 1
    41   21   24 1
    42   23   43 1
    43   23   44 1
    44   23   45 1
    45   24   25 1
    46   24   46 1
    47   24   47 1
    48   25   48 1
    49   25   49 1
    50   25   50 1
    51   26   27 2
    52   26   53 1
    53   51   54 1
    54   52   54 1
    55   54   55 1
@<TRIPOS>MOLECULE
ZINC04899730
   37    37     0     0     0
SMALL
USER_CHARGES
2-[1-(2-aminopropanoyl)pyrrolidin-2-yl]carbonylaminopropanoic acid
@<TRIPOS>ATOM
      1 C1          0.4379   -0.0243   -3.5580 C.3       1 <0>        -0.1812
      2 C2         -1.0689   -0.2885   -3.5321 C.3       1 <0>         0.0188
      3 H1         -1.2608   -1.2523   -3.0606 H         1 <0>         0.1602
      4 C3         -1.7563    0.7998   -2.7483 C.2       1 <0>         0.5143
      5 O1         -2.4925    1.5811   -3.3128 O.2       1 <0>        -0.5032
      6 N1         -1.5528    0.9050   -1.4202 N.am      1 <0>        -0.5819
      7 C4         -0.7446   -0.0109   -0.6019 C.3       1 <0>         0.0862
      8 C5         -0.7735    0.5177    0.8476 C.3       1 <0>        -0.1299
      9 C6         -1.1354    2.0174    0.6609 C.3       1 <0>        -0.1238
     10 C7         -2.1031    1.9580   -0.5474 C.3       1 <0>         0.1165
     11 H2         -3.1075    1.6915   -0.2183 H         1 <0>         0.1058
     12 C8         -2.1224    3.2806   -1.2694 C.2       1 <0>         0.5111
     13 O2         -1.3047    3.5111   -2.1348 O.2       1 <0>        -0.5471
     14 N2         -3.0485    4.2074   -0.9533 N.am      1 <0>        -0.6873
     15 C9         -3.0673    5.4932   -1.6552 C.3       1 <0>         0.0974
     16 H3         -2.0460    5.7963   -1.8856 H         1 <0>         0.0881
     17 C10        -3.8633    5.3534   -2.9543 C.3       1 <0>        -0.1335
     18 C11        -3.7148    6.5344   -0.7789 C.2       1 <0>         0.4606
     19 O3         -4.1190    6.2333    0.3192 O.co2     1 <0>        -0.6342
     20 H4          0.6401    0.8683   -4.1500 H         1 <0>         0.0920
     21 H5          0.7981    0.1253   -2.5402 H         1 <0>         0.1120
     22 H6          0.9489   -0.8784   -4.0024 H         1 <0>         0.0955
     23 H7         -1.1694   -1.0141   -0.6392 H         1 <0>         0.0807
     24 H8          0.2814   -0.0291   -0.9696 H         1 <0>         0.0804
     25 H9         -1.5401    0.0060    1.4295 H         1 <0>         0.0877
     26 H10         0.2044    0.4101    1.3169 H         1 <0>         0.0954
     27 H11        -0.2485    2.6045    0.4226 H         1 <0>         0.0889
     28 H12        -1.6372    2.4124    1.5442 H         1 <0>         0.1049
     29 H13        -3.7026    4.0231   -0.2611 H         1 <0>         0.4054
     30 H14        -3.8773    6.3101   -3.4766 H         1 <0>         0.0722
     31 H15        -3.3950    4.6004   -3.5881 H         1 <0>         0.0466
     32 H16        -4.8846    5.0503   -2.7239 H         1 <0>         0.0473
     33 H17        -1.4793    0.5990   -5.3438 H         1 <0>         0.4454
     34 H18        -1.1415   -1.0258   -5.4529 H         1 <0>         0.4413
     35 O4         -3.8424    7.7963   -1.2184 O.co2     1 <0>        -0.7479
     36 N3         -1.6114   -0.3093   -4.9020 N.4       1 <0>        -0.6290
     37 H19        -2.6155   -0.5206   -4.8642 H         1 <0>         0.4444
@<TRIPOS>BOND
     1    1    2 1
     2    1   20 1
     3    1   21 1
     4    1   22 1
     5    2    3 1
     6    2    4 1
     7    2   36 1
     8    4    5 2
     9    4    6 am
    10    6   10 1
    11    6    7 1
    12    7    8 1
    13    7   23 1
    14    7   24 1
    15    8    9 1
    16    8   25 1
    17    8   26 1
    18    9   10 1
    19    9   27 1
    20    9   28 1
    21   10   11 1
    22   10   12 1
    23   12   13 2
    24   12   14 am
    25   14   15 1
    26   14   29 1
    27   15   16 1
    28   15   17 1
    29   15   18 1
    30   17   30 1
    31   17   31 1
    32   17   32 1
    33   18   19 2
    34   18   35 1
    35   33   36 1
    36   34   36 1
    37   36   37 1
@<TRIPOS>MOLECULE
ZINC13675946
   32    32     0     0     0
SMALL
USER_CHARGES
(2S)-1-[(2S)-2-aminobutanoyl]pyrrolidine-2-carboxamide
@<TRIPOS>ATOM
      1 C1         -0.7288    1.5792    1.2668 C.3       1 <0>        -0.1707
      2 C2         -0.0127    1.0858    0.0080 C.3       1 <0>        -0.1416
      3 C3         -0.7527    1.5927   -1.2315 C.3       1 <0>         0.0191
      4 H1         -0.8452    2.6775   -1.1811 H         1 <0>         0.1612
      5 C4          0.0192    1.2112   -2.4683 C.2       1 <0>         0.5226
      6 O1         -0.3201    0.2474   -3.1217 O.2       1 <0>        -0.5101
      7 N1          1.0865    1.9411   -2.8485 N.am      1 <0>        -0.5829
      8 C5          1.6023    3.1350   -2.1541 C.3       1 <0>         0.0831
      9 C6          3.0963    3.2148   -2.5641 C.3       1 <0>        -0.1345
     10 C7          3.0354    2.7544   -4.0445 C.3       1 <0>        -0.1279
     11 C8          1.9254    1.6825   -4.0278 C.3       1 <0>         0.1157
     12 H2          1.3242    1.7572   -4.9340 H         1 <0>         0.1147
     13 C9          2.5398    0.3100   -3.9286 C.2       1 <0>         0.5125
     14 O2          2.3046   -0.3917   -2.9678 O.2       1 <0>        -0.5289
     15 N2          3.3507   -0.1377   -4.9077 N.am      1 <0>        -0.8480
     16 H3         -0.7436    2.6691    1.2728 H         1 <0>         0.0748
     17 H4         -1.7514    1.2020    1.2746 H         1 <0>         0.0564
     18 H5         -0.2017    1.2182    2.1499 H         1 <0>         0.0891
     19 H6          0.0021   -0.0041    0.0020 H         1 <0>         0.0998
     20 H7          1.0099    1.4631    0.0003 H         1 <0>         0.1156
     21 H8          1.0679    4.0260   -2.4837 H         1 <0>         0.0903
     22 H9          1.5115    3.0148   -1.0746 H         1 <0>         0.0871
     23 H10         3.7053    2.5349   -1.9682 H         1 <0>         0.0853
     24 H11         3.4671    4.2369   -2.4877 H         1 <0>         0.1025
     25 H12         3.9864    2.3200   -4.3527 H         1 <0>         0.0972
     26 H13         2.7603    3.5843   -4.6954 H         1 <0>         0.0997
     27 H14         3.5388    0.4235   -5.6761 H         1 <0>         0.4051
     28 H15         3.7461   -1.0211   -4.8438 H         1 <0>         0.4103
     29 H16        -2.0321   -0.0172   -1.3310 H         1 <0>         0.4453
     30 H17        -2.6508    1.2820   -0.4972 H         1 <0>         0.4431
     31 N3         -2.0993    0.9989   -1.3056 N.4       1 <0>        -0.6299
     32 H18        -2.5656    1.3253   -2.1601 H         1 <0>         0.4442
@<TRIPOS>BOND
     1    1    2 1
     2    1   16 1
     3    1   17 1
     4    1   18 1
     5    2    3 1
     6    2   19 1
     7    2   20 1
     8    3    4 1
     9    3    5 1
    10    3   31 1
    11    5    6 2
    12    5    7 am
    13    7   11 1
    14    7    8 1
    15    8    9 1
    16    8   21 1
    17    8   22 1
    18    9   10 1
    19    9   23 1
    20    9   24 1
    21   10   11 1
    22   10   25 1
    23   10   26 1
    24   11   12 1
    25   11   13 1
    26   13   14 2
    27   13   15 am
    28   15   27 1
    29   15   28 1
    30   29   31 1
    31   30   31 1
    32   31   32 1
@<TRIPOS>MOLECULE
ZINC13675950
   38    38     0     0     0
SMALL
USER_CHARGES
(2S)-1-[(2S)-2-amino-4-methyl-pentanoyl]pyrrolidine-2-carboxamide
@<TRIPOS>ATOM
      1 C1         -0.0187    1.5258    0.0104 C.3       1 <0>        -0.1645
      2 C2          0.0021   -0.0041    0.0020 C.3       1 <0>        -0.1017
      3 C3         -1.4333   -0.5336    0.0129 C.3       1 <0>        -0.1546
      4 C4          0.7421   -0.5109    1.2415 C.3       1 <0>        -0.1347
      5 C5          2.2100   -0.0858    1.1685 C.3       1 <0>         0.0156
      6 H1          2.2693    0.9948    1.0385 H         1 <0>         0.1618
      7 C6          2.9104   -0.4775    2.4441 C.2       1 <0>         0.5243
      8 O1          3.5923   -1.4798    2.4783 O.2       1 <0>        -0.5115
      9 N1          2.7791    0.2862    3.5468 N.am      1 <0>        -0.5813
     10 C7          1.9846    1.5241    3.6451 C.3       1 <0>         0.0844
     11 C8          2.6238    2.3138    4.8145 C.3       1 <0>        -0.1313
     12 C9          2.9937    1.1710    5.7966 C.3       1 <0>        -0.1279
     13 C10         3.3993    0.0192    4.8528 C.3       1 <0>         0.1161
     14 H2          4.4840   -0.0084    4.7494 H         1 <0>         0.1145
     15 C11         2.9001   -1.2939    5.3984 C.2       1 <0>         0.5121
     16 O2          2.1022   -1.9504    4.7633 O.2       1 <0>        -0.5304
     17 N2          3.3402   -1.7387    6.5921 N.am      1 <0>        -0.8467
     18 H3          1.0039    1.9031    0.0027 H         1 <0>         0.0511
     19 H4         -0.5459    1.8868   -0.8726 H         1 <0>         0.0739
     20 H5         -0.5289    1.8773    0.9072 H         1 <0>         0.0704
     21 H6          0.5123   -0.3556   -0.8948 H         1 <0>         0.0676
     22 H7         -1.9605   -0.1726   -0.8702 H         1 <0>         0.0699
     23 H8         -1.4185   -1.6235    0.0069 H         1 <0>         0.0630
     24 H9         -1.9435   -0.1821    0.9097 H         1 <0>         0.0661
     25 H10         0.2852   -0.0874    2.1360 H         1 <0>         0.1169
     26 H11         0.6803   -1.5984    1.2822 H         1 <0>         0.1011
     27 H12         2.0550    2.0945    2.7189 H         1 <0>         0.0873
     28 H13         0.9439    1.2902    3.8693 H         1 <0>         0.0867
     29 H14         3.5142    2.8487    4.4842 H         1 <0>         0.0887
     30 H15         1.9036    2.9974    5.2640 H         1 <0>         0.1017
     31 H16         3.8293    1.4642    6.4322 H         1 <0>         0.1047
     32 H17         2.1312    0.8857    6.3988 H         1 <0>         0.0896
     33 H18         3.9784   -1.2136    7.1000 H         1 <0>         0.4053
     34 H19         3.0189   -2.5839    6.9433 H         1 <0>         0.4102
     35 H20         2.8150   -1.7556    0.1273 H         1 <0>         0.4454
     36 H21         2.4467   -0.4559   -0.8428 H         1 <0>         0.4424
     37 N3          2.8803   -0.7434    0.0330 N.4       1 <0>        -0.6302
     38 H22         3.8703   -0.4713    0.0218 H         1 <0>         0.4440
@<TRIPOS>BOND
     1    1    2 1
     2    1   18 1
     3    1   19 1
     4    1   20 1
     5    2    3 1
     6    2    4 1
     7    2   21 1
     8    3   22 1
     9    3   23 1
    10    3   24 1
    11    4    5 1
    12    4   25 1
    13    4   26 1
    14    5    6 1
    15    5    7 1
    16    5   37 1
    17    7    8 2
    18    7    9 am
    19    9   13 1
    20    9   10 1
    21   10   11 1
    22   10   27 1
    23   10   28 1
    24   11   12 1
    25   11   29 1
    26   11   30 1
    27   12   13 1
    28   12   31 1
    29   12   32 1
    30   13   14 1
    31   13   15 1
    32   15   16 2
    33   15   17 am
    34   17   33 1
    35   17   34 1
    36   35   37 1
    37   36   37 1
    38   37   38 1
@<TRIPOS>MOLECULE
ZINC13675952
   38    38     0     0     0
SMALL
USER_CHARGES
(2S)-1-[(2S,3S)-2-amino-3-methyl-pentanoyl]pyrrolidine-2-carboxamide
@<TRIPOS>ATOM
      1 C1          1.4295    1.9986    0.8638 C.3       1 <0>        -0.1594
      2 C2          0.0361    1.5032    0.4713 C.3       1 <0>        -0.1317
      3 C3         -0.0009   -0.0247    0.5430 C.3       1 <0>        -0.1042
      4 H1          0.3124   -0.3496    1.5352 H         1 <0>         0.1075
      5 C4          0.9467   -0.6076   -0.5073 C.3       1 <0>        -0.1620
      6 C5         -1.4252   -0.5136    0.2724 C.3       1 <0>         0.0185
      7 H2         -1.7015   -0.2767   -0.7551 H         1 <0>         0.1570
      8 C6         -1.4923   -2.0048    0.4796 C.2       1 <0>         0.5288
      9 O1         -1.6604   -2.4553    1.5930 O.2       1 <0>        -0.5056
     10 N1         -1.3656   -2.8377   -0.5724 N.am      1 <0>        -0.5828
     11 C7         -1.2754   -2.4289   -1.9860 C.3       1 <0>         0.0784
     12 C8         -0.5410   -3.6006   -2.6891 C.3       1 <0>        -0.1339
     13 C9         -1.1304   -4.8267   -1.9431 C.3       1 <0>        -0.1274
     14 C10        -1.3008   -4.3047   -0.5008 C.3       1 <0>         0.1156
     15 H3         -2.2231   -4.6960   -0.0715 H         1 <0>         0.1142
     16 C11        -0.1245   -4.7253    0.3421 C.2       1 <0>         0.5123
     17 O2          0.5961   -3.8860    0.8394 O.2       1 <0>        -0.5285
     18 N2          0.1268   -6.0340    0.5433 N.am      1 <0>        -0.8475
     19 H4          1.4559    3.0870    0.8128 H         1 <0>         0.0694
     20 H5          1.6565    1.6769    1.8802 H         1 <0>         0.0629
     21 H6          2.1688    1.5846    0.1781 H         1 <0>         0.0692
     22 H7         -0.1909    1.8248   -0.5451 H         1 <0>         0.0837
     23 H8         -0.7031    1.9171    1.1571 H         1 <0>         0.0569
     24 H9          0.9368   -1.6956   -0.4417 H         1 <0>         0.0805
     25 H10         0.6206   -0.3006   -1.5011 H         1 <0>         0.0672
     26 H11         1.9576   -0.2420   -0.3275 H         1 <0>         0.0856
     27 H12        -2.2720   -2.2957   -2.4067 H         1 <0>         0.0892
     28 H13        -0.6975   -1.5093   -2.0788 H         1 <0>         0.0895
     29 H14         0.5370   -3.5349   -2.5420 H         1 <0>         0.0855
     30 H15        -0.7871   -3.6337   -3.7505 H         1 <0>         0.1021
     31 H16        -0.4349   -5.6655   -1.9700 H         1 <0>         0.0970
     32 H17        -2.0939   -5.1096   -2.3671 H         1 <0>         0.0993
     33 H18        -0.4496   -6.7053    0.1456 H         1 <0>         0.4051
     34 H19         0.8839   -6.3047    1.0859 H         1 <0>         0.4104
     35 H20        -3.3096   -0.1059    0.9944 H         1 <0>         0.4401
     36 H21        -2.1195   -0.0528    2.1549 H         1 <0>         0.4454
     37 N3         -2.3502    0.1755    1.1893 N.4       1 <0>        -0.6330
     38 H22        -2.2648    1.1899    1.0554 H         1 <0>         0.4445
@<TRIPOS>BOND
     1    1    2 1
     2    1   19 1
     3    1   20 1
     4    1   21 1
     5    2    3 1
     6    2   22 1
     7    2   23 1
     8    3    4 1
     9    3    5 1
    10    3    6 1
    11    5   24 1
    12    5   25 1
    13    5   26 1
    14    6    7 1
    15    6    8 1
    16    6   37 1
    17    8    9 2
    18    8   10 am
    19   10   14 1
    20   10   11 1
    21   11   12 1
    22   11   27 1
    23   11   28 1
    24   12   13 1
    25   12   29 1
    26   12   30 1
    27   13   14 1
    28   13   31 1
    29   13   32 1
    30   14   15 1
    31   14   16 1
    32   16   17 2
    33   16   18 am
    34   18   33 1
    35   18   34 1
    36   35   37 1
    37   36   37 1
    38   37   38 1
@<TRIPOS>MOLECULE
ZINC28637746
   38    38     0     0     0
SMALL
USER_CHARGES
(2S)-1-[(2S,3R)-2-amino-3-methyl-pentanoyl]pyrrolidine-2-carboxamide
@<TRIPOS>ATOM
      1 C1         -0.7527    1.5927   -1.2315 C.3       1 <0>        -0.1612
      2 C2         -0.0127    1.0858    0.0080 C.3       1 <0>        -0.1311
      3 C3         -0.7288    1.5792    1.2668 C.3       1 <0>        -0.1042
      4 H1         -0.8229    2.6745    1.2295 H         1 <0>         0.1179
      5 C4         -2.1214    0.9498    1.3412 C.3       1 <0>        -0.1758
      6 C5          0.0786    1.1786    2.5031 C.3       1 <0>         0.0267
      7 H2          1.0938    1.6003    2.4640 H         1 <0>         0.1549
      8 C6         -0.6268    1.6646    3.7430 C.2       1 <0>         0.5270
      9 O1         -1.3006    0.8974    4.3974 O.2       1 <0>        -0.5135
     10 N1         -0.5088    2.9518    4.1246 N.am      1 <0>        -0.5842
     11 C7          0.2740    3.9870    3.4253 C.3       1 <0>         0.0823
     12 C8          0.6015    5.0394    4.5139 C.3       1 <0>        -0.1325
     13 C9         -0.7033    5.0357    5.3533 C.3       1 <0>        -0.1229
     14 C10        -1.1446    3.5577    5.3037 C.3       1 <0>         0.1213
     15 H3         -0.8429    2.9962    6.2002 H         1 <0>         0.1118
     16 C11        -2.6439    3.4715    5.1785 C.2       1 <0>         0.5109
     17 O2         -3.1421    2.9549    4.2008 O.2       1 <0>        -0.5400
     18 N2         -3.4312    3.9686    6.1530 N.am      1 <0>        -0.8715
     19 N3          0.2044   -0.2842    2.5529 N.4       1 <0>        -0.6746
     20 H4         -0.2378    1.2380   -2.1365 H         1 <0>         0.0689
     21 H5         -0.7676    2.6926   -1.2254 H         1 <0>         0.0647
     22 H6         -1.7847    1.2120   -1.2237 H         1 <0>         0.0656
     23 H7          0.0022   -0.0141    0.0019 H         1 <0>         0.0632
     24 H8          1.0193    1.4665    0.0002 H         1 <0>         0.0797
     25 H9         -2.6362    1.3046    2.2462 H         1 <0>         0.0884
     26 H10        -2.0272   -0.1455    1.3785 H         1 <0>         0.0524
     27 H11        -2.7019    1.2379    0.4524 H         1 <0>         0.0885
     28 H12         1.1860    3.5366    3.0065 H         1 <0>         0.0838
     29 H13        -0.3296    4.4163    2.6121 H         1 <0>         0.0831
     30 H14         1.4852    4.7153    5.0832 H         1 <0>         0.0874
     31 H15         0.8082    6.0086    4.0365 H         1 <0>         0.1000
     32 H16        -0.4826    5.3767    6.3755 H         1 <0>         0.1046
     33 H17        -1.4381    5.7118    4.8918 H         1 <0>         0.0914
     34 H18        -4.5256    3.9057    6.0616 H         1 <0>         0.4314
     35 H19        -2.9794    4.4372    7.0397 H         1 <0>         0.4240
     36 H20         0.7849   -0.5722    3.4418 H         1 <0>         0.4602
     37 H21         0.7193   -0.6389    1.6479 H         1 <0>         0.4602
     38 H22        -0.7968   -0.7367    2.6063 H         1 <0>         0.4612
@<TRIPOS>BOND
     1    1    2 1
     2    1   20 1
     3    1   21 1
     4    1   22 1
     5    2    3 1
     6    2   23 1
     7    2   24 1
     8    3    4 1
     9    3    5 1
    10    3    6 1
    11    5   25 1
    12    5   26 1
    13    5   27 1
    14    6    7 1
    15    6    8 1
    16    6   19 1
    17    8    9 2
    18    8   10 am
    19   10   14 1
    20   10   11 1
    21   11   12 1
    22   11   28 1
    23   11   29 1
    24   12   13 1
    25   12   30 1
    26   12   31 1
    27   13   14 1
    28   13   32 1
    29   13   33 1
    30   14   15 1
    31   14   16 1
    32   16   17 2
    33   16   18 am
    34   18   34 1
    35   18   35 1
    36   19   36 1
    37   19   37 1
    38   19   38 1
@<TRIPOS>MOLECULE
ZINC13675948
   35    35     0     0     0
SMALL
USER_CHARGES
(2S)-1-[(2S)-2-aminopentanoyl]pyrrolidine-2-carboxamide
@<TRIPOS>ATOM
      1 C1         -4.3481    3.1643   -4.9634 C.3       1 <0>        -0.1600
      2 C2         -3.9198    1.7786   -4.4764 C.3       1 <0>        -0.1333
      3 C3         -3.3117    1.8951   -3.0773 C.3       1 <0>        -0.1417
      4 C4         -2.8834    0.5093   -2.5903 C.3       1 <0>         0.0200
      5 H1         -2.2107    0.0594   -3.3205 H         1 <0>         0.1617
      6 C5         -2.1742    0.6389   -1.2670 C.2       1 <0>         0.5171
      7 O1         -2.7676    0.4049   -0.2355 O.2       1 <0>        -0.5045
      8 N1         -0.8804    1.0148   -1.2297 N.am      1 <0>        -0.5850
      9 C6         -0.0712    1.4167   -2.3896 C.3       1 <0>         0.0858
     10 C7          1.3325    1.7837   -1.8638 C.3       1 <0>        -0.1307
     11 C8          1.0696    2.1105   -0.3700 C.3       1 <0>        -0.1246
     12 C9         -0.0421    1.0902   -0.0194 C.3       1 <0>         0.1147
     13 H2          0.3934    0.1157    0.2017 H         1 <0>         0.1086
     14 C10        -0.8525    1.5796    1.1531 C.2       1 <0>         0.5190
     15 O2         -1.7962    2.3195    0.9714 O.2       1 <0>        -0.5230
     16 N2         -0.5286    1.1952    2.4036 N.am      1 <0>        -0.8474
     17 H3         -4.7813    3.0813   -5.9601 H         1 <0>         0.0696
     18 H4         -5.0887    3.5773   -4.2785 H         1 <0>         0.0624
     19 H5         -3.4793    3.8216   -4.9984 H         1 <0>         0.0652
     20 H6         -3.1792    1.3656   -5.1613 H         1 <0>         0.0810
     21 H7         -4.7886    1.1212   -4.4413 H         1 <0>         0.0615
     22 H8         -4.0523    2.3080   -2.3924 H         1 <0>         0.1001
     23 H9         -2.4429    2.5524   -3.1123 H         1 <0>         0.1162
     24 H10        -0.5231    2.2817   -2.8750 H         1 <0>         0.0832
     25 H11         0.0020    0.5891   -3.0952 H         1 <0>         0.0846
     26 H12         1.7240    2.6565   -2.3863 H         1 <0>         0.0994
     27 H13         2.0135    0.9380   -1.9595 H         1 <0>         0.0904
     28 H14         0.7126    3.1335   -0.2507 H         1 <0>         0.0902
     29 H15         1.9624    1.9374    0.2309 H         1 <0>         0.1040
     30 H16         0.2261    0.6035    2.5489 H         1 <0>         0.4037
     31 H17        -1.0502    1.5102    3.1582 H         1 <0>         0.4098
     32 H18        -4.7098    0.0546   -1.7561 H         1 <0>         0.4453
     33 H19        -4.5273   -0.4964   -3.3147 H         1 <0>         0.4430
     34 N3         -4.0592   -0.3624   -2.4199 N.4       1 <0>        -0.6302
     35 H20        -3.7539   -1.2748   -2.0615 H         1 <0>         0.4440
@<TRIPOS>BOND
     1    1    2 1
     2    1   17 1
     3    1   18 1
     4    1   19 1
     5    2    3 1
     6    2   20 1
     7    2   21 1
     8    3    4 1
     9    3   22 1
    10    3   23 1
    11    4    5 1
    12    4    6 1
    13    4   34 1
    14    6    7 2
    15    6    8 am
    16    8   12 1
    17    8    9 1
    18    9   10 1
    19    9   24 1
    20    9   25 1
    21   10   11 1
    22   10   26 1
    23   10   27 1
    24   11   12 1
    25   11   28 1
    26   11   29 1
    27   12   13 1
    28   12   14 1
    29   14   15 2
    30   14   16 am
    31   16   30 1
    32   16   31 1
    33   32   34 1
    34   33   34 1
    35   34   35 1
@<TRIPOS>MOLECULE
ZINC13675944
   35    35     0     0     0
SMALL
USER_CHARGES
(2S)-1-[(2S)-2-amino-3-methyl-butanoyl]pyrrolidine-2-carboxamide
@<TRIPOS>ATOM
      1 C1          0.5701    5.0210   -1.4077 C.3       1 <0>        -0.1621
      2 C2          1.0621    5.4046   -0.0106 C.3       1 <0>        -0.1047
      3 C3          0.2070    6.5503    0.5345 C.3       1 <0>        -0.1705
      4 C4          0.9480    4.1956    0.9200 C.3       1 <0>         0.0183
      5 H1         -0.0759    3.8222    0.9068 H         1 <0>         0.1576
      6 C5          1.8841    3.1113    0.4519 C.2       1 <0>         0.5284
      7 O1          3.0350    3.0969    0.8344 O.2       1 <0>        -0.5086
      8 N1          1.4424    2.1575   -0.3917 N.am      1 <0>        -0.5813
      9 C6          0.0505    1.9917   -0.8481 C.3       1 <0>         0.0803
     10 C7         -0.0614    0.4987   -1.2455 C.3       1 <0>        -0.1314
     11 C8          1.3336    0.2379   -1.8728 C.3       1 <0>        -0.1279
     12 C9          2.2692    1.1107   -1.0100 C.3       1 <0>         0.1161
     13 H2          2.7354    0.5011   -0.2359 H         1 <0>         0.1145
     14 C10         3.3304    1.7369   -1.8775 C.2       1 <0>         0.5118
     15 O2          3.4059    2.9440   -1.9672 O.2       1 <0>        -0.5304
     16 N2          4.1958    0.9555   -2.5536 N.am      1 <0>        -0.8461
     17 H3          0.5636    5.9046   -2.0459 H         1 <0>         0.0831
     18 H4          1.2353    4.2699   -1.8337 H         1 <0>         0.0806
     19 H5         -0.4392    4.6153   -1.3387 H         1 <0>         0.0674
     20 H6          2.1030    5.7230   -0.0668 H         1 <0>         0.1061
     21 H7          0.5575    6.8235    1.5298 H         1 <0>         0.0548
     22 H8          0.2882    7.4116   -0.1285 H         1 <0>         0.0933
     23 H9         -0.8339    6.2318    0.5906 H         1 <0>         0.0767
     24 H10        -0.1445    2.6294   -1.7103 H         1 <0>         0.0902
     25 H11        -0.6437    2.2223   -0.0400 H         1 <0>         0.0864
     26 H12        -0.2185   -0.1285   -0.3679 H         1 <0>         0.0881
     27 H13        -0.8543    0.3477   -1.9781 H         1 <0>         0.1015
     28 H14         1.6030   -0.8150   -1.7898 H         1 <0>         0.1043
     29 H15         1.3551    0.5617   -2.9134 H         1 <0>         0.0901
     30 H16         4.1354   -0.0100   -2.4818 H         1 <0>         0.4054
     31 H17         4.8789    1.3585   -3.1120 H         1 <0>         0.4104
     32 H18         1.1769    3.8302    2.9331 H         1 <0>         0.4402
     33 H19         2.2516    4.9448    2.3263 H         1 <0>         0.4453
     34 N3          1.2891    4.6132    2.2914 N.4       1 <0>        -0.6326
     35 H20         0.6621    5.3740    2.5783 H         1 <0>         0.4447
@<TRIPOS>BOND
     1    1    2 1
     2    1   17 1
     3    1   18 1
     4    1   19 1
     5    2    3 1
     6    2    4 1
     7    2   20 1
     8    3   21 1
     9    3   22 1
    10    3   23 1
    11    4    5 1
    12    4    6 1
    13    4   34 1
    14    6    7 2
    15    6    8 am
    16    8   12 1
    17    8    9 1
    18    9   10 1
    19    9   24 1
    20    9   25 1
    21   10   11 1
    22   10   26 1
    23   10   27 1
    24   11   12 1
    25   11   28 1
    26   11   29 1
    27   12   13 1
    28   12   14 1
    29   14   15 2
    30   14   16 am
    31   16   30 1
    32   16   31 1
    33   32   34 1
    34   33   34 1
    35   34   35 1
@<TRIPOS>MOLECULE
ZINC13550655
   38    38     0     0     0
SMALL
USER_CHARGES
(2S)-1-[(2S)-2-aminohexanoyl]pyrrolidine-2-carboxamide
@<TRIPOS>ATOM
      1 C1         -4.9562    3.0478   -6.3625 C.3       1 <0>        -0.1586
      2 C2         -4.3481    3.1643   -4.9634 C.3       1 <0>        -0.1265
      3 C3         -3.9198    1.7786   -4.4764 C.3       1 <0>        -0.1313
      4 C4         -3.3117    1.8951   -3.0773 C.3       1 <0>        -0.1413
      5 C5         -2.8834    0.5093   -2.5903 C.3       1 <0>         0.0202
      6 H1         -2.2107    0.0594   -3.3205 H         1 <0>         0.1617
      7 C6         -2.1742    0.6389   -1.2670 C.2       1 <0>         0.5172
      8 O1         -2.7676    0.4049   -0.2355 O.2       1 <0>        -0.5045
      9 N1         -0.8804    1.0148   -1.2297 N.am      1 <0>        -0.5849
     10 C7         -0.0712    1.4167   -2.3896 C.3       1 <0>         0.0858
     11 C8          1.3325    1.7837   -1.8638 C.3       1 <0>        -0.1307
     12 C9          1.0696    2.1105   -0.3700 C.3       1 <0>        -0.1246
     13 C10        -0.0421    1.0902   -0.0194 C.3       1 <0>         0.1147
     14 H2          0.3934    0.1157    0.2017 H         1 <0>         0.1086
     15 C11        -0.8525    1.5796    1.1531 C.2       1 <0>         0.5190
     16 O2         -1.7962    2.3195    0.9714 O.2       1 <0>        -0.5229
     17 N2         -0.5286    1.1952    2.4036 N.am      1 <0>        -0.8475
     18 H3         -5.2613    4.0351   -6.7094 H         1 <0>         0.0638
     19 H4         -4.2156    2.6349   -7.0473 H         1 <0>         0.0581
     20 H5         -5.8250    2.3905   -6.3274 H         1 <0>         0.0558
     21 H6         -5.0887    3.5773   -4.2785 H         1 <0>         0.0688
     22 H7         -3.4793    3.8216   -4.9984 H         1 <0>         0.0715
     23 H8         -3.1792    1.3656   -5.1613 H         1 <0>         0.0817
     24 H9         -4.7886    1.1212   -4.4413 H         1 <0>         0.0621
     25 H10        -4.0523    2.3080   -2.3924 H         1 <0>         0.1002
     26 H11        -2.4429    2.5524   -3.1123 H         1 <0>         0.1163
     27 H12        -0.5231    2.2817   -2.8750 H         1 <0>         0.0833
     28 H13         0.0020    0.5891   -3.0952 H         1 <0>         0.0846
     29 H14         1.7240    2.6565   -2.3863 H         1 <0>         0.0994
     30 H15         2.0135    0.9380   -1.9595 H         1 <0>         0.0903
     31 H16         0.7126    3.1335   -0.2507 H         1 <0>         0.0902
     32 H17         1.9624    1.9374    0.2309 H         1 <0>         0.1040
     33 H18         0.2261    0.6035    2.5489 H         1 <0>         0.4037
     34 H19        -1.0502    1.5102    3.1582 H         1 <0>         0.4098
     35 H20        -4.7098    0.0546   -1.7561 H         1 <0>         0.4453
     36 H21        -4.5273   -0.4964   -3.3147 H         1 <0>         0.4430
     37 N3         -4.0592   -0.3624   -2.4199 N.4       1 <0>        -0.6303
     38 H22        -3.7539   -1.2748   -2.0615 H         1 <0>         0.4440
@<TRIPOS>BOND
     1    1    2 1
     2    1   18 1
     3    1   19 1
     4    1   20 1
     5    2    3 1
     6    2   21 1
     7    2   22 1
     8    3    4 1
     9    3   23 1
    10    3   24 1
    11    4    5 1
    12    4   25 1
    13    4   26 1
    14    5    6 1
    15    5    7 1
    16    5   37 1
    17    7    8 2
    18    7    9 am
    19    9   13 1
    20    9   10 1
    21   10   11 1
    22   10   27 1
    23   10   28 1
    24   11   12 1
    25   11   29 1
    26   11   30 1
    27   12   13 1
    28   12   31 1
    29   12   32 1
    30   13   14 1
    31   13   15 1
    32   15   16 2
    33   15   17 am
    34   17   33 1
    35   17   34 1
    36   35   37 1
    37   36   37 1
    38   37   38 1
@<TRIPOS>MOLECULE
ZINC04899732
   29    29     0     0     0
SMALL
USER_CHARGES
1-(2-aminopropanoyl)pyrrolidine-2-carboxamide
@<TRIPOS>ATOM
      1 C1         -3.0966    2.0908   -2.8883 C.3       1 <0>        -0.1766
      2 C2         -3.2684    0.8149   -2.0616 C.3       1 <0>         0.0191
      3 H1         -2.8760   -0.0352   -2.6196 H         1 <0>         0.1592
      4 C3         -2.5172    0.9531   -0.7625 C.2       1 <0>         0.5141
      5 O1         -3.0852    1.3684    0.2253 O.2       1 <0>        -0.5023
      6 N1         -1.2141    0.6151   -0.6985 N.am      1 <0>        -0.5858
      7 C4         -0.3806    0.1962   -1.8349 C.3       1 <0>         0.0864
      8 C5          1.0399   -0.0629   -1.2903 C.3       1 <0>        -0.1308
      9 C6          1.0671    0.7687    0.0193 C.3       1 <0>        -0.1247
     10 C7         -0.3885    0.6034    0.5229 C.3       1 <0>         0.1145
     11 H2         -0.5026   -0.3445    1.0488 H         1 <0>         0.1086
     12 C8         -0.7651    1.7508    1.4243 C.2       1 <0>         0.5184
     13 O2         -1.2070    2.7755    0.9492 O.2       1 <0>        -0.5224
     14 N2         -0.6109    1.6384    2.7585 N.am      1 <0>        -0.8476
     15 H3         -3.4357    2.9486   -2.3075 H         1 <0>         0.0928
     16 H4         -2.0450    2.2186   -3.1449 H         1 <0>         0.1103
     17 H5         -3.6867    2.0143   -3.8016 H         1 <0>         0.0986
     18 H6         -0.3517    0.9868   -2.5847 H         1 <0>         0.0832
     19 H7         -0.7813   -0.7171   -2.2747 H         1 <0>         0.0843
     20 H8          1.7932    0.2969   -1.9913 H         1 <0>         0.0994
     21 H9          1.1873   -1.1218   -1.0779 H         1 <0>         0.0903
     22 H10         1.2927    1.8150   -0.1869 H         1 <0>         0.0902
     23 H11         1.7772    0.3514    0.7331 H         1 <0>         0.1040
     24 H12        -0.2575    0.8189    3.1385 H         1 <0>         0.4036
     25 H13        -0.8533    2.3770    3.3387 H         1 <0>         0.4099
     26 H14        -5.0666    1.3445   -1.2105 H         1 <0>         0.4457
     27 H15        -5.2205    0.5052   -2.6379 H         1 <0>         0.4455
     28 N3         -4.6933    0.5791   -1.7694 N.4       1 <0>        -0.6311
     29 H16        -4.7894   -0.2976   -1.2436 H         1 <0>         0.4431
@<TRIPOS>BOND
     1    1    2 1
     2    1   15 1
     3    1   16 1
     4    1   17 1
     5    2    3 1
     6    2    4 1
     7    2   28 1
     8    4    5 2
     9    4    6 am
    10    6   10 1
    11    6    7 1
    12    7    8 1
    13    7   18 1
    14    7   19 1
    15    8    9 1
    16    8   20 1
    17    8   21 1
    18    9   10 1
    19    9   22 1
    20    9   23 1
    21   10   11 1
    22   10   12 1
    23   12   13 2
    24   12   14 am
    25   14   24 1
    26   14   25 1
    27   26   28 1
    28   27   28 1
    29   28   29 1
