@<TRIPOS>MOLECULE
ZINC14974931
   64    67     0     0     0
SMALL
USER_CHARGES

@<TRIPOS>ATOM
      1 C1          1.0424    1.3221    0.6407 C.3       1 <0>        -0.1675
      2 C2          0.9313   -0.1986    0.5148 C.3       1 <0>         0.1153
      3 N1          1.3424   -0.6087   -0.8302 N.am      1 <0>        -0.7262
      4 C3          1.3257   -1.9123   -1.1718 C.2       1 <0>         0.5816
      5 O1          0.9697   -2.7475   -0.3643 O.2       1 <0>        -0.4785
      6 C4          1.7413   -2.3268   -2.5314 C.2       1 <0>         0.1132
      7 C5          1.7675   -3.6287   -3.0175 C.2       1 <0>        -0.1367
      8 C6          2.2225   -3.5778   -4.3502 C.2       1 <0>         0.1682
      9 C7          2.4021   -4.7219   -5.2428 C.2       1 <0>        -0.1606
     10 C8          1.9701   -5.9974   -4.8522 C.2       1 <0>        -0.0820
     11 C9          2.1380   -7.0624   -5.6858 C.2       1 <0>        -0.1356
     12 C10         2.7398   -6.9015   -6.9351 C.2       1 <0>         0.3243
     13 C11         3.1763   -5.6576   -7.3483 C.2       1 <0>        -0.4419
     14 C12         3.0090   -4.5490   -6.5124 C.2       1 <0>         0.3427
     15 O2          3.4211   -3.3435   -6.9027 O.2       1 <0>        -0.6550
     16 O3          2.8978   -7.9755   -7.7499 O.3       1 <0>        -0.6769
     17 C13         1.6694   -8.4281   -5.2542 C.3       1 <0>        -0.0279
     18 C14         0.6221   -8.9441   -6.2432 C.3       1 <0>        -0.1454
     19 C15         2.8593   -9.3895   -5.2237 C.3       1 <0>        -0.1442
     20 O4          2.4606   -2.2963   -4.6540 O.3       1 <0>         0.0121
     21 N2          2.1561   -1.5068   -3.5196 N.pl3     1 <0>        -0.5555
     22 C16         1.3860   -4.8493   -2.2696 C.ar      1 <0>         0.0008
     23 C17         2.3629   -5.7642   -1.8776 C.ar      1 <0>        -0.0894
     24 C18         2.0014   -6.8993   -1.1813 C.ar      1 <0>        -0.1123
     25 C19         0.6730   -7.1307   -0.8719 C.ar      1 <0>        -0.0754
     26 C20        -0.3006   -6.2268   -1.2580 C.ar      1 <0>        -0.0953
     27 C21         0.0492   -5.0853   -1.9497 C.ar      1 <0>        -0.0825
     28 C22         0.2848   -8.3726   -0.1117 C.3       1 <0>         0.0953
     29 N3          0.3183   -8.0945    1.3304 N.3       1 <0>        -0.5296
     30 C23         1.6914   -7.8295    1.7841 C.3       1 <0>         0.0136
     31 C24         1.6729   -7.4867    3.2761 C.3       1 <0>         0.0644
     32 O5          1.0612   -8.5586    3.9988 O.3       1 <0>        -0.3882
     33 C25        -0.2772   -8.8433    3.5830 C.3       1 <0>         0.0645
     34 C26        -0.2785   -9.1998    2.0941 C.3       1 <0>         0.0167
     35 H1          2.0747    1.6265    0.4677 H         1 <0>         0.0634
     36 H2          0.3953    1.7961   -0.0974 H         1 <0>         0.0634
     37 H3          0.7365    1.6272    1.6414 H         1 <0>         0.0782
     38 H4          1.5784   -0.6725    1.2529 H         1 <0>         0.0743
     39 H5         -0.1010   -0.5030    0.6878 H         1 <0>         0.0745
     40 H6          1.6266    0.0581   -1.4748 H         1 <0>         0.3980
     41 H7          1.5035   -6.1362   -3.8881 H         1 <0>         0.1219
     42 H8          3.6417   -5.5409   -8.3159 H         1 <0>         0.0984
     43 H9          1.2288   -8.3635   -4.2593 H         1 <0>         0.0524
     44 H10         1.0627   -9.0087   -7.2381 H         1 <0>         0.0849
     45 H11         0.2832   -9.9319   -5.9310 H         1 <0>         0.0379
     46 H12        -0.2255   -8.2592   -6.2649 H         1 <0>         0.0394
     47 H13         3.6053   -9.0219   -4.5192 H         1 <0>         0.0391
     48 H14         2.5203  -10.3773   -4.9116 H         1 <0>         0.0375
     49 H15         3.2998   -9.4541   -6.2186 H         1 <0>         0.0848
     50 H16         2.2342   -0.5417   -3.4617 H         1 <0>         0.4572
     51 H17         3.4002   -5.5849   -2.1189 H         1 <0>         0.1232
     52 H18         2.7569   -7.6087   -0.8776 H         1 <0>         0.1196
     53 H19        -1.3360   -6.4128   -1.0136 H         1 <0>         0.1214
     54 H20        -0.7112   -4.3781   -2.2467 H         1 <0>         0.1171
     55 H21        -0.7218   -8.6754   -0.4000 H         1 <0>         0.0849
     56 H22         0.9858   -9.1745   -0.3434 H         1 <0>         0.0461
     57 H23         2.3057   -8.7151    1.6217 H         1 <0>         0.0420
     58 H24         2.1046   -6.9912    1.2231 H         1 <0>         0.0945
     59 H25         2.6942   -7.3454    3.6297 H         1 <0>         0.0964
     60 H26         1.1030   -6.5707    3.4321 H         1 <0>         0.0597
     61 H27        -0.6662   -9.6832    4.1587 H         1 <0>         0.0960
     62 H28        -0.9038   -7.9668    3.7480 H         1 <0>         0.0590
     63 H29        -1.3031   -9.3619    1.7596 H         1 <0>         0.0861
     64 H30         0.3044  -10.1074    1.9367 H         1 <0>         0.0427
@<TRIPOS>BOND
     1    1    2 1
     2    1   35 1
     3    1   36 1
     4    1   37 1
     5    2    3 1
     6    2   38 1
     7    2   39 1
     8    3    4 am
     9    3   40 1
    10    4    5 2
    11    4    6 1
    12    6   21 1
    13    6    7 2
    14    7    8 1
    15    7   22 1
    16    8    9 2
    17    8   20 1
    18    9   14 1
    19    9   10 1
    20   10   11 2
    21   10   41 1
    22   11   12 1
    23   11   17 1
    24   12   13 2
    25   12   16 1
    26   13   14 1
    27   13   42 1
    28   14   15 2
    29   17   18 1
    30   17   19 1
    31   17   43 1
    32   18   44 1
    33   18   45 1
    34   18   46 1
    35   19   47 1
    36   19   48 1
    37   19   49 1
    38   20   21 1
    39   21   50 1
    40   22   27 ar
    41   22   23 ar
    42   23   24 ar
    43   23   51 1
    44   24   25 ar
    45   24   52 1
    46   25   26 ar
    47   25   28 1
    48   26   27 ar
    49   26   53 1
    50   27   54 1
    51   28   29 1
    52   28   55 1
    53   28   56 1
    54   29   34 1
    55   29   30 1
    56   30   31 1
    57   30   57 1
    58   30   58 1
    59   31   32 1
    60   31   59 1
    61   31   60 1
    62   32   33 1
    63   33   34 1
    64   33   61 1
    65   33   62 1
    66   34   63 1
    67   34   64 1
@<TRIPOS>MOLECULE
ZINC14974931
   65    68     0     0     0
SMALL
USER_CHARGES

@<TRIPOS>ATOM
      1 C1         -0.0540    1.4997   -0.6888 C.3       1 <0>        -0.1676
      2 C2         -0.0248   -0.0232   -0.5441 C.3       1 <0>         0.1140
      3 N1         -1.3928   -0.5259   -0.3951 N.am      1 <0>        -0.7141
      4 C3         -1.6130   -1.8478   -0.2514 C.2       1 <0>         0.5894
      5 O1         -0.6770   -2.6225   -0.2455 O.2       1 <0>        -0.4924
      6 C4         -2.9970   -2.3563   -0.1006 C.2       1 <0>         0.0795
      7 C5         -3.3950   -3.7559    0.0696 C.2       1 <0>        -0.1609
      8 C6         -4.7761   -3.7654    0.1705 C.2       1 <0>         0.1363
      9 O2         -5.2044   -2.4950    0.0732 O.3       1 <0>        -0.0385
     10 N2         -4.0932   -1.6370   -0.0890 N.2       1 <0>        -0.2804
     11 C7         -5.6250   -4.9562    0.3522 C.ar      1 <0>        -0.0782
     12 C8         -5.3010   -5.9072    1.3239 C.ar      1 <0>        -0.0369
     13 C9         -6.0972   -7.0184    1.4908 C.ar      1 <0>        -0.1083
     14 C10        -7.2236   -7.1983    0.6957 C.ar      1 <0>         0.1512
     15 C11        -7.5536   -6.2605   -0.2717 C.ar      1 <0>        -0.1754
     16 C12        -6.7646   -5.1368   -0.4452 C.ar      1 <0>         0.1580
     17 O3         -7.0896   -4.2150   -1.3875 O.3       1 <0>        -0.4853
     18 O4         -8.0037   -8.2968    0.8667 O.3       1 <0>        -0.4905
     19 C13        -5.7462   -8.0431    2.5386 C.3       1 <0>        -0.0545
     20 C14        -4.3604   -8.6205    2.2432 C.3       1 <0>        -0.1431
     21 C15        -5.7394   -7.3807    3.9177 C.3       1 <0>        -0.1475
     22 C16        -2.4959   -4.9312    0.1228 C.ar      1 <0>        -0.0106
     23 C17        -2.5176   -5.8765   -0.9028 C.ar      1 <0>        -0.0945
     24 C18        -1.6770   -6.9693   -0.8477 C.ar      1 <0>        -0.1128
     25 C19        -0.8143   -7.1288    0.2220 C.ar      1 <0>        -0.0694
     26 C20        -0.7881   -6.1947    1.2422 C.ar      1 <0>        -0.0938
     27 C21        -1.6197   -5.0947    1.1958 C.ar      1 <0>        -0.0806
     28 C22         0.1004   -8.3252    0.2764 C.3       1 <0>         0.0934
     29 N3          1.3713   -8.0003   -0.3848 N.3       1 <0>        -0.5301
     30 C23         1.1753   -7.7835   -1.8256 C.3       1 <0>         0.0148
     31 C24         2.5104   -7.3900   -2.4633 C.3       1 <0>         0.0634
     32 O5          3.4790   -8.4077   -2.1958 O.3       1 <0>        -0.3859
     33 C25         3.6953   -8.6446   -0.8021 C.3       1 <0>         0.0633
     34 C26         2.3722   -9.0507   -0.1476 C.3       1 <0>         0.0173
     35 H1          0.9638    1.8737   -0.7997 H         1 <0>         0.0794
     36 H2         -0.6383    1.7699   -1.5684 H         1 <0>         0.0641
     37 H3         -0.5084    1.9403    0.1986 H         1 <0>         0.0642
     38 H4          0.4296   -0.4638   -1.4315 H         1 <0>         0.0742
     39 H5          0.5595   -0.2934    0.3355 H         1 <0>         0.0744
     40 H6         -2.1400    0.0926   -0.3998 H         1 <0>         0.4082
     41 H7         -4.4267   -5.7710    1.9430 H         1 <0>         0.1392
     42 H8         -8.4292   -6.4053   -0.8872 H         1 <0>         0.1448
     43 H9         -6.7618   -4.4251   -2.2727 H         1 <0>         0.3968
     44 H10        -8.7174   -8.1765    1.5080 H         1 <0>         0.3973
     45 H11        -6.4845   -8.8450    2.5243 H         1 <0>         0.0888
     46 H12        -3.6222   -7.8186    2.2575 H         1 <0>         0.0579
     47 H13        -4.1066   -9.3616    3.0010 H         1 <0>         0.0606
     48 H14        -4.3653   -9.0924    1.2607 H         1 <0>         0.0569
     49 H15        -6.7267   -6.9694    4.1281 H         1 <0>         0.0558
     50 H16        -5.4855   -8.1219    4.6755 H         1 <0>         0.0628
     51 H17        -5.0012   -6.5789    3.9320 H         1 <0>         0.0568
     52 H18        -3.1911   -5.7535   -1.7381 H         1 <0>         0.1165
     53 H19        -1.6928   -7.7019   -1.6411 H         1 <0>         0.1191
     54 H20        -0.1124   -6.3247    2.0747 H         1 <0>         0.1238
     55 H21        -1.5952   -4.3639    1.9906 H         1 <0>         0.1177
     56 H22         0.2895   -8.5910    1.3164 H         1 <0>         0.0856
     57 H23        -0.3701   -9.1657   -0.2337 H         1 <0>         0.0449
     58 H24         0.8088   -8.7014   -2.2853 H         1 <0>         0.0419
     59 H25         0.4497   -6.9845   -1.9780 H         1 <0>         0.0915
     60 H26         2.3819   -7.2839   -3.5405 H         1 <0>         0.0976
     61 H27         2.8504   -6.4441   -2.0417 H         1 <0>         0.0607
     62 H28         4.4238   -9.4457   -0.6779 H         1 <0>         0.0986
     63 H29         4.0698   -7.7351   -0.3322 H         1 <0>         0.0604
     64 H30         2.5203   -9.1768    0.9249 H         1 <0>         0.0872
     65 H31         2.0249   -9.9888   -0.5804 H         1 <0>         0.0435
@<TRIPOS>BOND
     1    1    2 1
     2    1   35 1
     3    1   36 1
     4    1   37 1
     5    2    3 1
     6    2   38 1
     7    2   39 1
     8    3    4 am
     9    3   40 1
    10    4    5 2
    11    4    6 1
    12    6   10 2
    13    6    7 1
    14    7    8 2
    15    7   22 1
    16    8    9 1
    17    8   11 1
    18    9   10 1
    19   11   16 ar
    20   11   12 ar
    21   12   13 ar
    22   12   41 1
    23   13   14 ar
    24   13   19 1
    25   14   15 ar
    26   14   18 1
    27   15   16 ar
    28   15   42 1
    29   16   17 1
    30   17   43 1
    31   18   44 1
    32   19   20 1
    33   19   21 1
    34   19   45 1
    35   20   46 1
    36   20   47 1
    37   20   48 1
    38   21   49 1
    39   21   50 1
    40   21   51 1
    41   22   27 ar
    42   22   23 ar
    43   23   24 ar
    44   23   52 1
    45   24   25 ar
    46   24   53 1
    47   25   26 ar
    48   25   28 1
    49   26   27 ar
    50   26   54 1
    51   27   55 1
    52   28   29 1
    53   28   56 1
    54   28   57 1
    55   29   34 1
    56   29   30 1
    57   30   31 1
    58   30   58 1
    59   30   59 1
    60   31   32 1
    61   31   60 1
    62   31   61 1
    63   32   33 1
    64   33   34 1
    65   33   62 1
    66   33   63 1
    67   34   64 1
    68   34   65 1
