@<TRIPOS>MOLECULE
ZINC34189055
   44    43     0     0     0
SMALL
USER_CHARGES

@<TRIPOS>ATOM
      1 C1         -0.3978    1.4750    0.2355 C.3       1 <0>        -0.1295
      2 C2         -0.3207   -0.0295    0.1958 C.2       1 <0>        -0.1422
      3 C3          0.3479   -0.6878    1.1425 C.2       1 <0>        -0.1427
      4 C4          0.4228   -2.1501    1.1039 C.2       1 <0>        -0.1158
      5 C5          1.0995   -2.8163    2.0620 C.2       1 <0>        -0.1282
      6 C6          1.1744   -4.2786    2.0234 C.2       1 <0>        -0.1325
      7 C7          1.9204   -4.9315    2.9145 C.2       1 <0>        -0.1429
      8 C8          2.5750   -4.1795    4.0446 C.3       1 <0>        -0.0978
      9 C9          2.1878   -4.8235    5.3774 C.3       1 <0>        -0.0955
     10 C10         2.8423   -4.0716    6.5075 C.2       1 <0>        -0.0559
     11 C11         2.1016   -3.5827    7.4980 C.2       1 <0>        -0.2231
     12 C12         2.7405   -2.8487    8.6011 C.2       1 <0>         0.5449
     13 O1          3.9460   -2.6889    8.6074 O.2       1 <0>        -0.5481
     14 N1          1.9898   -2.3533    9.6049 N.am      1 <0>        -0.7207
     15 C13         2.6261   -1.6224   10.7035 C.3       1 <0>         0.0935
     16 C14         1.5581   -1.1712   11.7019 C.3       1 <0>         0.1154
     17 C15         0.8303   -2.3965   12.2586 C.3       1 <0>        -0.1415
     18 C16         2.2226   -0.4078   12.8493 C.3       1 <0>        -0.1778
     19 O2          0.6198   -0.3185   11.0429 O.3       1 <0>        -0.5572
     20 H1          0.6081    1.8918    0.1856 H         1 <0>         0.0677
     21 H2         -0.9813    1.8315   -0.6134 H         1 <0>         0.0631
     22 H3         -0.8760    1.7900    1.1629 H         1 <0>         0.0676
     23 H4         -0.8072   -0.5743   -0.5998 H         1 <0>         0.1108
     24 H5          0.8344   -0.1429    1.9380 H         1 <0>         0.1125
     25 H6         -0.0637   -2.6949    0.3083 H         1 <0>         0.1135
     26 H7          1.5860   -2.2715    2.8576 H         1 <0>         0.1193
     27 H8          0.6252   -4.8278    1.2730 H         1 <0>         0.1150
     28 H9          2.0558   -5.9993    2.8265 H         1 <0>         0.1161
     29 H10         3.6578   -4.2145    3.9252 H         1 <0>         0.0777
     30 H11         2.2413   -3.1419    4.0319 H         1 <0>         0.0773
     31 H12         1.1049   -4.7886    5.4968 H         1 <0>         0.0752
     32 H13         2.5214   -5.8611    5.3900 H         1 <0>         0.0859
     33 H14         3.9129   -3.9297    6.5131 H         1 <0>         0.1276
     34 H15         1.0309   -3.7246    7.4924 H         1 <0>         0.1266
     35 H16         1.0282   -2.4808    9.5999 H         1 <0>         0.4055
     36 H17         3.3418   -2.2728   11.2063 H         1 <0>         0.0773
     37 H18         3.1446   -0.7495   10.3069 H         1 <0>         0.0704
     38 H19         1.5460   -3.0469   12.7614 H         1 <0>         0.0737
     39 H20         0.0695   -2.0750   12.9699 H         1 <0>         0.0685
     40 H21         0.3569   -2.9403   11.4412 H         1 <0>         0.0624
     41 H22         2.7412    0.4651   12.4527 H         1 <0>         0.0626
     42 H23         1.4618   -0.0864   13.5606 H         1 <0>         0.0715
     43 H24         2.9384   -1.0582   13.3521 H         1 <0>         0.0705
     44 H25         1.0123    0.4802   10.6646 H         1 <0>         0.3795
@<TRIPOS>BOND
     1    1    2 1
     2    1   20 1
     3    1   21 1
     4    1   22 1
     5    2    3 2
     6    2   23 1
     7    3    4 1
     8    3   24 1
     9    4    5 2
    10    4   25 1
    11    5    6 1
    12    5   26 1
    13    6    7 2
    14    6   27 1
    15    7    8 1
    16    7   28 1
    17    8    9 1
    18    8   29 1
    19    8   30 1
    20    9   10 1
    21    9   31 1
    22    9   32 1
    23   10   11 2
    24   10   33 1
    25   11   12 1
    26   11   34 1
    27   12   13 2
    28   12   14 am
    29   14   15 1
    30   14   35 1
    31   15   16 1
    32   15   36 1
    33   15   37 1
    34   16   17 1
    35   16   18 1
    36   16   19 1
    37   17   38 1
    38   17   39 1
    39   17   40 1
    40   18   41 1
    41   18   42 1
    42   18   43 1
    43   19   44 1
@<TRIPOS>MOLECULE
ZINC00500952
   24    26     0     0     0
SMALL
USER_CHARGES
BLAH
@<TRIPOS>ATOM
      1 C1          2.4012    0.0183   -0.0605 C.ar      1 <0>        -0.1299
      2 C2          1.2079   -0.6817   -0.0327 C.ar      1 <0>        -0.0807
      3 C3          0.0021   -0.0041    0.0020 C.ar      1 <0>        -0.1314
      4 C4         -0.0167    1.3796    0.0096 C.ar      1 <0>         0.1218
      5 C5          1.1880    2.0944    0.0020 C.ar      1 <0>        -0.1646
      6 C6          2.3994    1.3978   -0.0443 C.ar      1 <0>        -0.0652
      7 C7          1.1889    3.5586    0.0708 C.2       1 <0>         0.2308
      8 N1          0.3594    4.3306   -0.5203 N.2       1 <0>        -0.4879
      9 C8         -0.6623    3.9598   -1.3429 C.ar      1 <0>         0.0666
     10 C9         -0.9169    4.7192   -2.4893 C.ar      1 <0>        -0.0848
     11 C10        -1.9630    4.3842   -3.3247 C.ar      1 <0>        -0.1126
     12 C11        -2.7662    3.2978   -3.0315 C.ar      1 <0>        -0.1039
     13 C12        -2.5168    2.5326   -1.9059 C.ar      1 <0>        -0.1157
     14 C13        -1.4616    2.8493   -1.0661 C.ar      1 <0>         0.0655
     15 O1         -1.2001    2.0424   -0.0057 O.3       1 <0>        -0.2675
     16 H1          3.3382   -0.5176   -0.0953 H         1 <0>         0.1350
     17 H2          1.2179   -1.7617   -0.0378 H         1 <0>         0.1366
     18 H3         -0.9260   -0.5559    0.0236 H         1 <0>         0.1377
     19 H4          3.3335    1.9394   -0.0669 H         1 <0>         0.1384
     20 H5          1.9553    4.0246    0.6724 H         1 <0>         0.1667
     21 H6         -0.2931    5.5697   -2.7216 H         1 <0>         0.1371
     22 H7         -2.1550    4.9726   -4.2097 H         1 <0>         0.1359
     23 H8         -3.5900    3.0455   -3.6828 H         1 <0>         0.1360
     24 H9         -3.1471    1.6848   -1.6813 H         1 <0>         0.1360
@<TRIPOS>BOND
     1    1    6 ar
     2    1    2 ar
     3    1   16 1
     4    2    3 ar
     5    2   17 1
     6    3    4 ar
     7    3   18 1
     8    4   15 1
     9    4    5 ar
    10    5    6 ar
    11    5    7 1
    12    6   19 1
    13    7    8 2
    14    7   20 1
    15    8    9 1
    16    9   14 ar
    17    9   10 ar
    18   10   11 ar
    19   10   21 1
    20   11   12 ar
    21   11   22 1
    22   12   13 ar
    23   12   23 1
    24   13   14 ar
    25   13   24 1
    26   14   15 1
@<TRIPOS>MOLECULE
ZINC05934150
   16    16     0     0     0
SMALL
USER_CHARGES
2-bromo-2-phenyl-acetonitrile
@<TRIPOS>ATOM
      1 C1          2.3960    0.0285   -0.0212 C.ar      1 <0>        -0.1022
      2 C2          1.2084   -0.6789   -0.0132 C.ar      1 <0>        -0.1178
      3 C3          0.0021   -0.0041    0.0020 C.ar      1 <0>        -0.0912
      4 C4         -0.0167    1.3781    0.0096 C.ar      1 <0>        -0.1036
      5 C5          1.1709    2.0855    0.0021 C.ar      1 <0>        -0.0931
      6 C6          2.3773    1.4107   -0.0145 C.ar      1 <0>        -0.1155
      7 C7         -1.3319    2.1138    0.0199 C.3       1 <0>         0.0896
      8 H1         -2.1492    1.3982   -0.0697 H         1 <0>         0.1563
      9 C8         -1.4678    2.8584    1.2824 C.1       1 <0>         0.1988
     10 N1         -1.5727    3.4330    2.2567 N.1       1 <0>        -0.3817
     11 Br1        -1.3919    3.3698   -1.4914 Br        1 <0>        -0.0857
     12 H2          3.3385   -0.4987   -0.0324 H         1 <0>         0.1281
     13 H3          1.2231   -1.7588   -0.0184 H         1 <0>         0.1305
     14 H4         -0.9258   -0.5567    0.0083 H         1 <0>         0.1315
     15 H5          1.1563    3.1654    0.0077 H         1 <0>         0.1267
     16 H6          3.3051    1.9634   -0.0205 H         1 <0>         0.1293
@<TRIPOS>BOND
     1    1    6 ar
     2    1    2 ar
     3    1   12 1
     4    2    3 ar
     5    2   13 1
     6    3    4 ar
     7    3   14 1
     8    4    5 ar
     9    4    7 1
    10    5    6 ar
    11    5   15 1
    12    6   16 1
    13    7    8 1
    14    7    9 1
    15    7   11 1
    16    9   10 3
@<TRIPOS>MOLECULE
ZINC05934388
   16    16     0     0     0
SMALL
USER_CHARGES
2-bromo-2-phenyl-acetonitrile
@<TRIPOS>ATOM
      1 C1          1.2084   -0.6789   -0.0136 C.ar      1 <0>        -0.1022
      2 C2          0.0021   -0.0041    0.0020 C.ar      1 <0>        -0.1178
      3 C3         -0.0167    1.3781    0.0096 C.ar      1 <0>        -0.0911
      4 C4          1.1709    2.0855    0.0021 C.ar      1 <0>        -0.1036
      5 C5          2.3773    1.4107   -0.0136 C.ar      1 <0>        -0.0932
      6 C6          2.3961    0.0285   -0.0212 C.ar      1 <0>        -0.1156
      7 C7          1.1505    3.5924    0.0099 C.3       1 <0>         0.0896
      8 H1          0.1228    3.9413    0.1109 H         1 <0>         0.1563
      9 C8          1.7185    4.0973   -1.2507 C.1       1 <0>         0.1988
     10 N1          2.1568    4.4871   -2.2236 N.1       1 <0>        -0.3817
     11 Br1         2.2189    4.2544    1.5217 Br        1 <0>        -0.0857
     12 H2          1.2231   -1.7588   -0.0196 H         1 <0>         0.1281
     13 H3         -0.9258   -0.5567    0.0079 H         1 <0>         0.1305
     14 H4         -0.9592    1.9054    0.0170 H         1 <0>         0.1315
     15 H5          3.3052    1.9634   -0.0192 H         1 <0>         0.1267
     16 H6          3.3386   -0.4987   -0.0327 H         1 <0>         0.1293
@<TRIPOS>BOND
     1    1    6 ar
     2    1    2 ar
     3    1   12 1
     4    2    3 ar
     5    2   13 1
     6    3    4 ar
     7    3   14 1
     8    4    5 ar
     9    4    7 1
    10    5    6 ar
    11    5   15 1
    12    6   16 1
    13    7    8 1
    14    7    9 1
    15    7   11 1
    16    9   10 3
@<TRIPOS>MOLECULE
ZINC02034519
   10     9     0     0     0
SMALL
USER_CHARGES
1-bromopropan-2-one
@<TRIPOS>ATOM
      1 C1         -1.3295    1.9391    0.0189 C.3       1 <0>        -0.1871
      2 C2         -0.0143    1.2034    0.0087 C.2       1 <0>         0.3453
      3 O1          0.0021   -0.0041    0.0020 O.2       1 <0>        -0.4261
      4 C3          1.2804    1.9746    0.0004 C.3       1 <0>        -0.1353
      5 Br1         2.7918    0.7175   -0.0207 Br        1 <0>        -0.1194
      6 H1         -2.0807    1.2790    0.0189 H         1 <0>         0.0790
      7 H2         -1.3915    2.5601    0.9126 H         1 <0>         0.0971
      8 H3         -1.3999    2.5697   -0.8673 H         1 <0>         0.0968
      9 H4          1.3177    2.5545   -0.8134 H         1 <0>         0.1169
     10 H5          1.3381    2.5972    0.8933 H         1 <0>         0.1327
@<TRIPOS>BOND
     1    1    2 1
     2    1    6 1
     3    1    7 1
     4    1    8 1
     5    2    3 2
     6    2    4 1
     7    4    5 1
     8    4    9 1
     9    4   10 1
@<TRIPOS>MOLECULE
ZINC01648257
   14    13     0     0     0
SMALL
USER_CHARGES

@<TRIPOS>ATOM
      1 C1         -0.0187    1.5258    0.0104 C.3       1 <0>        -0.1532
      2 C2          0.0021   -0.0041    0.0020 C.3       1 <0>         0.0604
      3 O1          0.6709   -0.4649   -1.1737 O.3       1 <0>        -0.3476
      4 C3          0.7755   -1.7935   -1.3341 C.2       1 <0>         0.4576
      5 O2          0.3143   -2.5404   -0.5039 O.2       1 <0>        -0.4806
      6 C4          1.4679   -2.3535   -2.5498 C.3       1 <0>        -0.0922
      7 Br1         1.4440   -4.3177   -2.4710 Br        1 <0>        -0.0886
      8 H1          1.0039    1.9031    0.0027 H         1 <0>         0.0680
      9 H2         -0.5459    1.8868   -0.8726 H         1 <0>         0.0680
     10 H3         -0.5289    1.8773    0.9072 H         1 <0>         0.0827
     11 H4          0.5293   -0.3651    0.8851 H         1 <0>         0.0710
     12 H5         -1.0205   -0.3814    0.0098 H         1 <0>         0.0710
     13 H6          0.9501   -2.0196   -3.4490 H         1 <0>         0.1418
     14 H7          2.4999   -2.0034   -2.5737 H         1 <0>         0.1418
@<TRIPOS>BOND
     1    1    2 1
     2    1    8 1
     3    1    9 1
     4    1   10 1
     5    2    3 1
     6    2   11 1
     7    2   12 1
     8    3    4 1
     9    4    5 2
    10    4    6 1
    11    6    7 1
    12    6   13 1
    13    6   14 1
@<TRIPOS>MOLECULE
ZINC03604280
   25    24     0     0     0
SMALL
USER_CHARGES
4-oxonon-2-enal
@<TRIPOS>ATOM
      1 C1          4.0553    7.7219    0.0048 C.3       1 <0>        -0.1542
      2 C2          4.0760    6.1920   -0.0036 C.3       1 <0>        -0.1265
      3 C3          2.6406    5.6625    0.0073 C.3       1 <0>        -0.1208
      4 C4          2.6614    4.1326   -0.0012 C.3       1 <0>        -0.1162
      5 C5          1.2260    3.6030    0.0097 C.3       1 <0>        -0.1562
      6 C6          1.2464    2.0962    0.0014 C.2       1 <0>         0.3713
      7 O1          2.3044    1.5044   -0.0119 O.2       1 <0>        -0.4395
      8 C7         -0.0162    1.3441    0.0094 C.2       1 <0>        -0.1605
      9 C8          0.0021   -0.0041    0.0020 C.2       1 <0>        -0.1602
     10 C9         -1.2606   -0.7562    0.0100 C.2       1 <0>         0.3619
     11 O2         -1.2442   -1.9684    0.0034 O.2       1 <0>        -0.4419
     12 H1          5.0779    8.0992   -0.0029 H         1 <0>         0.0543
     13 H2          3.5281    8.0830   -0.8783 H         1 <0>         0.0537
     14 H3          3.5451    8.0734    0.9016 H         1 <0>         0.0537
     15 H4          4.6032    5.8310    0.8795 H         1 <0>         0.0619
     16 H5          4.5862    5.8405   -0.9004 H         1 <0>         0.0618
     17 H6          2.1135    6.0235   -0.8758 H         1 <0>         0.0630
     18 H7          2.1305    6.0140    0.9040 H         1 <0>         0.0634
     19 H8          3.1886    3.7715    0.8819 H         1 <0>         0.0692
     20 H9          3.1716    3.7811   -0.8980 H         1 <0>         0.0689
     21 H10         0.7423    3.9342   -0.8005 H         1 <0>         0.0924
     22 H11         0.7158    3.9546    0.9065 H         1 <0>         0.1023
     23 H12        -0.9587    1.8713    0.0168 H         1 <0>         0.1456
     24 H13         0.9446   -0.5313   -0.0098 H         1 <0>         0.1420
     25 H14        -2.2031   -0.2290    0.0219 H         1 <0>         0.1106
@<TRIPOS>BOND
     1    1    2 1
     2    1   12 1
     3    1   13 1
     4    1   14 1
     5    2    3 1
     6    2   15 1
     7    2   16 1
     8    3    4 1
     9    3   17 1
    10    3   18 1
    11    4    5 1
    12    4   19 1
    13    4   20 1
    14    5    6 1
    15    5   21 1
    16    5   22 1
    17    6    7 2
    18    6    8 1
    19    8    9 2
    20    8   23 1
    21    9   10 1
    22    9   24 1
    23   10   11 2
    24   10   25 1
@<TRIPOS>MOLECULE
ZINC02022074
   20    20     0     0     0
SMALL
USER_CHARGES

@<TRIPOS>ATOM
      1 C1         -0.0167    1.3781    0.0096 C.ar      1 <0>        -0.1184
      2 C2          1.1709    2.0855    0.0021 C.ar      1 <0>        -0.1171
      3 C3          2.3773    1.4107   -0.0130 C.ar      1 <0>        -0.1144
      4 C4          2.3960    0.0285   -0.0201 C.ar      1 <0>        -0.0901
      5 C5          1.2084   -0.6789   -0.0117 C.ar      1 <0>        -0.1127
      6 C6          0.0021   -0.0041    0.0020 C.ar      1 <0>        -0.1172
      7 C7          3.7112   -0.7071   -0.0376 C.3       1 <0>        -0.0805
      8 C8          4.1714   -0.9633    1.3989 C.3       1 <0>         0.1053
      9 N1          5.4498   -1.6784    1.3820 N.2       1 <0>        -0.5106
     10 C9          6.4586   -1.1680    1.9152 C.1       1 <0>         0.2282
     11 S1          7.7123   -0.5337    2.5780 S.2       1 <0>        -0.0291
     12 H1         -0.9591    1.9053    0.0259 H         1 <0>         0.1238
     13 H2          1.1563    3.1654    0.0076 H         1 <0>         0.1245
     14 H3          3.3051    1.9634   -0.0196 H         1 <0>         0.1221
     15 H4          1.2231   -1.7588   -0.0176 H         1 <0>         0.1238
     16 H5         -0.9258   -0.5567    0.0082 H         1 <0>         0.1246
     17 H6          3.5884   -1.6586   -0.5549 H         1 <0>         0.0877
     18 H7          4.4573   -0.1052   -0.5563 H         1 <0>         0.0787
     19 H8          4.2941   -0.0118    1.9163 H         1 <0>         0.0695
     20 H9          3.4252   -1.5652    1.9176 H         1 <0>         0.1018
@<TRIPOS>BOND
     1    1    6 ar
     2    1    2 ar
     3    1   12 1
     4    2    3 ar
     5    2   13 1
     6    3    4 ar
     7    3   14 1
     8    4    5 ar
     9    4    7 1
    10    5    6 ar
    11    5   15 1
    12    6   16 1
    13    7    8 1
    14    7   17 1
    15    7   18 1
    16    8    9 1
    17    8   19 1
    18    8   20 1
    19    9   10 2
    20   10   11 2
@<TRIPOS>MOLECULE
ZINC01687017
   12    11     0     0     0
SMALL
USER_CHARGES

@<TRIPOS>ATOM
      1 C1         -0.0157    1.3058    0.0092 C.2       1 <0>        -0.1009
      2 C2          0.0021   -0.0041    0.0020 C.2       1 <0>        -0.2292
      3 C3          1.3172   -0.7397   -0.0145 C.3       1 <0>         0.1109
      4 N1          1.3674   -1.6756    1.1115 N.pl3     1 <0>        -0.5067
      5 C4          2.3777   -2.3909    1.2851 C.1       1 <0>         0.0916
      6 S1          3.6334   -3.2798    1.5009 S.2       1 <0>         0.5632
      7 H1          0.9122    1.8585    0.0033 H         1 <0>         0.1114
      8 H2         -0.9582    1.8330    0.0166 H         1 <0>         0.1251
      9 H3         -0.9258   -0.5567    0.0079 H         1 <0>         0.1347
     10 H4          1.4134   -1.2911   -0.9498 H         1 <0>         0.1258
     11 H5          2.1349   -0.0241    0.0711 H         1 <0>         0.1202
     12 H6          0.6167   -1.7402    1.7223 H         1 <0>         0.4539
@<TRIPOS>BOND
     1    1    2 2
     2    1    7 1
     3    1    8 1
     4    2    3 1
     5    2    9 1
     6    3    4 1
     7    3   10 1
     8    3   11 1
     9    4    5 2
    10    4   12 1
    11    5    6 2
@<TRIPOS>MOLECULE
ZINC01687017
   11    10     0     0     0
SMALL
USER_CHARGES

@<TRIPOS>ATOM
      1 C1         -0.0157    1.3058    0.0092 C.2       1 <0>        -0.1553
      2 C2          0.0021   -0.0041    0.0020 C.2       1 <0>        -0.1716
      3 C3          1.3172   -0.7397   -0.0145 C.3       1 <0>         0.1270
      4 N1          1.3674   -1.6756    1.1115 N.2       1 <0>        -0.5068
      5 C4          1.5033   -2.9002    0.9008 C.1       1 <0>         0.2272
      6 S1          1.6721   -4.4222    0.6389 S.2       1 <0>        -0.0294
      7 H1          0.9122    1.8585    0.0033 H         1 <0>         0.1028
      8 H2         -0.9582    1.8330    0.0166 H         1 <0>         0.1087
      9 H3         -0.9258   -0.5567    0.0079 H         1 <0>         0.1159
     10 H4          1.4134   -1.2911   -0.9498 H         1 <0>         0.0773
     11 H5          2.1349   -0.0241    0.0711 H         1 <0>         0.1040
@<TRIPOS>BOND
     1    1    2 2
     2    1    7 1
     3    1    8 1
     4    2    3 1
     5    2    9 1
     6    3    4 1
     7    3   10 1
     8    3   11 1
     9    4    5 2
    10    5    6 2
@<TRIPOS>MOLECULE
ZINC02031161
   14    13     0     0     0
SMALL
USER_CHARGES
(E)-pent-2-enal
@<TRIPOS>ATOM
      1 C1         -1.3187   -1.7407   -1.1764 C.3       1 <0>        -0.1509
      2 C2         -1.2926   -0.7753    0.0102 C.3       1 <0>        -0.1114
      3 C3          0.0021   -0.0041    0.0020 C.2       1 <0>        -0.0637
      4 C4         -0.0160    1.3304    0.0094 C.2       1 <0>        -0.2600
      5 C5          1.2405    2.0788    0.0014 C.2       1 <0>         0.3658
      6 O1          1.2241    3.2920    0.0081 O.2       1 <0>        -0.4649
      7 H1         -0.4819   -2.4348   -1.0985 H         1 <0>         0.0591
      8 H2         -2.2552   -2.2985   -1.1704 H         1 <0>         0.0623
      9 H3         -1.2377   -1.1767   -2.1056 H         1 <0>         0.0576
     10 H4         -1.3737   -1.3393    0.9394 H         1 <0>         0.0844
     11 H5         -2.1295   -0.0812   -0.0676 H         1 <0>         0.0738
     12 H6          0.9446   -0.5313   -0.0098 H         1 <0>         0.1233
     13 H7         -0.9586    1.8576    0.0167 H         1 <0>         0.1278
     14 H8          2.1830    1.5516   -0.0105 H         1 <0>         0.0969
@<TRIPOS>BOND
     1    1    2 1
     2    1    7 1
     3    1    8 1
     4    1    9 1
     5    2    3 1
     6    2   10 1
     7    2   11 1
     8    3    4 2
     9    3   12 1
    10    4    5 1
    11    4   13 1
    12    5    6 2
    13    5   14 1
@<TRIPOS>MOLECULE
ZINC01678038
   18    17     0     0     0
SMALL
USER_CHARGES
2-methylsulfonylsulfanylethanamine
@<TRIPOS>ATOM
      1 C1         -1.1096    2.0196    1.3266 C.3       1 <0>        -0.5994
      2 S1         -0.0172    1.4168    0.0098 S.o2      1 <0>         2.3583
      3 O1          0.0021   -0.0041    0.0020 O.2       1 <0>        -0.8070
      4 O2          1.1953    2.1578    0.0022 O.2       1 <0>        -0.8697
      5 S2         -0.9589    1.9368   -1.7352 S.3       1 <0>        -0.7258
      6 C2         -0.6785    3.7239   -1.8696 C.3       1 <0>        -0.0448
      7 C3          0.7983    3.9872   -2.1707 C.3       1 <0>        -0.0310
      8 H1         -0.6753    1.7798    2.2972 H         1 <0>         0.1600
      9 H2         -1.2249    3.0998    1.2370 H         1 <0>         0.1406
     10 H3         -2.0850    1.5414    1.2369 H         1 <0>         0.1566
     11 H4         -1.2913    4.1283   -2.6752 H         1 <0>         0.1450
     12 H5         -0.9493    4.2058   -0.9302 H         1 <0>         0.1163
     13 H6          1.4111    3.5828   -1.3650 H         1 <0>         0.1646
     14 H7          1.0691    3.5053   -3.1101 H         1 <0>         0.1513
     15 H8          0.7215    5.9119   -1.4442 H         1 <0>         0.4376
     16 H9          1.9942    5.6345   -2.4782 H         1 <0>         0.4476
     17 N1          1.0105    5.4397   -2.2993 N.4       1 <0>        -0.6414
     18 H10         0.4507    5.7944   -3.0835 H         1 <0>         0.4414
@<TRIPOS>BOND
     1    1    2 1
     2    1    8 1
     3    1    9 1
     4    1   10 1
     5    2    3 2
     6    2    4 2
     7    2    5 1
     8    5    6 1
     9    6    7 1
    10    6   11 1
    11    6   12 1
    12    7   13 1
    13    7   14 1
    14    7   17 1
    15   15   17 1
    16   16   17 1
    17   17   18 1
@<TRIPOS>MOLECULE
ZINC01532777
   18    18     0     0     0
SMALL
USER_CHARGES

@<TRIPOS>ATOM
      1 C1         -0.0167    1.3800    0.0096 C.ar      1 <0>        -0.1025
      2 C2          1.1680    2.0959    0.0022 C.ar      1 <0>        -0.1247
      3 C3          2.3774    1.4344   -0.0134 C.ar      1 <0>        -0.0919
      4 C4          2.4052    0.0353   -0.0212 C.ar      1 <0>        -0.0913
      5 C5          1.2030   -0.6808   -0.0131 C.ar      1 <0>        -0.0954
      6 C6          0.0021   -0.0041    0.0020 C.ar      1 <0>        -0.1236
      7 C7          3.6906   -0.6783   -0.0383 C.2       1 <0>        -0.0090
      8 C8          3.7132   -2.0317   -0.0458 C.2       1 <0>        -0.2594
      9 C9          4.9460   -2.7162   -0.0622 C.2       1 <0>         0.3650
     10 O1          4.9664   -3.9304   -0.0690 O.2       1 <0>        -0.4667
     11 H1         -0.9608    1.9042    0.0260 H         1 <0>         0.1263
     12 H2          1.1448    3.1756    0.0082 H         1 <0>         0.1280
     13 H3          3.3009    1.9944   -0.0199 H         1 <0>         0.1294
     14 H4          1.2160   -1.7607   -0.0191 H         1 <0>         0.1290
     15 H5         -0.9266   -0.5553    0.0079 H         1 <0>         0.1276
     16 H6          4.6167   -0.1227   -0.0449 H         1 <0>         0.1348
     17 H7          2.7871   -2.5873   -0.0392 H         1 <0>         0.1322
     18 H8          5.8721   -2.1606   -0.0688 H         1 <0>         0.0922
@<TRIPOS>BOND
     1    1    6 ar
     2    1    2 ar
     3    1   11 1
     4    2    3 ar
     5    2   12 1
     6    3    4 ar
     7    3   13 1
     8    4    5 ar
     9    4    7 1
    10    5    6 ar
    11    5   14 1
    12    6   15 1
    13    7    8 2
    14    7   16 1
    15    8    9 1
    16    8   17 1
    17    9   10 2
    18    9   18 1
@<TRIPOS>MOLECULE
ZINC01530846
   19    18     0     0     0
SMALL
USER_CHARGES
3-allylsulfanylsulfinylprop-1-ene
@<TRIPOS>ATOM
      1 C1         -2.8534   -0.8977    2.9353 C.2       1 <0>        -0.1548
      2 C2         -2.3887   -0.2416    1.9011 C.2       1 <0>        -0.1796
      3 C3         -2.4092    1.2653    1.8933 C.3       1 <0>         0.0382
      4 S1         -0.7074    1.8931    1.8804 S.3       1 <0>        -0.6646
      5 S2         -0.0172    1.4168    0.0098 S.o       1 <0>         1.2949
      6 O1          0.0021   -0.0041    0.0020 O.2       1 <0>        -0.7560
      7 C4          1.6846    2.0446   -0.0030 C.3       1 <0>        -0.3922
      8 C5          2.3166    1.7556   -1.3403 C.2       1 <0>        -0.1576
      9 C6          2.6608    2.7432   -2.1292 C.2       1 <0>        -0.1560
     10 H1         -2.8387   -1.9775    2.9409 H         1 <0>         0.1047
     11 H2         -3.2512   -0.3587    3.7825 H         1 <0>         0.1017
     12 H3         -1.9909   -0.7805    1.0539 H         1 <0>         0.1229
     13 H4         -2.9229    1.6262    2.7844 H         1 <0>         0.1169
     14 H5         -2.9330    1.6170    1.0044 H         1 <0>         0.0990
     15 H6          1.6762    3.1208    0.1699 H         1 <0>         0.1345
     16 H7          2.2586    1.5548    0.7835 H         1 <0>         0.1126
     17 H8          2.4856    0.7344   -1.6482 H         1 <0>         0.1185
     18 H9          2.4918    3.7644   -1.8212 H         1 <0>         0.1069
     19 H10         3.1137    2.5361   -3.0875 H         1 <0>         0.1101
@<TRIPOS>BOND
     1    1    2 2
     2    1   10 1
     3    1   11 1
     4    2    3 1
     5    2   12 1
     6    3    4 1
     7    3   13 1
     8    3   14 1
     9    4    5 1
    10    5    6 2
    11    5    7 1
    12    7    8 1
    13    7   15 1
    14    7   16 1
    15    8    9 2
    16    8   17 1
    17    9   18 1
    18    9   19 1
@<TRIPOS>MOLECULE
ZINC04097409
   19    18     0     0     0
SMALL
USER_CHARGES
3-allylsulfanylsulfinylprop-1-ene
@<TRIPOS>ATOM
      1 C1         -0.7022   -1.0693    3.4481 C.2       1 <0>        -0.1479
      2 C2         -0.2005   -0.1106    2.7097 C.2       1 <0>        -0.1759
      3 C3          0.7558   -0.4415    1.5930 C.3       1 <0>         0.0348
      4 S1          0.0021   -0.0041    0.0020 S.3       1 <0>        -0.6612
      5 S2         -0.0257    2.0457    0.0133 S.o       1 <0>         1.2915
      6 O1          1.3482    2.4082    0.0021 O.2       1 <0>        -0.7580
      7 C4         -0.7794    2.4831   -1.5777 C.3       1 <0>        -0.3928
      8 C5         -0.8608    3.9830   -1.6995 C.2       1 <0>        -0.1592
      9 C6         -0.1676    4.6038   -2.6215 C.2       1 <0>        -0.1567
     10 H1         -1.3875   -0.8322    4.2485 H         1 <0>         0.1087
     11 H2         -0.4305   -2.0969    3.2566 H         1 <0>         0.1024
     12 H3         -0.4722    0.9170    2.9013 H         1 <0>         0.1169
     13 H4          0.9776   -1.5086    1.6088 H         1 <0>         0.1163
     14 H5          1.6785    0.1234    1.7254 H         1 <0>         0.0950
     15 H6         -0.1708    2.0851   -2.3897 H         1 <0>         0.1061
     16 H7         -1.7820    2.0591   -1.6336 H         1 <0>         0.1408
     17 H8         -1.4906    4.5460   -1.0267 H         1 <0>         0.1286
     18 H9          0.4622    4.0408   -3.2944 H         1 <0>         0.0990
     19 H10        -0.2259    5.6787   -2.7089 H         1 <0>         0.1116
@<TRIPOS>BOND
     1    1    2 2
     2    1   10 1
     3    1   11 1
     4    2    3 1
     5    2   12 1
     6    3    4 1
     7    3   13 1
     8    3   14 1
     9    4    5 1
    10    5    6 2
    11    5    7 1
    12    7    8 1
    13    7   15 1
    14    7   16 1
    15    8    9 2
    16    8   17 1
    17    9   18 1
    18    9   19 1
@<TRIPOS>MOLECULE
ZINC29043655
   26    27     0     0     0
SMALL
USER_CHARGES
(3E)-3-acetonylidene-1-methyl-indolin-2-one
@<TRIPOS>ATOM
      1 C1          2.5518    7.4572   -0.2067 C.3       1 <0>        -0.1986
      2 C2          2.0475    6.0414   -0.0959 C.2       1 <0>         0.3711
      3 O1          0.8544    5.8214   -0.0864 O.2       1 <0>        -0.4372
      4 C3          2.9960    4.9330   -0.0001 C.2       1 <0>        -0.1345
      5 C4          2.5463    3.6715    0.2452 C.2       1 <0>        -0.0604
      6 C5          1.2800    3.2780    0.8952 C.ar      1 <0>        -0.1343
      7 C6          0.2166    4.0039    1.4279 C.ar      1 <0>        -0.0273
      8 C7         -0.8564    3.3373    1.9834 C.ar      1 <0>        -0.1530
      9 C8         -0.8778    1.9525    2.0048 C.ar      1 <0>        -0.0655
     10 C9          0.1740    1.2234    1.4849 C.ar      1 <0>        -0.1465
     11 C10         1.2643    1.8751    0.9213 C.ar      1 <0>         0.1576
     12 N1          2.4282    1.3876    0.3348 N.am      1 <0>        -0.5504
     13 C11         3.2233    2.3875   -0.0830 C.2       1 <0>         0.5536
     14 O2          4.3011    2.2651   -0.6299 O.2       1 <0>        -0.4833
     15 C12         2.7465   -0.0351    0.1910 C.3       1 <0>         0.0749
     16 H1          3.6518    7.4563   -0.1990 H         1 <0>         0.0853
     17 H2          2.1797    8.0466    0.6442 H         1 <0>         0.0986
     18 H3          2.1921    7.9021   -1.1462 H         1 <0>         0.0972
     19 H4          4.0729    5.1182   -0.1262 H         1 <0>         0.1604
     20 H5          0.2319    5.0836    1.4057 H         1 <0>         0.1497
     21 H6         -1.6828    3.8959    2.3974 H         1 <0>         0.1325
     22 H7         -1.7231    1.4375    2.4369 H         1 <0>         0.1340
     23 H8          0.1470    0.1441    1.5126 H         1 <0>         0.1293
     24 H9          3.7224   -0.1442   -0.3046 H         1 <0>         0.0951
     25 H10         1.9704   -0.5250   -0.4154 H         1 <0>         0.0757
     26 H11         2.7856   -0.5044    1.1851 H         1 <0>         0.0764
@<TRIPOS>BOND
     1    1    2 1
     2    1   16 1
     3    1   17 1
     4    1   18 1
     5    2    3 2
     6    2    4 1
     7    4    5 2
     8    4   19 1
     9    5   13 1
    10    5    6 1
    11    6   11 ar
    12    6    7 ar
    13    7    8 ar
    14    7   20 1
    15    8    9 ar
    16    8   21 1
    17    9   10 ar
    18    9   22 1
    19   10   11 ar
    20   10   23 1
    21   11   12 1
    22   12   13 am
    23   12   15 1
    24   13   14 2
    25   15   24 1
    26   15   25 1
    27   15   26 1
@<TRIPOS>MOLECULE
ZINC05972962
   50    50     0     0     0
SMALL
USER_CHARGES

@<TRIPOS>ATOM
      1 C1          0.3156    0.6716   -1.4002 C.3       1 <0>        -0.1547
      2 C2          0.3312   -0.8364   -1.1420 C.3       1 <0>        -0.1237
      3 C3          0.9795   -1.1147    0.2157 C.3       1 <0>        -0.1244
      4 C4          0.9951   -2.6227    0.4739 C.3       1 <0>        -0.1127
      5 C5          1.6434   -2.9010    1.8315 C.3       1 <0>        -0.1037
      6 C6          1.6587   -4.3863    2.0858 C.2       1 <0>        -0.0981
      7 C7          2.8090   -5.0039    2.3654 C.2       1 <0>        -0.1668
      8 C8          2.8239   -6.4451    2.6121 C.2       1 <0>        -0.0016
      9 C9          3.9904   -7.0714    2.8957 C.2       1 <0>        -0.2217
     10 C10         5.3664   -6.4497    3.0056 C.3       1 <0>        -0.0349
     11 H1          5.6494   -5.9930    2.0572 H         1 <0>         0.1021
     12 C11         6.3054   -7.5824    3.3381 C.2       1 <0>        -0.0598
     13 C12         5.6237   -8.7144    3.4199 C.2       1 <0>        -0.2431
     14 C13         4.1936   -8.4975    3.1690 C.2       1 <0>         0.4118
     15 O1          3.3271   -9.3537    3.1830 O.2       1 <0>        -0.4595
     16 C14         5.3847   -5.4025    4.1210 C.3       1 <0>        -0.0891
     17 C15         6.7221   -4.7081    4.1363 C.2       1 <0>        -0.1830
     18 C16         6.7812   -3.3999    4.1024 C.2       1 <0>        -0.1315
     19 C17         5.5189   -2.5852    4.2202 C.3       1 <0>        -0.1071
     20 C18         5.6731   -1.5665    5.3513 C.3       1 <0>        -0.0863
     21 C19         4.3915   -0.7394    5.4710 C.3       1 <0>        -0.1822
     22 C20         4.5433    0.2640    6.5851 C.2       1 <0>         0.4875
     23 O2          5.5805    0.3130    7.2242 O.co2     1 <0>        -0.6996
     24 O3          3.6290    1.0267    6.8473 O.co2     1 <0>        -0.7087
     25 H2          1.3375    1.0506   -1.4010 H         1 <0>         0.0545
     26 H3         -0.1463    0.8698   -2.3673 H         1 <0>         0.0511
     27 H4         -0.2556    1.1686   -0.6160 H         1 <0>         0.0548
     28 H5         -0.6908   -1.2155   -1.1411 H         1 <0>         0.0590
     29 H6          0.9024   -1.3334   -1.9261 H         1 <0>         0.0588
     30 H7          2.0014   -0.7357    0.2148 H         1 <0>         0.0644
     31 H8          0.4083   -0.6177    0.9998 H         1 <0>         0.0651
     32 H9         -0.0269   -3.0017    0.4747 H         1 <0>         0.0622
     33 H10         1.5663   -3.1197   -0.3103 H         1 <0>         0.0617
     34 H11         2.6653   -2.5219    1.8306 H         1 <0>         0.0745
     35 H12         1.0722   -2.4040    2.6156 H         1 <0>         0.0837
     36 H13         0.7393   -4.9512    2.0419 H         1 <0>         0.1147
     37 H14         3.7284   -4.4390    2.4093 H         1 <0>         0.1276
     38 H15         1.9045   -7.0100    2.5682 H         1 <0>         0.1294
     39 H16         7.3707   -7.4850    3.4868 H         1 <0>         0.1486
     40 H17         6.0632   -9.6745    3.6467 H         1 <0>         0.1414
     41 H18         4.5970   -4.6701    3.9446 H         1 <0>         0.0924
     42 H19         5.2181   -5.8913    5.0810 H         1 <0>         0.0713
     43 H20         7.6317   -5.2890    4.1751 H         1 <0>         0.1068
     44 H21         7.7347   -2.9052    3.9900 H         1 <0>         0.1086
     45 H22         5.3356   -2.0615    3.2820 H         1 <0>         0.0642
     46 H23         4.6794   -3.2455    4.4378 H         1 <0>         0.0695
     47 H24         5.8564   -2.0903    6.2895 H         1 <0>         0.0589
     48 H25         6.5126   -0.9063    5.1337 H         1 <0>         0.0589
     49 H26         4.2082   -0.2157    4.5328 H         1 <0>         0.0544
     50 H27         3.5519   -1.3997    5.6885 H         1 <0>         0.0541
@<TRIPOS>BOND
     1    1    2 1
     2    1   25 1
     3    1   26 1
     4    1   27 1
     5    2    3 1
     6    2   28 1
     7    2   29 1
     8    3    4 1
     9    3   30 1
    10    3   31 1
    11    4    5 1
    12    4   32 1
    13    4   33 1
    14    5    6 1
    15    5   34 1
    16    5   35 1
    17    6    7 2
    18    6   36 1
    19    7    8 1
    20    7   37 1
    21    8    9 2
    22    8   38 1
    23    9   14 1
    24    9   10 1
    25   10   11 1
    26   10   12 1
    27   10   16 1
    28   12   13 2
    29   12   39 1
    30   13   14 1
    31   13   40 1
    32   14   15 2
    33   16   17 1
    34   16   41 1
    35   16   42 1
    36   17   18 2
    37   17   43 1
    38   18   19 1
    39   18   44 1
    40   19   20 1
    41   19   45 1
    42   19   46 1
    43   20   21 1
    44   20   47 1
    45   20   48 1
    46   21   22 1
    47   21   49 1
    48   21   50 1
    49   22   23 2
    50   22   24 1
@<TRIPOS>MOLECULE
ZINC01529592
   17    17     0     0     0
SMALL
USER_CHARGES

@<TRIPOS>ATOM
      1 C1         -0.0167    1.3781    0.0096 C.ar      1 <0>        -0.1082
      2 C2          1.1709    2.0855    0.0021 C.ar      1 <0>        -0.1208
      3 C3          2.3773    1.4107   -0.0130 C.ar      1 <0>        -0.0924
      4 C4          2.3960    0.0285   -0.0201 C.ar      1 <0>        -0.1047
      5 C5          1.2084   -0.6789   -0.0117 C.ar      1 <0>        -0.1038
      6 C6          0.0021   -0.0041    0.0020 C.ar      1 <0>        -0.1195
      7 C7          3.7112   -0.7071   -0.0376 C.3       1 <0>         0.1415
      8 N1          4.1518   -0.9524    1.3379 N.2       1 <0>        -0.5030
      9 C8          4.3256   -2.1234    1.7391 C.1       1 <0>         0.2277
     10 S1          4.5415   -3.5789    2.2377 S.2       1 <0>        -0.0313
     11 H1         -0.9591    1.9053    0.0259 H         1 <0>         0.1264
     12 H2          1.1563    3.1654    0.0076 H         1 <0>         0.1272
     13 H3          3.3051    1.9634   -0.0196 H         1 <0>         0.1258
     14 H4          1.2231   -1.7588   -0.0176 H         1 <0>         0.1214
     15 H5         -0.9258   -0.5567    0.0082 H         1 <0>         0.1271
     16 H6          3.5884   -1.6586   -0.5549 H         1 <0>         0.0775
     17 H7          4.4573   -0.1052   -0.5563 H         1 <0>         0.1091
@<TRIPOS>BOND
     1    1    6 ar
     2    1    2 ar
     3    1   11 1
     4    2    3 ar
     5    2   12 1
     6    3    4 ar
     7    3   13 1
     8    4    5 ar
     9    4    7 1
    10    5    6 ar
    11    5   14 1
    12    6   15 1
    13    7    8 1
    14    7   16 1
    15    7   17 1
    16    8    9 2
    17    9   10 2
@<TRIPOS>MOLECULE
ZINC01529592
   18    18     0     0     0
SMALL
USER_CHARGES

@<TRIPOS>ATOM
      1 C1         -0.0167    1.3781    0.0096 C.ar      1 <0>        -0.0809
      2 C2          1.1709    2.0855    0.0021 C.ar      1 <0>        -0.1169
      3 C3          2.3773    1.4107   -0.0130 C.ar      1 <0>        -0.0879
      4 C4          2.3960    0.0285   -0.0201 C.ar      1 <0>        -0.1592
      5 C5          1.2084   -0.6789   -0.0117 C.ar      1 <0>        -0.0879
      6 C6          0.0021   -0.0041    0.0020 C.ar      1 <0>        -0.1168
      7 C7          3.7112   -0.7071   -0.0376 C.3       1 <0>         0.1268
      8 N1          4.1518   -0.9524    1.3379 N.pl3     1 <0>        -0.5065
      9 C8          5.2267   -1.5535    1.5521 C.1       1 <0>         0.0935
     10 S1          6.5626   -2.3005    1.8182 S.2       1 <0>         0.5583
     11 H1         -0.9591    1.9053    0.0259 H         1 <0>         0.1370
     12 H2          1.1563    3.1654    0.0076 H         1 <0>         0.1369
     13 H3          3.3051    1.9634   -0.0196 H         1 <0>         0.1302
     14 H4          1.2231   -1.7588   -0.0176 H         1 <0>         0.1302
     15 H5         -0.9258   -0.5567    0.0082 H         1 <0>         0.1369
     16 H6          3.5884   -1.6586   -0.5549 H         1 <0>         0.1267
     17 H7          4.4573   -0.1052   -0.5563 H         1 <0>         0.1267
     18 H8          3.6095   -0.6484    2.0824 H         1 <0>         0.4530
@<TRIPOS>BOND
     1    1    6 ar
     2    1    2 ar
     3    1   11 1
     4    2    3 ar
     5    2   12 1
     6    3    4 ar
     7    3   13 1
     8    4    5 ar
     9    4    7 1
    10    5    6 ar
    11    5   14 1
    12    6   15 1
    13    7    8 1
    14    7   16 1
    15    7   17 1
    16    8    9 2
    17    8   18 1
    18    9   10 2
@<TRIPOS>MOLECULE
ZINC00897143
    8     7     0     0     0
SMALL
USER_CHARGES
prop-2-enal
@<TRIPOS>ATOM
      1 C1          1.1340    1.7588    0.0007 C.2       1 <0>        -0.0971
      2 C2         -0.0126    1.0758    0.0080 C.2       1 <0>        -0.2544
      3 C3         -1.2890    1.7898    0.0179 C.2       1 <0>         0.3632
      4 O1         -2.3314    1.1690    0.0195 O.2       1 <0>        -0.4628
      5 H1          1.1194    2.8387    0.0066 H         1 <0>         0.1110
      6 H2          2.0765    1.2316   -0.0112 H         1 <0>         0.1131
      7 H3          0.0021   -0.0041    0.0020 H         1 <0>         0.1280
      8 H4         -1.3037    2.8697    0.0238 H         1 <0>         0.0989
@<TRIPOS>BOND
     1    1    2 2
     2    1    5 1
     3    1    6 1
     4    2    3 1
     5    2    7 1
     6    3    4 2
     7    3    8 1
