@<TRIPOS>MOLECULE
ZINC00620751
   36    38     0     0     0
SMALL
USER_CHARGES

@<TRIPOS>ATOM
      1 C1         -0.0167    1.3778    0.0096 C.ar      1 <0>        -0.1199
      2 C2          1.1692    2.0888    0.0021 C.ar      1 <0>        -0.0925
      3 C3          2.3797    1.4211   -0.0134 C.ar      1 <0>        -0.1395
      4 C4          2.4070    0.0359   -0.0216 C.ar      1 <0>         0.1202
      5 C5          1.2128   -0.6809   -0.0135 C.ar      1 <0>         0.1279
      6 C6          0.0021   -0.0041    0.0020 C.ar      1 <0>        -0.0906
      7 N1          1.2343   -2.0822   -0.0222 N.am      1 <0>        -0.5716
      8 C7          1.2528   -2.8414    1.2386 C.3       1 <0>         0.1479
      9 C8          1.2756   -4.3523    1.1377 C.2       1 <0>        -0.2122
     10 C9          1.2775   -4.8983   -0.0809 C.2       1 <0>         0.1619
     11 N2          1.2595   -4.1023   -1.2228 N.am      1 <0>        -0.6663
     12 C10         1.2329   -2.7634   -1.1849 C.2       1 <0>         0.7164
     13 O1          1.2127   -2.1441   -2.2311 O.2       1 <0>        -0.5540
     14 C11         1.2995   -6.3726   -0.2196 C.ar      1 <0>        -0.0498
     15 C12         1.3123   -7.1825    0.9157 C.ar      1 <0>        -0.0506
     16 C13         1.3328   -8.5554    0.7801 C.ar      1 <0>        -0.1066
     17 C14         1.3412   -9.1289   -0.4790 C.ar      1 <0>        -0.0492
     18 C15         1.3285   -8.3309   -1.6087 C.ar      1 <0>        -0.0390
     19 C16         1.3017   -6.9565   -1.4858 C.ar      1 <0>        -0.0507
     20 N3          1.3376   -8.9523   -2.9521 N.pl3     1 <0>         0.0297
     21 O2          1.3560  -10.1562   -3.0611 O.2       1 <0>        -0.1481
     22 O3          1.3266   -8.2559   -3.9403 O.3       1 <0>        -0.1524
     23 O4          3.5969   -0.6222   -0.0378 O.3       1 <0>        -0.4886
     24 H1         -0.9599    1.9037    0.0259 H         1 <0>         0.1333
     25 H2          1.1499    3.1686    0.0081 H         1 <0>         0.1335
     26 H3          3.3042    1.9793   -0.0196 H         1 <0>         0.1360
     27 H4         -0.9257   -0.5569    0.0082 H         1 <0>         0.1292
     28 H5          2.1312   -2.5303    1.8041 H         1 <0>         0.0739
     29 H6          0.3713   -2.5574    1.8135 H         1 <0>         0.0777
     30 H7          1.2902   -4.9692    2.0240 H         1 <0>         0.1643
     31 H8          1.2623   -4.5389   -2.0890 H         1 <0>         0.4209
     32 H9          1.3065   -6.7360    1.8991 H         1 <0>         0.1528
     33 H10         1.3428   -9.1836    1.6585 H         1 <0>         0.1568
     34 H11         1.3580  -10.2040   -0.5802 H         1 <0>         0.1593
     35 H12         1.2873   -6.3345   -2.3685 H         1 <0>         0.1516
     36 H13         3.9503   -0.8176    0.8409 H         1 <0>         0.3881
@<TRIPOS>BOND
     1    1    6 ar
     2    1    2 ar
     3    1   24 1
     4    2    3 ar
     5    2   25 1
     6    3    4 ar
     7    3   26 1
     8    4    5 ar
     9    4   23 1
    10    5    6 ar
    11    5    7 1
    12    6   27 1
    13    7   12 am
    14    7    8 1
    15    8    9 1
    16    8   28 1
    17    8   29 1
    18    9   10 2
    19    9   30 1
    20   10   11 1
    21   10   14 1
    22   11   12 am
    23   11   31 1
    24   12   13 2
    25   14   19 ar
    26   14   15 ar
    27   15   16 ar
    28   15   32 1
    29   16   17 ar
    30   16   33 1
    31   17   18 ar
    32   17   34 1
    33   18   19 ar
    34   18   20 1
    35   19   35 1
    36   20   21 2
    37   20   22 1
    38   23   36 1
