@<TRIPOS>MOLECULE
ZINC06746067
   39    41     0     0     0
SMALL
USER_CHARGES
1-(5-isoquinolyl)-3-[[4-(trifluoromethyl)phenyl]methyl]urea
@<TRIPOS>ATOM
      1 C1          2.0944   -7.9971   -2.5399 C.ar      1 <0>        -0.0926
      2 C2          1.6148   -8.5465   -3.6906 C.ar      1 <0>        -0.1083
      3 C3          0.9810   -7.7318   -4.6414 C.ar      1 <0>        -0.0944
      4 C4          0.4701   -8.2498   -5.8431 C.ar      1 <0>         0.1505
      5 N1         -0.1147   -7.4500   -6.7037 N.ar      1 <0>        -0.4872
      6 C5         -0.2524   -6.1480   -6.4944 C.ar      1 <0>         0.0786
      7 C6          0.2089   -5.5493   -5.3608 C.ar      1 <0>        -0.1592
      8 C7          0.8472   -6.3416   -4.3915 C.ar      1 <0>        -0.0399
      9 C8          1.3521   -5.8004   -3.1938 C.ar      1 <0>         0.1659
     10 C9          1.9731   -6.6339   -2.2872 C.ar      1 <0>        -0.1146
     11 N2          1.2307   -4.4345   -2.9294 N.am      1 <0>        -0.6771
     12 C10         1.2409   -3.9909   -1.6568 C.2       1 <0>         0.7057
     13 O1          1.2526   -4.7852   -0.7362 O.2       1 <0>        -0.5640
     14 N3          1.2380   -2.6670   -1.4045 N.am      1 <0>        -0.7365
     15 C11         1.2490   -2.1848   -0.0212 C.3       1 <0>         0.1758
     16 C12         1.2432   -0.6778   -0.0144 C.ar      1 <0>        -0.0812
     17 C13         0.0434    0.0086   -0.0001 C.ar      1 <0>        -0.0990
     18 C14         0.0380    1.3909    0.0070 C.ar      1 <0>        -0.0710
     19 C15         1.2324    2.0868   -0.0001 C.ar      1 <0>        -0.1723
     20 C16         2.4322    1.4003   -0.0158 C.ar      1 <0>        -0.0710
     21 C17         2.4376    0.0180   -0.0221 C.ar      1 <0>        -0.0987
     22 C18         1.2266    3.5938    0.0072 C.3       1 <0>         0.5069
     23 F1          1.2363    4.0537    1.3284 F         1 <0>        -0.1742
     24 F2          2.3612    4.0678   -0.6600 F         1 <0>        -0.1755
     25 F3          0.0768    4.0588   -0.6400 F         1 <0>        -0.1755
     26 H1          2.5814   -8.6300   -1.8128 H         1 <0>         0.1322
     27 H2          1.7217   -9.6061   -3.8705 H         1 <0>         0.1357
     28 H3          0.5582   -9.3045   -6.0582 H         1 <0>         0.1670
     29 H4         -0.7437   -5.5450   -7.2437 H         1 <0>         0.1539
     30 H5          0.0860   -4.4870   -5.2100 H         1 <0>         0.1304
     31 H6          2.3666   -6.2245   -1.3685 H         1 <0>         0.1529
     32 H7          1.1391   -3.8050   -3.6617 H         1 <0>         0.4079
     33 H8          1.2287   -2.0334   -2.1390 H         1 <0>         0.4008
     34 H9          2.1452   -2.5469    0.4826 H         1 <0>         0.0850
     35 H10         0.3653   -2.5539    0.4993 H         1 <0>         0.0847
     36 H11        -0.8898   -0.5351    0.0058 H         1 <0>         0.1389
     37 H12        -0.8994    1.9272    0.0136 H         1 <0>         0.1402
     38 H13         3.3654    1.9440   -0.0214 H         1 <0>         0.1403
     39 H14         3.3750   -0.5183   -0.0325 H         1 <0>         0.1391
@<TRIPOS>BOND
     1    1   10 ar
     2    1    2 ar
     3    1   26 1
     4    2    3 ar
     5    2   27 1
     6    3    8 ar
     7    3    4 ar
     8    4    5 ar
     9    4   28 1
    10    5    6 ar
    11    6    7 ar
    12    6   29 1
    13    7    8 ar
    14    7   30 1
    15    8    9 ar
    16    9   10 ar
    17    9   11 1
    18   10   31 1
    19   11   12 am
    20   11   32 1
    21   12   13 2
    22   12   14 am
    23   14   15 1
    24   14   33 1
    25   15   16 1
    26   15   34 1
    27   15   35 1
    28   16   21 ar
    29   16   17 ar
    30   17   18 ar
    31   17   36 1
    32   18   19 ar
    33   18   37 1
    34   19   20 ar
    35   19   22 1
    36   20   21 ar
    37   20   38 1
    38   21   39 1
    39   22   23 1
    40   22   24 1
    41   22   25 1
@<TRIPOS>MOLECULE
ZINC26837368
   94    99     0     0     0
SMALL
USER_CHARGES

@<TRIPOS>ATOM
      1 C1         -0.0377    1.5378   -0.0219 C.3       1 <0>        -0.1523
      2 C2         -0.0087    0.0045   -0.0151 C.3       1 <0>        -0.1167
      3 H1          0.5096   -0.3274   -0.9165 H         1 <0>         0.1081
      4 C3         -1.4652   -0.4683   -0.0558 C.3       1 <0>         0.1232
      5 H2         -2.0228    0.0883    0.7077 H         1 <0>         0.1071
      6 C4         -1.6486   -1.9457    0.1947 C.3       1 <0>         0.0672
      7 C5         -0.5018   -2.7416    0.8222 C.3       1 <0>        -0.1135
      8 H3         -0.7902   -3.4576    1.6046 H         1 <0>         0.1142
      9 C6         -0.9792   -3.0469   -0.6006 C.3       1 <0>        -0.0683
     10 C7         -0.1166   -2.6765   -1.8019 C.3       1 <0>        -0.1293
     11 C8         -1.7869   -4.3461   -0.7885 C.3       1 <0>        -0.1148
     12 C9          0.8323   -2.0650    1.0363 C.3       1 <0>        -0.0316
     13 H4          1.4283   -2.2026    0.1253 H         1 <0>         0.1074
     14 C10         0.6821   -0.5509    1.2207 C.3       1 <0>         0.1916
     15 C11         2.0395    0.0002    1.5352 C.3       1 <0>        -0.0939
     16 H5          2.2616   -0.3785    2.5679 H         1 <0>         0.1144
     17 C12         2.2258    1.4792    1.6412 C.2       1 <0>        -0.0547
     18 C13         3.4342    1.8082    1.1730 C.2       1 <0>        -0.2204
     19 C14         4.1802    0.6310    0.7130 C.2       1 <0>         0.3750
     20 O1          5.3531    0.5833    0.3987 O.2       1 <0>        -0.4247
     21 C15         3.1852   -0.5127    0.6791 C.3       1 <0>         0.1105
     22 C16         3.7584   -1.8134    1.1520 C.3       1 <0>        -0.0999
     23 C17         2.9454   -2.5424    2.1581 C.2       1 <0>        -0.1455
     24 C18         1.6575   -2.6584    2.1276 C.2       1 <0>        -0.0882
     25 C19         3.6730   -3.2001    3.2981 C.3       1 <0>         0.1042
     26 O2          2.7301   -3.8468    4.1552 O.3       1 <0>        -0.3478
     27 C20         3.2207   -4.4859    5.2288 C.2       1 <0>         0.4629
     28 O3          4.4114   -4.4960    5.4339 O.2       1 <0>        -0.4931
     29 C21         2.2865   -5.1909    6.1781 C.3       1 <0>        -0.0726
     30 C22         3.0833   -5.8234    7.2899 C.ar      1 <0>        -0.0501
     31 C23         3.5555   -7.1154    7.1514 C.ar      1 <0>        -0.1220
     32 C24         4.2869   -7.7001    8.1684 C.ar      1 <0>        -0.1042
     33 C25         4.5487   -6.9908    9.3296 C.ar      1 <0>         0.0808
     34 C26         4.0738   -5.6902    9.4689 C.ar      1 <0>         0.1053
     35 C27         3.3454   -5.1084    8.4437 C.ar      1 <0>        -0.1772
     36 O4          4.3281   -4.9900   10.6066 O.3       1 <0>        -0.3065
     37 C28         3.8094   -3.6605   10.6798 C.3       1 <0>         0.0239
     38 O5          5.2677   -7.5646   10.3312 O.3       1 <0>        -0.4865
     39 O6          2.7553   -0.6677   -0.6738 O.3       1 <0>        -0.5343
     40 C29         3.9616    3.2206    1.1232 C.3       1 <0>        -0.0993
     41 O7         -0.1659   -0.3370    2.3539 O.3       1 <0>        -0.5224
     42 O8         -2.9487   -2.2807    0.7106 O.3       1 <0>        -0.3253
     43 C30        -3.2567   -1.8192    1.9329 C.2       1 <0>         0.4389
     44 O9         -2.4932   -1.0821    2.5105 O.2       1 <0>        -0.4685
     45 C31        -4.5548   -2.2206    2.5848 C.3       1 <0>        -0.1478
     46 O10        -2.0228   -0.1290   -1.3301 O.3       1 <0>        -0.3444
     47 C32        -2.6150    1.0709   -1.4362 C.2       1 <0>         0.4583
     48 O11        -2.6593    1.8093   -0.4808 O.2       1 <0>        -0.4888
     49 C33        -3.2245    1.4971   -2.7468 C.3       1 <0>        -0.0741
     50 C34        -3.8197    2.8738   -2.5999 C.ar      1 <0>        -0.0793
     51 C35        -5.1349    3.0191   -2.1998 C.ar      1 <0>        -0.1020
     52 C36        -5.6808    4.2819   -2.0650 C.ar      1 <0>        -0.1183
     53 C37        -4.9115    5.3994   -2.3300 C.ar      1 <0>        -0.1145
     54 C38        -3.5960    5.2541   -2.7293 C.ar      1 <0>        -0.1185
     55 C39        -3.0488    3.9914   -2.8599 C.ar      1 <0>        -0.1021
     56 H6          0.9829    1.9204   -0.0315 H         1 <0>         0.0667
     57 H7         -0.5651    1.8873   -0.9094 H         1 <0>         0.0591
     58 H8         -0.5514    1.8954    0.8705 H         1 <0>         0.0604
     59 H9          0.7050   -2.0385   -1.4763 H         1 <0>         0.0743
     60 H10         0.2847   -3.5832   -2.2545 H         1 <0>         0.0690
     61 H11        -0.7230   -2.1428   -2.5338 H         1 <0>         0.0737
     62 H12        -2.7168   -4.1234   -1.3117 H         1 <0>         0.0681
     63 H13        -1.2020   -5.0561   -1.3733 H         1 <0>         0.0648
     64 H14        -2.0130   -4.7777    0.1865 H         1 <0>         0.0591
     65 H15         1.5197    2.1860    2.0561 H         1 <0>         0.1530
     66 H16         3.8914   -2.4594    0.2868 H         1 <0>         0.0995
     67 H17         4.7370   -1.6128    1.5872 H         1 <0>         0.0853
     68 H18         1.1668   -3.2011    2.9124 H         1 <0>         0.1277
     69 H19         4.3726   -3.9379    2.9053 H         1 <0>         0.0806
     70 H20         4.2201   -2.4456    3.8634 H         1 <0>         0.0767
     71 H21         1.5843   -4.4710    6.5985 H         1 <0>         0.1176
     72 H22         1.7367   -5.9633    5.6403 H         1 <0>         0.1206
     73 H23         3.3522   -7.6693    6.2468 H         1 <0>         0.1296
     74 H24         4.6540   -8.7097    8.0580 H         1 <0>         0.1393
     75 H25         2.9789   -4.0978    8.5477 H         1 <0>         0.1322
     76 H26         4.2259   -3.0629    9.8689 H         1 <0>         0.0555
     77 H27         2.7235   -3.6886   10.5897 H         1 <0>         0.0567
     78 H28         4.0832   -3.2158   11.6365 H         1 <0>         0.1032
     79 H29         6.2214   -7.4203   10.2633 H         1 <0>         0.3888
     80 H30         3.4434   -0.9928   -1.2703 H         1 <0>         0.3855
     81 H31         4.4846    3.4461    2.0525 H         1 <0>         0.0719
     82 H32         4.6508    3.3217    0.2847 H         1 <0>         0.0694
     83 H33         3.1307    3.9145    0.9962 H         1 <0>         0.0708
     84 H34        -0.3674    0.5933    2.5243 H         1 <0>         0.3685
     85 H35        -4.4035   -3.1303    3.1658 H         1 <0>         0.1022
     86 H36        -4.8931   -1.4208    3.2435 H         1 <0>         0.1008
     87 H37        -5.3066   -2.4010    1.8165 H         1 <0>         0.0896
     88 H38        -2.4537    1.5149   -3.5173 H         1 <0>         0.1147
     89 H39        -4.0057    0.7919   -3.0306 H         1 <0>         0.1149
     90 H40        -5.7359    2.1460   -1.9928 H         1 <0>         0.1204
     91 H41        -6.7085    4.3954   -1.7531 H         1 <0>         0.1236
     92 H42        -5.3382    6.3860   -2.2254 H         1 <0>         0.1229
     93 H43        -2.9951    6.1272   -2.9366 H         1 <0>         0.1234
     94 H44        -2.0200    3.8780   -3.1683 H         1 <0>         0.1203
@<TRIPOS>BOND
     1    1    2 1
     2    1   56 1
     3    1   57 1
     4    1   58 1
     5    2    3 1
     6    2   14 1
     7    2    4 1
     8    4    5 1
     9    4    6 1
    10    4   46 1
    11    6    9 1
    12    6    7 1
    13    6   42 1
    14    7    8 1
    15    7    9 1
    16    7   12 1
    17    9   10 1
    18    9   11 1
    19   10   59 1
    20   10   60 1
    21   10   61 1
    22   11   62 1
    23   11   63 1
    24   11   64 1
    25   12   13 1
    26   12   24 1
    27   12   14 1
    28   14   15 1
    29   14   41 1
    30   15   16 1
    31   15   21 1
    32   15   17 1
    33   17   18 2
    34   17   65 1
    35   18   19 1
    36   18   40 1
    37   19   20 2
    38   19   21 1
    39   21   22 1
    40   21   39 1
    41   22   23 1
    42   22   66 1
    43   22   67 1
    44   23   24 2
    45   23   25 1
    46   24   68 1
    47   25   26 1
    48   25   69 1
    49   25   70 1
    50   26   27 1
    51   27   28 2
    52   27   29 1
    53   29   30 1
    54   29   71 1
    55   29   72 1
    56   30   35 ar
    57   30   31 ar
    58   31   32 ar
    59   31   73 1
    60   32   33 ar
    61   32   74 1
    62   33   34 ar
    63   33   38 1
    64   34   35 ar
    65   34   36 1
    66   35   75 1
    67   36   37 1
    68   37   76 1
    69   37   77 1
    70   37   78 1
    71   38   79 1
    72   39   80 1
    73   40   81 1
    74   40   82 1
    75   40   83 1
    76   41   84 1
    77   42   43 1
    78   43   44 2
    79   43   45 1
    80   45   85 1
    81   45   86 1
    82   45   87 1
    83   46   47 1
    84   47   48 2
    85   47   49 1
    86   49   50 1
    87   49   88 1
    88   49   89 1
    89   50   55 ar
    90   50   51 ar
    91   51   52 ar
    92   51   90 1
    93   52   53 ar
    94   52   91 1
    95   53   54 ar
    96   53   92 1
    97   54   55 ar
    98   54   93 1
    99   55   94 1
@<TRIPOS>MOLECULE
ZINC49067241
   42    45     0     0     0
SMALL
USER_CHARGES

@<TRIPOS>ATOM
      1 C1          0.0043    1.3964   -0.1191 C.ar      1 <0>        -0.1603
      2 C2          1.2066    2.0885   -0.1384 C.ar      1 <0>        -0.0312
      3 C3          2.3863    1.3636   -0.1366 C.ar      1 <0>        -0.1983
      4 C4          2.3255   -0.0281   -0.1155 C.ar      1 <0>         0.2131
      5 N1          1.1548   -0.6517   -0.0979 N.ar      1 <0>        -0.4636
      6 C5          0.0181    0.0132   -0.0987 C.ar      1 <0>         0.1318
      7 C6          3.5805   -0.8191   -0.1133 C.ar      1 <0>         0.2092
      8 C7          3.5708   -2.1162    0.4177 C.ar      1 <0>        -0.1365
      9 C8          4.7209   -2.8528    0.4245 C.ar      1 <0>        -0.0470
     10 C9          5.8844   -2.2741   -0.1083 C.ar      1 <0>        -0.1653
     11 C10         7.1107   -2.9783   -0.1349 C.ar      1 <0>         0.2279
     12 C11         8.2145   -2.3376   -0.6781 C.ar      1 <0>        -0.1941
     13 C12         8.0840   -1.0470   -1.1705 C.ar      1 <0>         0.1822
     14 N2          6.9394   -0.4043   -1.1398 N.ar      1 <0>        -0.4763
     15 C13         5.8328   -0.9590   -0.6310 C.ar      1 <0>         0.3365
     16 N3          4.6785   -0.2871   -0.6163 N.ar      1 <0>        -0.4366
     17 N4          7.2066   -4.2679    0.3665 N.pl3     1 <0>        -0.6410
     18 C14         8.4345   -4.7551    0.8032 C.ar      1 <0>         0.4091
     19 C15         8.5524   -6.0890    1.1802 C.ar      1 <0>        -0.2156
     20 C16         9.7791   -6.5602    1.6119 C.ar      1 <0>         0.0163
     21 C17        10.8509   -5.6780    1.6523 C.ar      1 <0>        -0.2825
     22 C18        10.6624   -4.3669    1.2635 C.ar      1 <0>         0.2028
     23 N5          9.4817   -3.9463    0.8512 N.ar      1 <0>        -0.5187
     24 C19        12.2058   -6.1472    2.1163 C.3       1 <0>         0.5200
     25 F1         12.9378   -6.6155    1.0199 F         1 <0>        -0.1745
     26 F2         12.8891   -5.0819    2.7126 F         1 <0>        -0.1744
     27 F3         12.0482   -7.1796    3.0472 F         1 <0>        -0.1760
     28 C20         3.7172    2.0701   -0.1576 C.3       1 <0>         0.5186
     29 F4          3.5106    3.4536   -0.1769 F         1 <0>        -0.1847
     30 F5          4.4472    1.7235    0.9845 F         1 <0>        -0.1766
     31 F6          4.4295    1.6890   -1.2998 F         1 <0>        -0.1356
     32 H1         -0.9333    1.9324   -0.1154 H         1 <0>         0.1539
     33 H2          1.2220    3.1682   -0.1548 H         1 <0>         0.1564
     34 H3         -0.9160   -0.5287   -0.0833 H         1 <0>         0.1748
     35 H4          2.6584   -2.5310    0.8200 H         1 <0>         0.1535
     36 H5          4.7353   -3.8540    0.8292 H         1 <0>         0.1398
     37 H6          9.1697   -2.8400   -0.7171 H         1 <0>         0.1672
     38 H7          8.9494   -0.5565   -1.5911 H         1 <0>         0.1717
     39 H8          6.4175   -4.8302    0.4128 H         1 <0>         0.4249
     40 H9          7.6976   -6.7477    1.1366 H         1 <0>         0.1499
     41 H10         9.9006   -7.5907    1.9111 H         1 <0>         0.1536
     42 H11        11.4931   -3.6773    1.2937 H         1 <0>         0.1757
@<TRIPOS>BOND
     1    1    6 ar
     2    1    2 ar
     3    1   32 1
     4    2    3 ar
     5    2   33 1
     6    3    4 ar
     7    3   28 1
     8    4    5 ar
     9    4    7 1
    10    5    6 ar
    11    6   34 1
    12    7   16 ar
    13    7    8 ar
    14    8    9 ar
    15    8   35 1
    16    9   10 ar
    17    9   36 1
    18   10   15 ar
    19   10   11 ar
    20   11   12 ar
    21   11   17 1
    22   12   13 ar
    23   12   37 1
    24   13   14 ar
    25   13   38 1
    26   14   15 ar
    27   15   16 ar
    28   17   18 1
    29   17   39 1
    30   18   23 ar
    31   18   19 ar
    32   19   20 ar
    33   19   40 1
    34   20   21 ar
    35   20   41 1
    36   21   22 ar
    37   21   24 1
    38   22   23 ar
    39   22   42 1
    40   24   25 1
    41   24   26 1
    42   24   27 1
    43   28   29 1
    44   28   30 1
    45   28   31 1
@<TRIPOS>MOLECULE
ZINC13836608
   73    74     0     0     0
SMALL
USER_CHARGES
[(2S)-2-[(4-tert-butylphenyl)methyl]-3-[[2-(4-hydroxy-3-methoxy-phenyl)acetyl]amino]propyl] 2,2-dimethylpropanoate
@<TRIPOS>ATOM
      1 C1         -9.0376   -2.5005   -0.4877 C.3       1 <0>        -0.1399
      2 C2         -7.6802   -2.9347   -1.0443 C.3       1 <0>        -0.0314
      3 C3         -7.8090   -3.2127   -2.5433 C.3       1 <0>        -0.1450
      4 C4         -7.2180   -4.2052   -0.3279 C.3       1 <0>        -0.1387
      5 C5         -6.6717   -1.8373   -0.8216 C.ar      1 <0>        -0.0682
      6 C6         -6.4579   -1.3429    0.4515 C.ar      1 <0>        -0.1117
      7 C7         -5.5322   -0.3369    0.6558 C.ar      1 <0>        -0.1131
      8 C8         -4.8198    0.1744   -0.4128 C.ar      1 <0>        -0.0938
      9 C9         -5.0373   -0.3164   -1.6867 C.ar      1 <0>        -0.1110
     10 C10        -5.9600   -1.3254   -1.8904 C.ar      1 <0>        -0.1187
     11 C11        -3.8105    1.2711   -0.1900 C.3       1 <0>        -0.0701
     12 C12        -2.4152    0.6592   -0.0495 C.3       1 <0>        -0.0926
     13 H1         -2.2008    0.0396   -0.9203 H         1 <0>         0.0934
     14 C13        -1.3756    1.7774    0.0492 C.3       1 <0>         0.1246
     15 N1         -0.0315    1.1947    0.0635 N.am      1 <0>        -0.7247
     16 C14         1.0495    1.9959    0.1403 C.2       1 <0>         0.5116
     17 O1          0.9095    3.1990    0.2026 O.2       1 <0>        -0.5291
     18 C15         2.4323    1.3968    0.1488 C.3       1 <0>        -0.1040
     19 C16         3.4565    2.4985    0.2405 C.ar      1 <0>        -0.0354
     20 C17         3.9654    3.0649   -0.9134 C.ar      1 <0>        -0.1259
     21 C18         4.9009    4.0797   -0.8345 C.ar      1 <0>        -0.1039
     22 C19         5.3389    4.5235    0.4029 C.ar      1 <0>         0.0749
     23 C20         4.8309    3.9494    1.5643 C.ar      1 <0>         0.1049
     24 C21         3.8892    2.9366    1.4782 C.ar      1 <0>        -0.1798
     25 O2          5.2573    4.3819    2.7811 O.3       1 <0>        -0.3076
     26 C22         4.6920    3.7471    3.9299 C.3       1 <0>         0.0249
     27 O3          6.2629    5.5181    0.4822 O.3       1 <0>        -0.4863
     28 C23        -2.3605   -0.2010    1.2145 C.3       1 <0>         0.0673
     29 O4         -1.0868   -0.8959    1.2724 O.3       1 <0>        -0.3591
     30 C24        -0.9212   -1.7830    2.2660 C.2       1 <0>         0.4706
     31 O5         -1.8415   -2.0410    3.0052 O.2       1 <0>        -0.5000
     32 C25         0.4126   -2.4572    2.4596 C.3       1 <0>        -0.0569
     33 C26         0.2939   -3.5170    3.5567 C.3       1 <0>        -0.1359
     34 C27         0.8420   -3.1236    1.1510 C.3       1 <0>        -0.1430
     35 C28         1.4562   -1.4154    2.8678 C.3       1 <0>        -0.1443
     36 H2         -9.3669   -1.5954   -0.9980 H         1 <0>         0.0567
     37 H3         -9.7671   -3.2943   -0.6487 H         1 <0>         0.0594
     38 H4         -8.9459   -2.3025    0.5803 H         1 <0>         0.0570
     39 H5         -6.8419   -3.5220   -2.9398 H         1 <0>         0.0586
     40 H6         -8.5384   -4.0064   -2.7043 H         1 <0>         0.0592
     41 H7         -8.1382   -2.3076   -3.0537 H         1 <0>         0.0587
     42 H8         -7.2112   -4.0333    0.7485 H         1 <0>         0.0566
     43 H9         -7.9005   -5.0225   -0.5610 H         1 <0>         0.0596
     44 H10        -6.2131   -4.4649   -0.6608 H         1 <0>         0.0556
     45 H11        -7.0140   -1.7428    1.2865 H         1 <0>         0.1207
     46 H12        -5.3652    0.0494    1.6505 H         1 <0>         0.1201
     47 H13        -4.4839    0.0861   -2.5223 H         1 <0>         0.1216
     48 H14        -6.1267   -1.7119   -2.8850 H         1 <0>         0.1265
     49 H15        -4.0614    1.8164    0.7198 H         1 <0>         0.0804
     50 H16        -3.8236    1.9548   -1.0388 H         1 <0>         0.0893
     51 H17        -1.5362    2.3429    0.9670 H         1 <0>         0.0691
     52 H18        -1.4743    2.4421   -0.8091 H         1 <0>         0.0743
     53 H19         0.0805    0.2325    0.0137 H         1 <0>         0.4066
     54 H20         2.5353    0.7326    1.0070 H         1 <0>         0.1027
     55 H21         2.5887    0.8308   -0.7695 H         1 <0>         0.1068
     56 H22         3.6281    2.7169   -1.8785 H         1 <0>         0.1273
     57 H23         5.2936    4.5235   -1.7374 H         1 <0>         0.1371
     58 H24         3.4936    2.4892    2.3781 H         1 <0>         0.1295
     59 H25         4.9162    2.6808    3.9029 H         1 <0>         0.0550
     60 H26         5.1171    4.1851    4.8330 H         1 <0>         0.1018
     61 H27         3.6116    3.8914    3.9299 H         1 <0>         0.0557
     62 H28         7.1778    5.2052    0.4916 H         1 <0>         0.3861
     63 H29        -2.4670    0.4361    2.0925 H         1 <0>         0.0719
     64 H30        -3.1711   -0.9294    1.1937 H         1 <0>         0.0819
     65 H31        -0.4496   -4.2592    3.2659 H         1 <0>         0.0644
     66 H32         1.2586   -4.0046    3.6967 H         1 <0>         0.0723
     67 H33        -0.0120   -3.0423    4.4890 H         1 <0>         0.0659
     68 H34         1.0115   -2.3593    0.3926 H         1 <0>         0.0687
     69 H35         1.7623   -3.6844    1.3138 H         1 <0>         0.0741
     70 H36         0.0579   -3.8018    0.8144 H         1 <0>         0.0618
     71 H37         1.1503   -0.9406    3.8001 H         1 <0>         0.0623
     72 H38         2.4209   -1.9030    3.0078 H         1 <0>         0.0771
     73 H39         1.5407   -0.6603    2.0862 H         1 <0>         0.0654
@<TRIPOS>BOND
     1    1    2 1
     2    1   36 1
     3    1   37 1
     4    1   38 1
     5    2    3 1
     6    2    4 1
     7    2    5 1
     8    3   39 1
     9    3   40 1
    10    3   41 1
    11    4   42 1
    12    4   43 1
    13    4   44 1
    14    5   10 ar
    15    5    6 ar
    16    6    7 ar
    17    6   45 1
    18    7    8 ar
    19    7   46 1
    20    8    9 ar
    21    8   11 1
    22    9   10 ar
    23    9   47 1
    24   10   48 1
    25   11   12 1
    26   11   49 1
    27   11   50 1
    28   12   13 1
    29   12   14 1
    30   12   28 1
    31   14   15 1
    32   14   51 1
    33   14   52 1
    34   15   16 am
    35   15   53 1
    36   16   17 2
    37   16   18 1
    38   18   19 1
    39   18   54 1
    40   18   55 1
    41   19   24 ar
    42   19   20 ar
    43   20   21 ar
    44   20   56 1
    45   21   22 ar
    46   21   57 1
    47   22   23 ar
    48   22   27 1
    49   23   24 ar
    50   23   25 1
    51   24   58 1
    52   25   26 1
    53   26   59 1
    54   26   60 1
    55   26   61 1
    56   27   62 1
    57   28   29 1
    58   28   63 1
    59   28   64 1
    60   29   30 1
    61   30   31 2
    62   30   32 1
    63   32   33 1
    64   32   34 1
    65   32   35 1
    66   33   65 1
    67   33   66 1
    68   33   67 1
    69   34   68 1
    70   34   69 1
    71   34   70 1
    72   35   71 1
    73   35   72 1
    74   35   73 1
@<TRIPOS>MOLECULE
ZINC13836609
   73    74     0     0     0
SMALL
USER_CHARGES
[(2R)-2-[(4-tert-butylphenyl)methyl]-3-[[2-(4-hydroxy-3-methoxy-phenyl)acetyl]amino]propyl] 2,2-dimethylpropanoate
@<TRIPOS>ATOM
      1 C1          0.1260   -6.7070   -3.0060 C.3       1 <0>        -0.1391
      2 C2          0.2545   -6.2619   -1.5478 C.3       1 <0>        -0.0314
      3 C3          1.5161   -6.8751   -0.9367 C.3       1 <0>        -0.1458
      4 C4         -0.9720   -6.7297   -0.7618 C.3       1 <0>        -0.1388
      5 C5          0.3466   -4.7590   -1.4875 C.ar      1 <0>        -0.0681
      6 C6         -0.6841   -3.9829   -1.9840 C.ar      1 <0>        -0.1129
      7 C7         -0.6000   -2.6043   -1.9279 C.ar      1 <0>        -0.1105
      8 C8          0.5145   -2.0017   -1.3750 C.ar      1 <0>        -0.0935
      9 C9          1.5474   -2.7777   -0.8833 C.ar      1 <0>        -0.1142
     10 C10         1.4614   -4.1563   -0.9355 C.ar      1 <0>        -0.1177
     11 C11         0.6061   -0.4987   -1.3138 C.3       1 <0>        -0.0701
     12 C12         0.0021   -0.0041    0.0020 C.3       1 <0>        -0.0924
     13 H1         -1.0158   -0.3818    0.0993 H         1 <0>         0.0933
     14 C13        -0.0187    1.5258    0.0104 C.3       1 <0>         0.1245
     15 N1         -0.7044    1.9982    1.2158 N.am      1 <0>        -0.7247
     16 C14        -0.8434    3.3203    1.4375 C.2       1 <0>         0.5115
     17 O1         -0.4009    4.1189    0.6392 O.2       1 <0>        -0.5289
     18 C15        -1.5488    3.8063    2.6774 C.3       1 <0>        -0.1056
     19 C16        -1.5692    5.3132    2.6856 C.ar      1 <0>        -0.0352
     20 C17        -0.5382    6.0137    3.2836 C.ar      1 <0>        -0.1260
     21 C18        -0.5495    7.3960    3.2889 C.ar      1 <0>        -0.1038
     22 C19        -1.6014    8.0825    2.7039 C.ar      1 <0>         0.0749
     23 C20        -2.6421    7.3774    2.1070 C.ar      1 <0>         0.1052
     24 C21        -2.6218    5.9919    2.1003 C.ar      1 <0>        -0.1799
     25 O2         -3.6765    8.0465    1.5312 O.3       1 <0>        -0.3077
     26 C22        -4.7092    7.2574    0.9371 C.3       1 <0>         0.0248
     27 O3         -1.6171    9.4423    2.7135 O.3       1 <0>        -0.4863
     28 C23         0.8475   -0.5091    1.1729 C.3       1 <0>         0.0667
     29 O4          0.2103   -0.1405    2.4245 O.3       1 <0>        -0.3591
     30 C24         0.8294   -0.5118    3.5561 C.2       1 <0>         0.4706
     31 O5          1.8694   -1.1246    3.5026 O.2       1 <0>        -0.5004
     32 C25         0.2275   -0.1644    4.8932 C.3       1 <0>        -0.0566
     33 C26         1.1247   -0.6997    6.0110 C.3       1 <0>        -0.1359
     34 C27         0.1077    1.3557    5.0192 C.3       1 <0>        -0.1462
     35 C28        -1.1612   -0.7966    5.0071 C.3       1 <0>        -0.1435
     36 H2          0.9998   -6.3738   -3.5659 H         1 <0>         0.0565
     37 H3          0.0594   -7.7941   -3.0495 H         1 <0>         0.0594
     38 H4         -0.7728   -6.2702   -3.4413 H         1 <0>         0.0569
     39 H5          1.6076   -6.5580    0.1022 H         1 <0>         0.0585
     40 H6          1.4495   -7.9622   -0.9802 H         1 <0>         0.0594
     41 H7          2.3899   -6.5418   -1.4966 H         1 <0>         0.0589
     42 H8         -1.8708   -6.2929   -1.1971 H         1 <0>         0.0568
     43 H9         -1.0386   -7.8168   -0.8054 H         1 <0>         0.0595
     44 H10        -0.8805   -6.4126    0.2770 H         1 <0>         0.0558
     45 H11        -1.5551   -4.4537   -2.4153 H         1 <0>         0.1209
     46 H12        -1.4052   -1.9980   -2.3158 H         1 <0>         0.1217
     47 H13         2.4201   -2.3068   -0.4553 H         1 <0>         0.1204
     48 H14         2.2665   -4.7627   -0.5473 H         1 <0>         0.1264
     49 H15         0.0570   -0.0669   -2.1506 H         1 <0>         0.0887
     50 H16         1.6516   -0.1958   -1.3702 H         1 <0>         0.0810
     51 H17         1.0039    1.9031    0.0027 H         1 <0>         0.0696
     52 H18        -0.5459    1.8868   -0.8726 H         1 <0>         0.0739
     53 H19        -1.0583    1.3595    1.8542 H         1 <0>         0.4065
     54 H20        -2.5714    3.4291    2.6851 H         1 <0>         0.1037
     55 H21        -1.0216    3.4453    3.5604 H         1 <0>         0.1066
     56 H22         0.2799    5.4798    3.7441 H         1 <0>         0.1265
     57 H23         0.2592    7.9409    3.7531 H         1 <0>         0.1369
     58 H24        -3.4284    5.4422    1.6380 H         1 <0>         0.1301
     59 H25        -5.4707    7.9135    0.5154 H         1 <0>         0.1019
     60 H26        -4.2845    6.6387    0.1467 H         1 <0>         0.0560
     61 H27        -5.1602    6.6183    1.6962 H         1 <0>         0.0551
     62 H28        -2.0558    9.8252    3.4855 H         1 <0>         0.3861
     63 H29         0.9359   -1.5940    1.1159 H         1 <0>         0.0815
     64 H30         1.8399   -0.0607    1.1246 H         1 <0>         0.0728
     65 H31         2.1140   -0.2493    5.9299 H         1 <0>         0.0651
     66 H32         0.6893   -0.4484    6.9781 H         1 <0>         0.0723
     67 H33         1.2100   -1.7826    5.9213 H         1 <0>         0.0652
     68 H34        -0.5315    1.7370    4.2229 H         1 <0>         0.0659
     69 H35        -0.3277    1.6069    5.9863 H         1 <0>         0.0772
     70 H36         1.0970    1.8060    4.9381 H         1 <0>         0.0632
     71 H37        -1.0759   -1.8795    4.9174 H         1 <0>         0.0618
     72 H38        -1.5966   -0.5453    5.9742 H         1 <0>         0.0750
     73 H39        -1.8004   -0.4153    4.2108 H         1 <0>         0.0689
@<TRIPOS>BOND
     1    1    2 1
     2    1   36 1
     3    1   37 1
     4    1   38 1
     5    2    3 1
     6    2    4 1
     7    2    5 1
     8    3   39 1
     9    3   40 1
    10    3   41 1
    11    4   42 1
    12    4   43 1
    13    4   44 1
    14    5   10 ar
    15    5    6 ar
    16    6    7 ar
    17    6   45 1
    18    7    8 ar
    19    7   46 1
    20    8    9 ar
    21    8   11 1
    22    9   10 ar
    23    9   47 1
    24   10   48 1
    25   11   12 1
    26   11   49 1
    27   11   50 1
    28   12   13 1
    29   12   14 1
    30   12   28 1
    31   14   15 1
    32   14   51 1
    33   14   52 1
    34   15   16 am
    35   15   53 1
    36   16   17 2
    37   16   18 1
    38   18   19 1
    39   18   54 1
    40   18   55 1
    41   19   24 ar
    42   19   20 ar
    43   20   21 ar
    44   20   56 1
    45   21   22 ar
    46   21   57 1
    47   22   23 ar
    48   22   27 1
    49   23   24 ar
    50   23   25 1
    51   24   58 1
    52   25   26 1
    53   26   59 1
    54   26   60 1
    55   26   61 1
    56   27   62 1
    57   28   29 1
    58   28   63 1
    59   28   64 1
    60   29   30 1
    61   30   31 2
    62   30   32 1
    63   32   33 1
    64   32   34 1
    65   32   35 1
    66   33   65 1
    67   33   66 1
    68   33   67 1
    69   34   68 1
    70   34   69 1
    71   34   70 1
    72   35   71 1
    73   35   72 1
    74   35   73 1
@<TRIPOS>MOLECULE
ZINC03809850
   62    61     0     0     0
SMALL
USER_CHARGES

@<TRIPOS>ATOM
      1 C1         -2.2312    2.9666    0.4945 C.3       1 <0>        -0.1543
      2 C2         -2.1773    1.4868    0.1097 C.3       1 <0>        -0.1260
      3 C3         -3.4636    0.7944    0.5647 C.3       1 <0>        -0.1214
      4 C4         -3.4097   -0.6855    0.1800 C.3       1 <0>        -0.1146
      5 C5         -4.6960   -1.3779    0.6349 C.3       1 <0>        -0.1025
      6 C6         -4.6429   -2.8355    0.2560 C.2       1 <0>        -0.1582
      7 C7         -4.8635   -3.7561    1.1614 C.2       1 <0>        -0.1534
      8 C8         -5.3306   -3.3617    2.5389 C.3       1 <0>        -0.0837
      9 C9         -6.5867   -4.1212    2.8800 C.2       1 <0>        -0.1511
     10 C10        -6.6608   -4.7947    4.0011 C.2       1 <0>        -0.1520
     11 C11        -5.5599   -4.6791    5.0237 C.3       1 <0>        -0.0839
     12 C12        -6.1510   -4.3020    6.3577 C.2       1 <0>        -0.1519
     13 C13        -5.8856   -5.0225    7.4190 C.2       1 <0>        -0.1513
     14 C14        -4.8547   -6.1194    7.3465 C.3       1 <0>        -0.0836
     15 C15        -3.8385   -5.9270    8.4425 C.2       1 <0>        -0.1524
     16 C16        -3.5758   -6.9066    9.2716 C.2       1 <0>        -0.1566
     17 C17        -4.1634   -8.2737    9.0331 C.3       1 <0>        -0.1019
     18 C18        -3.0466   -9.3192    9.0518 C.3       1 <0>        -0.0985
     19 C19        -3.6432  -10.7071    8.8097 C.3       1 <0>        -0.1408
     20 C20        -2.5431  -11.7370    8.8281 C.2       1 <0>         0.5104
     21 O1         -1.3950  -11.3946    9.0165 O.2       1 <0>        -0.5404
     22 N1         -2.8352  -13.0385    8.6354 N.am      1 <0>        -0.7286
     23 C21        -1.7658  -14.0397    8.6533 C.3       1 <0>         0.1176
     24 C22        -2.3624  -15.4276    8.4112 C.3       1 <0>         0.0628
     25 O2         -2.9130  -15.4861    7.0938 O.3       1 <0>        -0.5722
     26 H1         -1.3148    3.4599    0.1703 H         1 <0>         0.0535
     27 H2         -3.0875    3.4368    0.0110 H         1 <0>         0.0534
     28 H3         -2.3296    3.0574    1.5762 H         1 <0>         0.0534
     29 H4         -2.0789    1.3959   -0.9720 H         1 <0>         0.0605
     30 H5         -1.3210    1.0166    0.5932 H         1 <0>         0.0606
     31 H6         -3.5620    0.8852    1.6464 H         1 <0>         0.0610
     32 H7         -4.3199    1.2645    0.0812 H         1 <0>         0.0613
     33 H8         -3.3113   -0.7763   -0.9018 H         1 <0>         0.0616
     34 H9         -2.5534   -1.1557    0.6635 H         1 <0>         0.0621
     35 H10        -4.7944   -1.2871    1.7167 H         1 <0>         0.0756
     36 H11        -5.5523   -0.9077    0.1514 H         1 <0>         0.0687
     37 H12        -4.4230   -3.1211   -0.7621 H         1 <0>         0.1088
     38 H13        -4.7107   -4.7978    0.9208 H         1 <0>         0.1086
     39 H14        -4.5545   -3.5973    3.2670 H         1 <0>         0.0830
     40 H15        -5.5360   -2.2914    2.5602 H         1 <0>         0.0840
     41 H16        -7.4259   -4.1101    2.2002 H         1 <0>         0.1096
     42 H17        -7.5108   -5.4329    4.1925 H         1 <0>         0.1098
     43 H18        -5.0443   -5.6354    5.1121 H         1 <0>         0.0835
     44 H19        -4.8518   -3.9121    4.7102 H         1 <0>         0.0834
     45 H20        -6.7935   -3.4376    6.4387 H         1 <0>         0.1097
     46 H21        -6.4054   -4.8305    8.3460 H         1 <0>         0.1098
     47 H22        -5.3434   -7.0860    7.4698 H         1 <0>         0.0837
     48 H23        -4.3556   -6.0855    6.3781 H         1 <0>         0.0830
     49 H24        -3.3267   -4.9814    8.5444 H         1 <0>         0.1092
     50 H25        -2.9381   -6.7345   10.1261 H         1 <0>         0.1103
     51 H26        -4.8864   -8.5002    9.8168 H         1 <0>         0.0705
     52 H27        -4.6612   -8.2911    8.0635 H         1 <0>         0.0766
     53 H28        -2.3236   -9.0927    8.2682 H         1 <0>         0.0711
     54 H29        -2.5488   -9.3018   10.0214 H         1 <0>         0.0706
     55 H30        -4.3661  -10.9337    9.5933 H         1 <0>         0.0937
     56 H31        -4.1409  -10.7245    7.8401 H         1 <0>         0.0940
     57 H32        -3.7534  -13.3124    8.4848 H         1 <0>         0.4035
     58 H33        -1.0428  -13.8132    7.8697 H         1 <0>         0.0752
     59 H34        -1.2680  -14.0223    9.6229 H         1 <0>         0.0823
     60 H35        -1.5816  -16.1814    8.5125 H         1 <0>         0.0647
     61 H36        -3.1482  -15.6179    9.1422 H         1 <0>         0.0540
     62 H37        -3.3095  -16.3394    6.8708 H         1 <0>         0.3841
@<TRIPOS>BOND
     1    1    2 1
     2    1   26 1
     3    1   27 1
     4    1   28 1
     5    2    3 1
     6    2   29 1
     7    2   30 1
     8    3    4 1
     9    3   31 1
    10    3   32 1
    11    4    5 1
    12    4   33 1
    13    4   34 1
    14    5    6 1
    15    5   35 1
    16    5   36 1
    17    6    7 2
    18    6   37 1
    19    7    8 1
    20    7   38 1
    21    8    9 1
    22    8   39 1
    23    8   40 1
    24    9   10 2
    25    9   41 1
    26   10   11 1
    27   10   42 1
    28   11   12 1
    29   11   43 1
    30   11   44 1
    31   12   13 2
    32   12   45 1
    33   13   14 1
    34   13   46 1
    35   14   15 1
    36   14   47 1
    37   14   48 1
    38   15   16 2
    39   15   49 1
    40   16   17 1
    41   16   50 1
    42   17   18 1
    43   17   51 1
    44   17   52 1
    45   18   19 1
    46   18   53 1
    47   18   54 1
    48   19   20 1
    49   19   55 1
    50   19   56 1
    51   20   21 2
    52   20   22 am
    53   22   23 1
    54   22   57 1
    55   23   24 1
    56   23   58 1
    57   23   59 1
    58   24   25 1
    59   24   60 1
    60   24   61 1
    61   25   62 1
@<TRIPOS>MOLECULE
ZINC08036052
   48    48     0     0     0
SMALL
USER_CHARGES
N-[(4-hydroxy-2-iodo-5-methoxy-phenyl)methyl]nonanamide
@<TRIPOS>ATOM
      1 C1         -4.3006   10.3515    0.0787 C.3       1 <0>        -0.1544
      2 C2         -4.5597    8.8436    0.0717 C.3       1 <0>        -0.1259
      3 C3         -3.2245    8.0967    0.0614 C.3       1 <0>        -0.1217
      4 C4         -3.4836    6.5888    0.0544 C.3       1 <0>        -0.1206
      5 C5         -2.1484    5.8419    0.0440 C.3       1 <0>        -0.1205
      6 C6         -2.4075    4.3340    0.0370 C.3       1 <0>        -0.1202
      7 C7         -1.0722    3.5871    0.0266 C.3       1 <0>        -0.1043
      8 C8         -1.3314    2.0792    0.0197 C.3       1 <0>        -0.1407
      9 C9         -0.0162    1.3436    0.0094 C.2       1 <0>         0.5160
     10 O1          1.0258    1.9642    0.0028 O.2       1 <0>        -0.5349
     11 N1          0.0021   -0.0041    0.0020 N.am      1 <0>        -0.7265
     12 C10         1.2806   -0.7192   -0.0140 C.3       1 <0>         0.1520
     13 C11         1.0253   -2.2044   -0.0196 C.ar      1 <0>        -0.0445
     14 C12         1.2031   -2.9307   -1.1828 C.ar      1 <0>        -0.1741
     15 C13         0.9689   -4.2960   -1.1897 C.ar      1 <0>         0.1237
     16 C14         0.5547   -4.9341   -0.0240 C.ar      1 <0>         0.0880
     17 C15         0.3784   -4.2012    1.1381 C.ar      1 <0>        -0.0726
     18 C16         0.6193   -2.8389    1.1398 C.ar      1 <0>        -0.1148
     19 I1          0.3610   -1.7338    2.9008 I         1 <0>        -0.0223
     20 O2          0.3232   -6.2742   -0.0262 O.3       1 <0>        -0.4806
     21 O3          1.1429   -5.0114   -2.3331 O.3       1 <0>        -0.3012
     22 C17         1.5689   -4.2904   -3.4910 C.3       1 <0>         0.0211
     23 H1         -3.7284   10.6177    0.9674 H         1 <0>         0.0534
     24 H2         -3.7369   10.6274   -0.8125 H         1 <0>         0.0533
     25 H3         -5.2519   10.8836    0.0861 H         1 <0>         0.0533
     26 H4         -5.1319    8.5774   -0.8170 H         1 <0>         0.0601
     27 H5         -5.1235    8.5677    0.9629 H         1 <0>         0.0601
     28 H6         -2.6523    8.3629    0.9501 H         1 <0>         0.0609
     29 H7         -2.6608    8.3726   -0.8298 H         1 <0>         0.0608
     30 H8         -4.0558    6.3226   -0.8344 H         1 <0>         0.0605
     31 H9         -4.0473    6.3129    0.9456 H         1 <0>         0.0606
     32 H10        -1.5762    6.1081    0.9327 H         1 <0>         0.0622
     33 H11        -1.5846    6.1178   -0.8472 H         1 <0>         0.0619
     34 H12        -2.9797    4.0678   -0.8517 H         1 <0>         0.0618
     35 H13        -2.9712    4.0581    0.9282 H         1 <0>         0.0622
     36 H14        -0.5001    3.8533    0.9154 H         1 <0>         0.0700
     37 H15        -0.5085    3.8630   -0.8645 H         1 <0>         0.0694
     38 H16        -1.9035    1.8130   -0.8691 H         1 <0>         0.0932
     39 H17        -1.8951    1.8033    0.9108 H         1 <0>         0.0946
     40 H18        -0.8313   -0.5005    0.0073 H         1 <0>         0.4016
     41 H19         1.8400   -0.4434   -0.9079 H         1 <0>         0.0823
     42 H20         1.8570   -0.4529    0.8719 H         1 <0>         0.0883
     43 H21         1.5242   -2.4334   -2.0861 H         1 <0>         0.1441
     44 H22         0.0574   -4.6940    2.0439 H         1 <0>         0.1462
     45 H23         1.0994   -6.8077    0.1928 H         1 <0>         0.3926
     46 H24         1.6687   -4.9780   -4.3309 H         1 <0>         0.1066
     47 H25         0.8321   -3.5248   -3.7338 H         1 <0>         0.0594
     48 H26         2.5310   -3.8185   -3.2916 H         1 <0>         0.0596
@<TRIPOS>BOND
     1    1    2 1
     2    1   23 1
     3    1   24 1
     4    1   25 1
     5    2    3 1
     6    2   26 1
     7    2   27 1
     8    3    4 1
     9    3   28 1
    10    3   29 1
    11    4    5 1
    12    4   30 1
    13    4   31 1
    14    5    6 1
    15    5   32 1
    16    5   33 1
    17    6    7 1
    18    6   34 1
    19    6   35 1
    20    7    8 1
    21    7   36 1
    22    7   37 1
    23    8    9 1
    24    8   38 1
    25    8   39 1
    26    9   10 2
    27    9   11 am
    28   11   12 1
    29   11   40 1
    30   12   13 1
    31   12   41 1
    32   12   42 1
    33   13   18 ar
    34   13   14 ar
    35   14   15 ar
    36   14   43 1
    37   15   16 ar
    38   15   21 1
    39   16   17 ar
    40   16   20 1
    41   17   18 ar
    42   17   44 1
    43   18   19 1
    44   20   45 1
    45   21   22 1
    46   22   46 1
    47   22   47 1
    48   22   48 1
@<TRIPOS>MOLECULE
ZINC12369679
   44    46     0     0     0
SMALL
USER_CHARGES
2-[(2,6-dichlorophenyl)methyl]-N-(4-isopropylphenyl)thiazole-4-carboxamide
@<TRIPOS>ATOM
      1 C1          1.1474    4.0864    1.4907 C.3       1 <0>        -0.1450
      2 C2          1.1486    3.5926    0.0426 C.3       1 <0>        -0.0559
      3 C3          2.3862    4.1302   -0.6786 C.3       1 <0>        -0.1455
      4 C4          1.1723    2.0858    0.0257 C.ar      1 <0>        -0.0889
      5 C5          0.1425    1.3864   -0.5765 C.ar      1 <0>        -0.0994
      6 C6          0.1612    0.0055   -0.5937 C.ar      1 <0>        -0.1390
      7 C7          1.2158   -0.6806   -0.0053 C.ar      1 <0>         0.1375
      8 C8          2.2485    0.0250    0.5986 C.ar      1 <0>        -0.1170
      9 C9          2.2237    1.4058    0.6123 C.ar      1 <0>        -0.0964
     10 N1          1.2375   -2.0789   -0.0205 N.am      1 <0>        -0.6557
     11 C10         2.4099   -2.7334   -0.1370 C.2       1 <0>         0.5958
     12 O1          3.4554   -2.1117   -0.1443 O.2       1 <0>        -0.5158
     13 C11         2.4251   -4.2009   -0.2555 C.2       1 <0>        -0.0096
     14 C12         3.6035   -4.8923   -0.3805 C.2       1 <0>        -0.1676
     15 S1          3.0362   -6.5292   -0.4751 S.3       1 <0>         0.1568
     16 C13         1.3359   -6.2097   -0.3574 C.2       1 <0>         0.0744
     17 N2          1.2935   -4.9070   -0.2508 N.2       1 <0>        -0.4666
     18 C14         0.1913   -7.1899   -0.3740 C.3       1 <0>         0.0027
     19 C15        -0.2668   -7.4033   -1.7937 C.ar      1 <0>        -0.0764
     20 C16        -1.2576   -6.6001   -2.3292 C.ar      1 <0>        -0.0107
     21 C17        -1.6734   -6.7925   -3.6347 C.ar      1 <0>        -0.1050
     22 C18        -1.1077   -7.7949   -4.3999 C.ar      1 <0>        -0.0883
     23 C19        -0.1216   -8.6015   -3.8636 C.ar      1 <0>        -0.1038
     24 C20         0.2994   -8.4061   -2.5601 C.ar      1 <0>        -0.0191
     25 Cl1         1.5382   -9.4188   -1.8869 Cl        1 <0>        -0.0480
     26 Cl2        -1.9737   -5.3460   -1.3658 Cl        1 <0>        -0.0407
     27 H1          2.0454    3.7315    1.9963 H         1 <0>         0.0568
     28 H2          1.1303    5.1762    1.5029 H         1 <0>         0.0582
     29 H3          0.2657    3.7034    2.0044 H         1 <0>         0.0558
     30 H4          0.2506    3.9475   -0.4631 H         1 <0>         0.0770
     31 H5          3.2842    3.7752   -0.1730 H         1 <0>         0.0570
     32 H6          2.3871    3.7784   -1.7103 H         1 <0>         0.0558
     33 H7          2.3691    5.2200   -0.6664 H         1 <0>         0.0582
     34 H8         -0.6749    1.9205   -1.0378 H         1 <0>         0.1255
     35 H9         -0.6435   -0.5402   -1.0638 H         1 <0>         0.1246
     36 H10         3.0697   -0.5056    1.0574 H         1 <0>         0.1381
     37 H11         3.0265    1.9550    1.0818 H         1 <0>         0.1246
     38 H12         0.4088   -2.5777    0.0528 H         1 <0>         0.4194
     39 H13         4.6158   -4.5171   -0.4108 H         1 <0>         0.2097
     40 H14         0.5200   -8.1395    0.0483 H         1 <0>         0.1128
     41 H15        -0.6338   -6.7949    0.2186 H         1 <0>         0.1205
     42 H16        -2.4433   -6.1621   -4.0546 H         1 <0>         0.1434
     43 H17        -1.4359   -7.9478   -5.4174 H         1 <0>         0.1456
     44 H18         0.3206   -9.3842   -4.4621 H         1 <0>         0.1443
@<TRIPOS>BOND
     1    1    2 1
     2    1   27 1
     3    1   28 1
     4    1   29 1
     5    2    3 1
     6    2    4 1
     7    2   30 1
     8    3   31 1
     9    3   32 1
    10    3   33 1
    11    4    9 ar
    12    4    5 ar
    13    5    6 ar
    14    5   34 1
    15    6    7 ar
    16    6   35 1
    17    7    8 ar
    18    7   10 1
    19    8    9 ar
    20    8   36 1
    21    9   37 1
    22   10   11 am
    23   10   38 1
    24   11   12 2
    25   11   13 1
    26   13   17 1
    27   13   14 2
    28   14   15 1
    29   14   39 1
    30   15   16 1
    31   16   17 2
    32   16   18 1
    33   18   19 1
    34   18   40 1
    35   18   41 1
    36   19   24 ar
    37   19   20 ar
    38   20   21 ar
    39   20   26 1
    40   21   22 ar
    41   21   42 1
    42   22   23 ar
    43   22   43 1
    44   23   24 ar
    45   23   44 1
    46   24   25 1
@<TRIPOS>MOLECULE
ZINC13985502
   42    44     0     0     0
SMALL
USER_CHARGES

@<TRIPOS>ATOM
      1 C1          0.1353    1.3777   -0.6159 C.ar      1 <0>        -0.0842
      2 C2          1.1679    2.0864   -0.0294 C.ar      1 <0>        -0.1294
      3 C3          2.2237    1.4157    0.5596 C.ar      1 <0>        -0.0723
      4 C4          2.2498    0.0339    0.5642 C.ar      1 <0>        -0.1235
      5 C5          1.2135   -0.6806   -0.0238 C.ar      1 <0>         0.1920
      6 C6          0.1552   -0.0033   -0.6147 C.ar      1 <0>        -0.1149
      7 N1          1.2368   -2.0803   -0.0215 N.am      1 <0>        -0.6840
      8 C7          0.0860   -2.7732    0.0880 C.2       1 <0>         0.7100
      9 O1         -0.9784   -2.1856    0.1023 O.2       1 <0>        -0.5655
     10 N2          0.1150   -4.1174    0.1816 N.am      1 <0>        -0.7317
     11 C8         -1.1359   -4.8705    0.3005 C.3       1 <0>         0.1509
     12 H1         -1.9304   -4.3883   -0.2689 H         1 <0>         0.1167
     13 C9         -1.5439   -5.0255    1.7895 C.3       1 <0>        -0.1434
     14 C10        -0.6911   -6.2448    2.2204 C.3       1 <0>         0.1115
     15 N3         -0.6866   -7.1361    1.0461 N.pl3     1 <0>        -0.6096
     16 C11        -0.9408   -6.3297   -0.1624 C.3       1 <0>         0.1119
     17 C12        -0.4768   -8.5099    1.0727 C.ar      1 <0>         0.4480
     18 C13        -0.3568   -9.1656    2.2940 C.ar      1 <0>        -0.2364
     19 C14        -0.1483  -10.5327    2.3057 C.ar      1 <0>         0.0177
     20 C15        -0.0665  -11.2012    1.0911 C.ar      1 <0>        -0.3049
     21 C16        -0.1946  -10.4875   -0.0834 C.ar      1 <0>         0.2112
     22 N4         -0.3984   -9.1837   -0.0643 N.ar      1 <0>        -0.5393
     23 C17         0.1604  -12.6906    1.0557 C.3       1 <0>         0.5212
     24 F1         -1.0732  -13.3505    1.0665 F         1 <0>        -0.1775
     25 F2          0.8597  -13.0283   -0.1079 F         1 <0>        -0.1774
     26 F3          0.9051  -13.0756    2.1757 F         1 <0>        -0.1785
     27 Br1         3.6943   -0.8831    1.3694 Br        1 <0>        -0.0467
     28 H2         -0.6900    1.9047   -1.0715 H         1 <0>         0.1341
     29 H3          1.1497    3.1663   -0.0318 H         1 <0>         0.1340
     30 H4          3.0289    1.9720    1.0161 H         1 <0>         0.1369
     31 H5         -0.6519   -0.5559   -1.0727 H         1 <0>         0.1508
     32 H6          2.0812   -2.5514   -0.0986 H         1 <0>         0.4096
     33 H7          0.9642   -4.5861    0.1701 H         1 <0>         0.4003
     34 H8         -1.2748   -4.1383    2.3626 H         1 <0>         0.0938
     35 H9         -2.6084   -5.2407    1.8825 H         1 <0>         0.0923
     36 H10         0.3243   -5.9310    2.4624 H         1 <0>         0.0710
     37 H11        -1.1483   -6.7447    3.0743 H         1 <0>         0.0816
     38 H12        -1.8421   -6.6835   -0.6630 H         1 <0>         0.0881
     39 H13        -0.0890   -6.3931   -0.8395 H         1 <0>         0.0793
     40 H14        -0.4251   -8.6144    3.2202 H         1 <0>         0.1418
     41 H15        -0.0509  -11.0684    3.2384 H         1 <0>         0.1467
     42 H16        -0.1312  -11.0033   -1.0301 H         1 <0>         0.1682
@<TRIPOS>BOND
     1    1    6 ar
     2    1    2 ar
     3    1   28 1
     4    2    3 ar
     5    2   29 1
     6    3    4 ar
     7    3   30 1
     8    4    5 ar
     9    4   27 1
    10    5    6 ar
    11    5    7 1
    12    6   31 1
    13    7    8 am
    14    7   32 1
    15    8    9 2
    16    8   10 am
    17   10   11 1
    18   10   33 1
    19   11   12 1
    20   11   16 1
    21   11   13 1
    22   13   14 1
    23   13   34 1
    24   13   35 1
    25   14   15 1
    26   14   36 1
    27   14   37 1
    28   15   16 1
    29   15   17 1
    30   16   38 1
    31   16   39 1
    32   17   22 ar
    33   17   18 ar
    34   18   19 ar
    35   18   40 1
    36   19   20 ar
    37   19   41 1
    38   20   21 ar
    39   20   23 1
    40   21   22 ar
    41   21   42 1
    42   23   24 1
    43   23   25 1
    44   23   26 1
@<TRIPOS>MOLECULE
ZINC14974185
   60    64     0     0     0
SMALL
USER_CHARGES
N-[4-[6-[4-[(1R)-1-(4-fluorophenyl)ethyl]piperazin-1-yl]pyrimidin-4-yl]oxy-1,3-benzothiazol-2-yl]acetamide
@<TRIPOS>ATOM
      1 C1         -9.8783   -7.4099   -1.5220 C.3       1 <0>        -0.1476
      2 C2        -10.5069   -6.8125   -0.2615 C.3       1 <0>         0.1248
      3 H1        -10.1805   -7.3565    0.6371 H         1 <0>         0.0536
      4 C3        -12.0086   -6.8700   -0.3735 C.ar      1 <0>        -0.0923
      5 C4        -12.6733   -5.9898   -1.2069 C.ar      1 <0>        -0.0613
      6 C5        -14.0499   -6.0453   -1.3147 C.ar      1 <0>        -0.1567
      7 C6        -14.7645   -6.9752   -0.5787 C.ar      1 <0>         0.0984
      8 C7        -14.0982   -7.8525    0.2600 C.ar      1 <0>        -0.1548
      9 C8        -12.7210   -7.7992    0.3616 C.ar      1 <0>        -0.0858
     10 F1        -16.1109   -7.0261   -0.6784 F         1 <0>        -0.1402
     11 N1        -10.0798   -5.4144   -0.1168 N.3       1 <0>        -0.5357
     12 C9        -10.6214   -4.8232    1.1148 C.3       1 <0>         0.0523
     13 C10       -10.2207   -3.3479    1.1882 C.3       1 <0>         0.0699
     14 N2         -8.7556   -3.2386    1.1550 N.pl3     1 <0>        -0.4727
     15 C11        -8.2140   -3.8299   -0.0765 C.3       1 <0>         0.0611
     16 C12        -8.6147   -5.3052   -0.1499 C.3       1 <0>         0.0514
     17 C13        -8.3526   -1.9195    1.2916 C.ar      1 <0>         0.3840
     18 C14        -6.9994   -1.5897    1.2868 C.ar      1 <0>        -0.2581
     19 C15        -6.6472   -0.2534    1.4274 C.ar      1 <0>         0.3846
     20 N3         -7.6075    0.6572    1.5657 N.ar      1 <0>        -0.5790
     21 C16        -8.8776    0.3073    1.5605 C.ar      1 <0>         0.3600
     22 N4         -9.2532   -0.9488    1.4298 N.ar      1 <0>        -0.5728
     23 O1         -5.3435    0.1171    1.4292 O.3       1 <0>        -0.2337
     24 C17        -5.0502    1.4182    1.6916 C.ar      1 <0>         0.1340
     25 C18        -4.8237    2.2887    0.6510 C.ar      1 <0>        -0.0981
     26 C19        -4.5214    3.6232    0.8770 C.ar      1 <0>        -0.0934
     27 C20        -4.4458    4.0908    2.1762 C.ar      1 <0>        -0.0497
     28 C21        -4.6702    3.2301    3.2230 C.ar      1 <0>        -0.1755
     29 C22        -4.9800    1.8650    3.0356 C.ar      1 <0>         0.1111
     30 N5         -5.1732    1.1479    4.1643 N.2       1 <0>        -0.5421
     31 C23        -5.0807    1.6780    5.3610 C.2       1 <0>         0.3678
     32 S1         -4.6861    3.3819    4.9932 S.3       1 <0>         0.1038
     33 N6         -5.2516    1.0722    6.5959 N.am      1 <0>        -0.6270
     34 C24        -5.1077    1.7927    7.7257 C.2       1 <0>         0.5161
     35 O2         -4.8336    2.9723    7.6618 O.2       1 <0>        -0.5014
     36 C25        -5.2874    1.1326    9.0685 C.3       1 <0>        -0.1689
     37 H2         -8.7821   -7.3679   -1.4403 H         1 <0>         0.0639
     38 H3        -10.2027   -6.8345   -2.4015 H         1 <0>         0.0693
     39 H4        -10.1981   -8.4568   -1.6304 H         1 <0>         0.0655
     40 H5        -12.1161   -5.2611   -1.7771 H         1 <0>         0.1390
     41 H6        -14.5686   -5.3607   -1.9695 H         1 <0>         0.1350
     42 H7        -14.6546   -8.5781    0.8349 H         1 <0>         0.1350
     43 H8        -12.2011   -8.4834    1.0157 H         1 <0>         0.1301
     44 H9        -11.7182   -4.9065    1.1099 H         1 <0>         0.0892
     45 H10       -10.2169   -5.3579    1.9869 H         1 <0>         0.0445
     46 H11       -10.6491   -2.8085    0.3306 H         1 <0>         0.0651
     47 H12       -10.6009   -2.9108    2.1233 H         1 <0>         0.0933
     48 H13        -8.6185   -3.2952   -0.9486 H         1 <0>         0.0610
     49 H14        -7.1172   -3.7466   -0.0717 H         1 <0>         0.0933
     50 H15        -8.1873   -5.8454    0.7078 H         1 <0>         0.0490
     51 H16        -8.2354   -5.7431   -1.0850 H         1 <0>         0.0967
     52 H17        -6.2436   -2.3531    1.1763 H         1 <0>         0.1518
     53 H18        -9.6326    1.0716    1.6711 H         1 <0>         0.1991
     54 H19        -4.8824    1.9250   -0.3642 H         1 <0>         0.1397
     55 H20        -4.3462    4.2907    0.0463 H         1 <0>         0.1471
     56 H21        -4.2109    5.1275    2.3670 H         1 <0>         0.1393
     57 H22        -5.5047    0.0033    6.6538 H         1 <0>         0.4574
     58 H23        -5.1318    1.8746    9.8655 H         1 <0>         0.1072
     59 H24        -4.5559    0.3184    9.1776 H         1 <0>         0.1012
     60 H25        -6.3056    0.7231    9.1424 H         1 <0>         0.1008
@<TRIPOS>BOND
     1    1    2 1
     2    1   37 1
     3    1   38 1
     4    1   39 1
     5    2    3 1
     6    2    4 1
     7    2   11 1
     8    4    9 ar
     9    4    5 ar
    10    5    6 ar
    11    5   40 1
    12    6    7 ar
    13    6   41 1
    14    7    8 ar
    15    7   10 1
    16    8    9 ar
    17    8   42 1
    18    9   43 1
    19   11   16 1
    20   11   12 1
    21   12   13 1
    22   12   44 1
    23   12   45 1
    24   13   14 1
    25   13   46 1
    26   13   47 1
    27   14   15 1
    28   14   17 1
    29   15   16 1
    30   15   48 1
    31   15   49 1
    32   16   50 1
    33   16   51 1
    34   17   22 ar
    35   17   18 ar
    36   18   19 ar
    37   18   52 1
    38   19   20 ar
    39   19   23 1
    40   20   21 ar
    41   21   22 ar
    42   21   53 1
    43   23   24 1
    44   24   29 ar
    45   24   25 ar
    46   25   26 ar
    47   25   54 1
    48   26   27 ar
    49   26   55 1
    50   27   28 ar
    51   27   56 1
    52   28   32 1
    53   28   29 ar
    54   29   30 1
    55   30   31 2
    56   31   32 1
    57   31   33 1
    58   33   34 am
    59   33   57 1
    60   34   35 2
    61   34   36 1
    62   36   58 1
    63   36   59 1
    64   36   60 1
@<TRIPOS>MOLECULE
ZINC03816583
   58    59     0     0     0
SMALL
USER_CHARGES

@<TRIPOS>ATOM
      1 C1         -0.0160   -0.3274   -0.5150 C.3       1 <0>        -0.1394
      2 C2          0.0141   -1.8389   -0.7504 C.3       1 <0>        -0.0332
      3 C3          0.7559   -2.5197    0.4016 C.3       1 <0>        -0.1401
      4 C4         -1.4180   -2.3727   -0.8211 C.3       1 <0>        -0.1461
      5 C5          0.7238   -2.1312   -2.0473 C.ar      1 <0>        -0.0549
      6 C6          0.0583   -2.7855   -3.0671 C.ar      1 <0>        -0.1236
      7 C7          0.7093   -3.0536   -4.2567 C.ar      1 <0>        -0.0946
      8 C8          2.0256   -2.6672   -4.4267 C.ar      1 <0>        -0.1234
      9 C9          2.6908   -2.0121   -3.4073 C.ar      1 <0>        -0.0940
     10 C10         2.0385   -1.7402   -2.2192 C.ar      1 <0>        -0.1175
     11 C11         2.7355   -2.9604   -5.7233 C.3       1 <0>         0.1695
     12 N1          2.5438   -1.8412   -6.6490 N.pl3     1 <0>        -0.6876
     13 C12         3.1005   -1.8832   -7.8961 C.cat     1 <0>         0.5468
     14 N2          2.9217   -0.8395   -8.7594 N.pl3     1 <0>        -0.6881
     15 C13         2.1332    0.3246   -8.3479 C.3       1 <0>         0.1361
     16 C14         2.0896    1.3253   -9.4739 C.ar      1 <0>        -0.0897
     17 C15         3.0646    2.3011   -9.5671 C.ar      1 <0>        -0.1000
     18 C16         3.0295    3.2218  -10.5974 C.ar      1 <0>        -0.1396
     19 C17         2.0142    3.1675  -11.5412 C.ar      1 <0>         0.1380
     20 C18         1.0324    2.1836  -11.4468 C.ar      1 <0>         0.1100
     21 C19         1.0778    1.2615  -10.4143 C.ar      1 <0>        -0.1635
     22 O1          0.0344    2.1257  -12.3690 O.3       1 <0>        -0.3118
     23 C20        -0.9375    1.0904  -12.2092 C.3       1 <0>         0.0252
     24 N3          1.9761    4.0989  -12.5853 N.pl3     1 <0>        -1.0473
     25 S1          3.3866    4.6456  -13.2590 S.o2      1 <0>         2.6085
     26 O2          2.9756    5.4891  -14.3262 O.2       1 <0>        -0.9470
     27 O3          4.1308    5.1690  -12.1674 O.2       1 <0>        -0.9478
     28 C21         4.1972    3.1605  -13.9130 C.3       1 <0>        -0.6678
     29 S2          3.9939   -3.2022   -8.3624 S.3       1 <0>        -0.5873
     30 H1          1.0042    0.0529   -0.4647 H         1 <0>         0.0575
     31 H2         -0.5445    0.1576   -1.3357 H         1 <0>         0.0561
     32 H3         -0.5293   -0.1159    0.4230 H         1 <0>         0.0608
     33 H4          0.2426   -2.3083    1.3397 H         1 <0>         0.0607
     34 H5          0.7774   -3.5965    0.2339 H         1 <0>         0.0575
     35 H6          1.7762   -2.1394    0.4520 H         1 <0>         0.0577
     36 H7         -1.9464   -1.8877   -1.6418 H         1 <0>         0.0586
     37 H8         -1.3965   -3.4495   -0.9888 H         1 <0>         0.0597
     38 H9         -1.9313   -2.1613    0.1170 H         1 <0>         0.0604
     39 H10        -0.9701   -3.0874   -2.9343 H         1 <0>         0.1295
     40 H11         0.1896   -3.5654   -5.0532 H         1 <0>         0.1238
     41 H12         3.7193   -1.7105   -3.5399 H         1 <0>         0.1245
     42 H13         2.5570   -1.2251   -1.4241 H         1 <0>         0.1242
     43 H14         3.8001   -3.0955   -5.5321 H         1 <0>         0.0941
     44 H15         2.3271   -3.8701   -6.1635 H         1 <0>         0.0937
     45 H16         2.0217   -1.0705   -6.3765 H         1 <0>         0.3965
     46 H17         1.1191    0.0085   -8.1033 H         1 <0>         0.0806
     47 H18         2.5921    0.7831   -7.4719 H         1 <0>         0.0846
     48 H19         3.8554    2.3443   -8.8328 H         1 <0>         0.1368
     49 H20         3.7919    3.9834  -10.6675 H         1 <0>         0.1731
     50 H21         0.3204    0.4951  -10.3412 H         1 <0>         0.1371
     51 H22        -0.4440    0.1193  -12.2504 H         1 <0>         0.0587
     52 H23        -1.4349    1.2045  -11.2460 H         1 <0>         0.0577
     53 H24        -1.6748    1.1575  -13.0091 H         1 <0>         0.1053
     54 H25         1.1235    4.4242  -12.9142 H         1 <0>         0.4316
     55 H26         3.5514    2.6910  -14.6550 H         1 <0>         0.1328
     56 H27         5.1432    3.4378  -14.3781 H         1 <0>         0.1364
     57 H28         4.3841    2.4602  -13.0989 H         1 <0>         0.1304
     58 H29         3.3168   -0.8692   -9.6447 H         1 <0>         0.4298
@<TRIPOS>BOND
     1    1    2 1
     2    1   30 1
     3    1   31 1
     4    1   32 1
     5    2    3 1
     6    2    4 1
     7    2    5 1
     8    3   33 1
     9    3   34 1
    10    3   35 1
    11    4   36 1
    12    4   37 1
    13    4   38 1
    14    5   10 ar
    15    5    6 ar
    16    6    7 ar
    17    6   39 1
    18    7    8 ar
    19    7   40 1
    20    8    9 ar
    21    8   11 1
    22    9   10 ar
    23    9   41 1
    24   10   42 1
    25   11   12 1
    26   11   43 1
    27   11   44 1
    28   12   13 1
    29   12   45 1
    30   13   14 2
    31   13   29 1
    32   14   15 1
    33   14   58 1
    34   15   16 1
    35   15   46 1
    36   15   47 1
    37   16   21 ar
    38   16   17 ar
    39   17   18 ar
    40   17   48 1
    41   18   19 ar
    42   18   49 1
    43   19   20 ar
    44   19   24 1
    45   20   21 ar
    46   20   22 1
    47   21   50 1
    48   22   23 1
    49   23   51 1
    50   23   52 1
    51   23   53 1
    52   24   25 1
    53   24   54 1
    54   25   26 2
    55   25   27 2
    56   25   28 1
    57   28   55 1
    58   28   56 1
    59   28   57 1
@<TRIPOS>MOLECULE
ZINC03816583
   58    59     0     0     0
SMALL
USER_CHARGES

@<TRIPOS>ATOM
      1 C1         -0.3769    3.3008    0.1360 C.3       1 <0>        -0.1392
      2 C2         -0.3134    1.7867    0.3465 C.3       1 <0>        -0.0332
      3 C3          0.3991    1.4848    1.6664 C.3       1 <0>        -0.1401
      4 C4         -1.7331    1.2181    0.3917 C.3       1 <0>        -0.1463
      5 C5          0.4457    1.1528   -0.7906 C.ar      1 <0>        -0.0548
      6 C6         -0.1730    0.2163   -1.5975 C.ar      1 <0>        -0.1235
      7 C7          0.5233   -0.3652   -2.6405 C.ar      1 <0>        -0.0939
      8 C8          1.8381   -0.0098   -2.8769 C.ar      1 <0>        -0.1242
      9 C9          2.4565    0.9273   -2.0706 C.ar      1 <0>        -0.0942
     10 C10         1.7589    1.5120   -1.0302 C.ar      1 <0>        -0.1181
     11 C11         2.5975   -0.6445   -4.0134 C.3       1 <0>         0.1695
     12 N1          2.4195    0.1564   -5.2271 N.pl3     1 <0>        -0.6805
     13 C12         3.0116   -0.2221   -6.3772 C.2       1 <0>         0.5592
     14 S1          3.9717   -1.6389   -6.4197 S.2       1 <0>        -0.6359
     15 N2          2.8479    0.5147   -7.4938 N.pl3     1 <0>        -0.6829
     16 C13         3.4915    0.1032   -8.7438 C.3       1 <0>         0.1690
     17 C14         3.1524    1.0894   -9.8317 C.ar      1 <0>        -0.0924
     18 C15         2.0267    0.8964  -10.6108 C.ar      1 <0>        -0.1010
     19 C16         1.7111    1.7975  -11.6103 C.ar      1 <0>        -0.1408
     20 C17         2.5247    2.8988  -11.8330 C.ar      1 <0>         0.1352
     21 C18         3.6587    3.0927  -11.0472 C.ar      1 <0>         0.1083
     22 C19         3.9650    2.1879  -10.0443 C.ar      1 <0>        -0.1641
     23 O1          4.4603    4.1704  -11.2613 O.3       1 <0>        -0.3127
     24 C20         5.6056    4.3048  -10.4174 C.3       1 <0>         0.0253
     25 N3          2.2076    3.8124  -12.8448 N.pl3     1 <0>        -1.0470
     26 S2          0.6237    4.1661  -13.1744 S.o2      1 <0>         2.6091
     27 O2          0.6778    5.1761  -14.1724 O.2       1 <0>        -0.9472
     28 O3          0.0208    2.9088  -13.4481 O.2       1 <0>        -0.9471
     29 C21        -0.0327    4.8503  -11.6279 C.3       1 <0>        -0.6685
     30 H1          0.6345    3.7059    0.1038 H         1 <0>         0.0571
     31 H2         -0.8845    3.5159   -0.8043 H         1 <0>         0.0559
     32 H3         -0.9259    3.7593    0.9584 H         1 <0>         0.0609
     33 H4         -0.1499    1.9433    2.4889 H         1 <0>         0.0608
     34 H5          0.4443    0.4061    1.8164 H         1 <0>         0.0578
     35 H6          1.4105    1.8898    1.6342 H         1 <0>         0.0575
     36 H7         -2.2407    1.4332   -0.5486 H         1 <0>         0.0587
     37 H8         -1.6879    0.1394    0.5417 H         1 <0>         0.0600
     38 H9         -2.2822    1.6766    1.2141 H         1 <0>         0.0605
     39 H10        -1.2002   -0.0614   -1.4128 H         1 <0>         0.1298
     40 H11         0.0402   -1.0974   -3.2705 H         1 <0>         0.1246
     41 H12         3.4838    1.2047   -2.2551 H         1 <0>         0.1241
     42 H13         2.2408    2.2469   -0.4025 H         1 <0>         0.1239
     43 H14         3.6569   -0.6914   -3.7612 H         1 <0>         0.0955
     44 H15         2.2198   -1.6525   -4.1847 H         1 <0>         0.0960
     45 H16         1.8755    0.9591   -5.2031 H         1 <0>         0.3972
     46 H17         2.3039    1.3174   -7.4697 H         1 <0>         0.3973
     47 H18         4.5720    0.0740   -8.6037 H         1 <0>         0.0971
     48 H19         3.1350   -0.8871   -9.0272 H         1 <0>         0.1009
     49 H20         1.3926    0.0394  -10.4382 H         1 <0>         0.1375
     50 H21         0.8315    1.6440  -12.2179 H         1 <0>         0.1721
     51 H22         4.8411    2.3382   -9.4308 H         1 <0>         0.1378
     52 H23         5.2846    4.3805   -9.3785 H         1 <0>         0.0567
     53 H24         6.2490    3.4330  -10.5363 H         1 <0>         0.0599
     54 H25         6.1570    5.2036  -10.6937 H         1 <0>         0.1046
     55 H26         0.5317    5.7426  -11.3570 H         1 <0>         0.1321
     56 H27        -1.0823    5.1114  -11.7628 H         1 <0>         0.1355
     57 H28         0.0581    4.1081  -10.8348 H         1 <0>         0.1290
     58 H29         2.9155    4.2384  -13.3530 H         1 <0>         0.4316
@<TRIPOS>BOND
     1    1    2 1
     2    1   30 1
     3    1   31 1
     4    1   32 1
     5    2    3 1
     6    2    4 1
     7    2    5 1
     8    3   33 1
     9    3   34 1
    10    3   35 1
    11    4   36 1
    12    4   37 1
    13    4   38 1
    14    5   10 ar
    15    5    6 ar
    16    6    7 ar
    17    6   39 1
    18    7    8 ar
    19    7   40 1
    20    8    9 ar
    21    8   11 1
    22    9   10 ar
    23    9   41 1
    24   10   42 1
    25   11   12 1
    26   11   43 1
    27   11   44 1
    28   12   13 1
    29   12   45 1
    30   13   14 2
    31   13   15 1
    32   15   16 1
    33   15   46 1
    34   16   17 1
    35   16   47 1
    36   16   48 1
    37   17   22 ar
    38   17   18 ar
    39   18   19 ar
    40   18   49 1
    41   19   20 ar
    42   19   50 1
    43   20   21 ar
    44   20   25 1
    45   21   22 ar
    46   21   23 1
    47   22   51 1
    48   23   24 1
    49   24   52 1
    50   24   53 1
    51   24   54 1
    52   25   26 1
    53   25   58 1
    54   26   27 2
    55   26   28 2
    56   26   29 1
    57   29   55 1
    58   29   56 1
    59   29   57 1
@<TRIPOS>MOLECULE
ZINC14974132
   43    46     0     0     0
SMALL
USER_CHARGES
N-[4-[6-[4-(trifluoromethyl)phenyl]pyrimidin-4-yl]oxy-1,3-benzothiazol-2-yl]acetamide
@<TRIPOS>ATOM
      1 C1         -2.2254    7.3810    7.3580 C.3       1 <0>        -0.1666
      2 C2         -1.8036    7.4215    5.9118 C.2       1 <0>         0.5147
      3 O1         -0.6696    7.7366    5.6195 O.2       1 <0>        -0.4962
      4 N1         -2.6850    7.1021    4.9435 N.am      1 <0>        -0.6128
      5 C3         -2.2970    7.1393    3.6134 C.2       1 <0>         0.3608
      6 N2         -3.0034    6.8659    2.5419 N.2       1 <0>        -0.5411
      7 C4         -2.4906    6.9452    1.2944 C.ar      1 <0>         0.1101
      8 C5         -3.1405    6.6796    0.0620 C.ar      1 <0>         0.1311
      9 C6         -2.4651    6.8105   -1.1287 C.ar      1 <0>        -0.0970
     10 C7         -1.1353    7.2037   -1.1668 C.ar      1 <0>        -0.0919
     11 C8         -0.4730    7.4705    0.0170 C.ar      1 <0>        -0.0482
     12 C9         -1.1382    7.3430    1.2124 C.ar      1 <0>        -0.1752
     13 S1         -0.7094    7.5794    2.9204 S.3       1 <0>         0.1149
     14 O2         -4.4432    6.2916    0.0578 O.3       1 <0>        -0.2317
     15 C10        -5.3932    7.2512    0.1722 C.ar      1 <0>         0.3763
     16 C11        -6.7367    6.9045    0.2864 C.ar      1 <0>        -0.2268
     17 C12        -7.6743    7.9288    0.4020 C.ar      1 <0>         0.2368
     18 N3         -7.2524    9.1937    0.3989 N.ar      1 <0>        -0.5317
     19 C13        -5.9719    9.4776    0.2888 C.ar      1 <0>         0.3437
     20 N4         -5.0552    8.5364    0.1827 N.ar      1 <0>        -0.5606
     21 C14        -9.1190    7.6169    0.5269 C.ar      1 <0>        -0.0266
     22 C15        -9.5513    6.2919    0.5239 C.ar      1 <0>        -0.0921
     23 C16       -10.8963    6.0074    0.6463 C.ar      1 <0>        -0.0731
     24 C17       -11.8155    7.0347    0.7608 C.ar      1 <0>        -0.1657
     25 C18       -11.3927    8.3518    0.7581 C.ar      1 <0>        -0.0754
     26 C19       -10.0497    8.6478    0.6421 C.ar      1 <0>        -0.0707
     27 C20       -13.2833    6.7178    0.8883 C.3       1 <0>         0.5072
     28 F1        -13.8594    6.6563   -0.3851 F         1 <0>        -0.1739
     29 F2        -13.4401    5.4852    1.5311 F         1 <0>        -0.1751
     30 F3        -13.9129    7.7178    1.6372 F         1 <0>        -0.1748
     31 H1         -1.3836    7.6637    7.9901 H         1 <0>         0.1081
     32 H2         -3.0485    8.0779    7.5160 H         1 <0>         0.1009
     33 H3         -2.5492    6.3722    7.6139 H         1 <0>         0.1012
     34 H4         -3.5909    6.8462    5.1775 H         1 <0>         0.4293
     35 H5         -2.9811    6.6024   -2.0544 H         1 <0>         0.1411
     36 H6         -0.6222    7.3000   -2.1123 H         1 <0>         0.1484
     37 H7          0.5624    7.7772    0.0023 H         1 <0>         0.1406
     38 H8         -7.0440    5.8691    0.2850 H         1 <0>         0.1572
     39 H9         -5.6627   10.5124    0.2897 H         1 <0>         0.2036
     40 H10        -8.8349    5.4892    0.4301 H         1 <0>         0.1425
     41 H11       -11.2320    4.9810    0.6482 H         1 <0>         0.1440
     42 H12       -12.1148    9.1499    0.8474 H         1 <0>         0.1436
     43 H13        -9.7207    9.6765    0.6402 H         1 <0>         0.1511
@<TRIPOS>BOND
     1    1    2 1
     2    1   31 1
     3    1   32 1
     4    1   33 1
     5    2    3 2
     6    2    4 am
     7    4    5 1
     8    4   34 1
     9    5   13 1
    10    5    6 2
    11    6    7 1
    12    7   12 ar
    13    7    8 ar
    14    8    9 ar
    15    8   14 1
    16    9   10 ar
    17    9   35 1
    18   10   11 ar
    19   10   36 1
    20   11   12 ar
    21   11   37 1
    22   12   13 1
    23   14   15 1
    24   15   20 ar
    25   15   16 ar
    26   16   17 ar
    27   16   38 1
    28   17   18 ar
    29   17   21 1
    30   18   19 ar
    31   19   20 ar
    32   19   39 1
    33   21   26 ar
    34   21   22 ar
    35   22   23 ar
    36   22   40 1
    37   23   24 ar
    38   23   41 1
    39   24   25 ar
    40   24   27 1
    41   25   26 ar
    42   25   42 1
    43   26   43 1
    44   27   28 1
    45   27   29 1
    46   27   30 1
@<TRIPOS>MOLECULE
ZINC01530575
   49    49     0     0     0
SMALL
USER_CHARGES

@<TRIPOS>ATOM
      1 C1         -0.0187    1.5258    0.0104 C.3       1 <0>        -0.1444
      2 C2          0.0021   -0.0041    0.0020 C.3       1 <0>        -0.0691
      3 C3          0.7421   -0.5109    1.2415 C.3       1 <0>        -0.1450
      4 C4         -1.4117   -0.5257    0.0127 C.2       1 <0>        -0.1524
      5 C5         -1.8393   -1.2793   -0.9698 C.2       1 <0>        -0.1586
      6 C6         -3.2531   -1.8009   -0.9591 C.3       1 <0>        -0.0916
      7 C7         -3.9550   -1.3985   -2.2577 C.3       1 <0>        -0.1146
      8 C8         -5.3904   -1.9281   -2.2468 C.3       1 <0>        -0.1056
      9 C9         -6.0923   -1.5257   -3.5454 C.3       1 <0>        -0.1403
     10 C10        -7.5061   -2.0473   -3.5347 C.2       1 <0>         0.5114
     11 O1         -7.9123   -2.6787   -2.5822 O.2       1 <0>        -0.5370
     12 N1         -8.3191   -1.8121   -4.5836 N.am      1 <0>        -0.7303
     13 C11        -9.6935   -2.3191   -4.5732 C.3       1 <0>         0.1606
     14 C12       -10.3849   -1.9228   -5.8522 C.ar      1 <0>        -0.0792
     15 C13       -11.0675   -0.7226   -5.9240 C.ar      1 <0>        -0.1210
     16 C14       -11.7033   -0.3545   -7.0950 C.ar      1 <0>        -0.1070
     17 C15       -11.6570   -1.1889   -8.2003 C.ar      1 <0>         0.0836
     18 C16       -10.9696   -2.3966   -8.1282 C.ar      1 <0>         0.1025
     19 C17       -10.3304   -2.7574   -6.9529 C.ar      1 <0>        -0.1769
     20 O2        -10.9212   -3.2189   -9.2103 O.3       1 <0>        -0.3064
     21 C18       -10.1976   -4.4423   -9.0637 C.3       1 <0>         0.0238
     22 O3        -12.2823   -0.8284   -9.3529 O.3       1 <0>        -0.4858
     23 H1          1.0039    1.9031    0.0027 H         1 <0>         0.0561
     24 H2         -0.5459    1.8868   -0.8726 H         1 <0>         0.0545
     25 H3         -0.5289    1.8773    0.9072 H         1 <0>         0.0554
     26 H4          0.5123   -0.3556   -0.8948 H         1 <0>         0.0710
     27 H5          0.2319   -0.1594    2.1383 H         1 <0>         0.0555
     28 H6          0.7568   -1.6008    1.2356 H         1 <0>         0.0547
     29 H7          1.7647   -0.1336    1.2338 H         1 <0>         0.0561
     30 H8         -2.0724   -0.2782    0.8304 H         1 <0>         0.1074
     31 H9         -1.1786   -1.5268   -1.7875 H         1 <0>         0.1068
     32 H10        -3.2388   -2.8876   -0.8755 H         1 <0>         0.0716
     33 H11        -3.7899   -1.3782   -0.1099 H         1 <0>         0.0663
     34 H12        -3.9693   -0.3118   -2.3413 H         1 <0>         0.0634
     35 H13        -3.4182   -1.8212   -3.1069 H         1 <0>         0.0633
     36 H14        -5.3761   -3.0148   -2.1632 H         1 <0>         0.0704
     37 H15        -5.9272   -1.5054   -1.3976 H         1 <0>         0.0704
     38 H16        -6.1066   -0.4390   -3.6290 H         1 <0>         0.0942
     39 H17        -5.5555   -1.9484   -4.3946 H         1 <0>         0.0936
     40 H18        -7.9943   -1.3070   -5.3453 H         1 <0>         0.4023
     41 H19        -9.6793   -3.4058   -4.4896 H         1 <0>         0.0770
     42 H20       -10.2304   -1.8964   -3.7239 H         1 <0>         0.0803
     43 H21       -11.1044   -0.0714   -5.0632 H         1 <0>         0.1321
     44 H22       -12.2365    0.5832   -7.1482 H         1 <0>         0.1400
     45 H23        -9.7930   -3.6924   -6.8955 H         1 <0>         0.1348
     46 H24       -10.6439   -5.0350   -8.2652 H         1 <0>         0.0573
     47 H25       -10.2377   -5.0024   -9.9979 H         1 <0>         0.1037
     48 H26        -9.1590   -4.2227   -8.8161 H         1 <0>         0.0561
     49 H27       -11.7264   -0.3208   -9.9598 H         1 <0>         0.3893
@<TRIPOS>BOND
     1    1    2 1
     2    1   23 1
     3    1   24 1
     4    1   25 1
     5    2    3 1
     6    2    4 1
     7    2   26 1
     8    3   27 1
     9    3   28 1
    10    3   29 1
    11    4    5 2
    12    4   30 1
    13    5    6 1
    14    5   31 1
    15    6    7 1
    16    6   32 1
    17    6   33 1
    18    7    8 1
    19    7   34 1
    20    7   35 1
    21    8    9 1
    22    8   36 1
    23    8   37 1
    24    9   10 1
    25    9   38 1
    26    9   39 1
    27   10   11 2
    28   10   12 am
    29   12   13 1
    30   12   40 1
    31   13   14 1
    32   13   41 1
    33   13   42 1
    34   14   19 ar
    35   14   15 ar
    36   15   16 ar
    37   15   43 1
    38   16   17 ar
    39   16   44 1
    40   17   18 ar
    41   17   22 1
    42   18   19 ar
    43   18   20 1
    44   19   45 1
    45   20   21 1
    46   21   46 1
    47   21   47 1
    48   21   48 1
    49   22   49 1
@<TRIPOS>MOLECULE
ZINC02009579
   58    59     0     0     0
SMALL
USER_CHARGES

@<TRIPOS>ATOM
      1 C1          2.0662   -0.3352    5.9483 C.3       1 <0>        -0.1207
      2 C2          1.3369    0.1643    4.7277 C.ar      1 <0>        -0.0880
      3 C3          0.3247   -0.5936    4.1689 C.ar      1 <0>        -0.1143
      4 C4         -0.3474   -0.1333    3.0523 C.ar      1 <0>        -0.1187
      5 C5          0.0000    1.0800    2.4877 C.ar      1 <0>        -0.0880
      6 C6          1.0120    1.8377    3.0464 C.ar      1 <0>        -0.1137
      7 C7          1.6804    1.3799    4.1667 C.ar      1 <0>        -0.0838
      8 C8          2.7838    2.2060    4.7759 C.3       1 <0>        -0.1202
      9 C9         -0.7288    1.5792    1.2668 C.3       1 <0>        -0.0756
     10 C10        -0.0127    1.0858    0.0080 C.3       1 <0>        -0.1253
     11 C11        -0.7527    1.5927   -1.2315 C.3       1 <0>         0.1177
     12 N1         -0.0670    1.1202   -2.4368 N.am      1 <0>        -0.7307
     13 C12        -0.5435    1.4461   -3.6547 C.2       1 <0>         0.5130
     14 O1         -1.5399    2.1304   -3.7528 O.2       1 <0>        -0.5313
     15 C13         0.1619    0.9601   -4.8946 C.3       1 <0>        -0.1070
     16 C14        -0.5670    1.4593   -6.1155 C.ar      1 <0>        -0.0426
     17 C15        -1.5752    0.6975   -6.6764 C.ar      1 <0>        -0.1013
     18 C16        -2.2506    1.1537   -7.7930 C.ar      1 <0>        -0.1610
     19 C17        -1.9100    2.3717   -8.3592 C.ar      1 <0>         0.0810
     20 C18        -0.8914    3.1357   -7.7980 C.ar      1 <0>         0.1134
     21 C19        -0.2222    2.6753   -6.6754 C.ar      1 <0>        -0.1557
     22 O2         -0.5537    4.3320   -8.3498 O.3       1 <0>        -0.3125
     23 C20         0.5010    5.0622   -7.7201 C.3       1 <0>         0.0235
     24 O3         -2.5694    2.8191   -9.4612 O.3       1 <0>        -0.3200
     25 C21        -3.6034    1.9821   -9.9829 C.3       1 <0>         0.0193
     26 C22        -4.2256    2.6465  -11.2127 C.3       1 <0>         0.0079
     27 H1          1.5563    0.0163    6.8453 H         1 <0>         0.0718
     28 H2          2.0808   -1.4250    5.9422 H         1 <0>         0.0661
     29 H3          3.0888    0.0420    5.9402 H         1 <0>         0.0710
     30 H4          0.0565   -1.5436    4.6070 H         1 <0>         0.1221
     31 H5         -1.1411   -0.7233    2.6183 H         1 <0>         0.1202
     32 H6          1.2803    2.7875    2.6080 H         1 <0>         0.1201
     33 H7          2.3638    2.8774    5.5249 H         1 <0>         0.0719
     34 H8          3.5134    1.5472    5.2467 H         1 <0>         0.0716
     35 H9          3.2721    2.7911    3.9966 H         1 <0>         0.0651
     36 H10        -0.7436    2.6691    1.2728 H         1 <0>         0.0755
     37 H11        -1.7514    1.2020    1.2746 H         1 <0>         0.0759
     38 H12         0.0021   -0.0041    0.0020 H         1 <0>         0.0722
     39 H13         1.0099    1.4631    0.0003 H         1 <0>         0.0719
     40 H14        -1.7753    1.2154   -1.2238 H         1 <0>         0.0697
     41 H15        -0.7675    2.6825   -1.2255 H         1 <0>         0.0694
     42 H16         0.7300    0.5728   -2.3584 H         1 <0>         0.4028
     43 H17         1.1845    1.3373   -4.9023 H         1 <0>         0.1073
     44 H18         0.1767   -0.1298   -4.9006 H         1 <0>         0.1096
     45 H19        -1.8384   -0.2542   -6.2389 H         1 <0>         0.1317
     46 H20        -3.0405    0.5586   -8.2269 H         1 <0>         0.1354
     47 H21         0.5690    3.2662   -6.2381 H         1 <0>         0.1391
     48 H22         0.2250    5.2828   -6.6890 H         1 <0>         0.0599
     49 H23         1.4134    4.4661   -7.7325 H         1 <0>         0.0587
     50 H24         0.6690    5.9949   -8.2587 H         1 <0>         0.1054
     51 H25        -3.1821    1.0173  -10.2653 H         1 <0>         0.0866
     52 H26        -4.3703    1.8351   -9.2224 H         1 <0>         0.1084
     53 H27        -5.0717    2.0522  -11.5577 H         1 <0>         0.1538
     54 H28        -4.5676    3.6478  -10.9507 H         1 <0>         0.1431
     55 H29        -2.8419    1.8266  -12.4978 H         1 <0>         0.4362
     56 H30        -3.6086    3.1716  -13.1053 H         1 <0>         0.4413
     57 N2         -3.2047    2.7508  -12.2701 N.4       1 <0>        -0.6470
     58 H31        -2.4332    3.3410  -11.9374 H         1 <0>         0.4476
@<TRIPOS>BOND
     1    1    2 1
     2    1   27 1
     3    1   28 1
     4    1   29 1
     5    2    7 ar
     6    2    3 ar
     7    3    4 ar
     8    3   30 1
     9    4    5 ar
    10    4   31 1
    11    5    6 ar
    12    5    9 1
    13    6    7 ar
    14    6   32 1
    15    7    8 1
    16    8   33 1
    17    8   34 1
    18    8   35 1
    19    9   10 1
    20    9   36 1
    21    9   37 1
    22   10   11 1
    23   10   38 1
    24   10   39 1
    25   11   12 1
    26   11   40 1
    27   11   41 1
    28   12   13 am
    29   12   42 1
    30   13   14 2
    31   13   15 1
    32   15   16 1
    33   15   43 1
    34   15   44 1
    35   16   21 ar
    36   16   17 ar
    37   17   18 ar
    38   17   45 1
    39   18   19 ar
    40   18   46 1
    41   19   20 ar
    42   19   24 1
    43   20   21 ar
    44   20   22 1
    45   21   47 1
    46   22   23 1
    47   23   48 1
    48   23   49 1
    49   23   50 1
    50   24   25 1
    51   25   26 1
    52   25   51 1
    53   25   52 1
    54   26   53 1
    55   26   54 1
    56   26   57 1
    57   55   57 1
    58   56   57 1
    59   57   58 1
@<TRIPOS>MOLECULE
ZINC01491591
   53    54     0     0     0
SMALL
USER_CHARGES

@<TRIPOS>ATOM
      1 C1         -0.0187    1.5258    0.0104 C.3       1 <0>        -0.1396
      2 C2          0.0021   -0.0041    0.0020 C.3       1 <0>        -0.0320
      3 C3          0.7421   -0.5109    1.2415 C.3       1 <0>        -0.1389
      4 C4         -1.4333   -0.5336    0.0129 C.3       1 <0>        -0.1453
      5 C5          0.7074   -0.4901   -1.2379 C.ar      1 <0>        -0.0600
      6 C6          0.0361   -1.2843   -2.1485 C.ar      1 <0>        -0.1243
      7 C7          0.6831   -1.7301   -3.2859 C.ar      1 <0>        -0.0944
      8 C8          2.0014   -1.3813   -3.5127 C.ar      1 <0>        -0.1182
      9 C9          2.6724   -0.5863   -2.6025 C.ar      1 <0>        -0.0942
     10 C10         2.0241   -0.1370   -1.4673 C.ar      1 <0>        -0.1184
     11 C11         2.7070   -1.8681   -4.7521 C.3       1 <0>         0.1716
     12 N1          2.5202   -0.8976   -5.8335 N.pl3     1 <0>        -0.6889
     13 C12         3.0665   -1.1245   -7.0445 C.2       1 <0>         0.5618
     14 S1          3.9790   -2.5468   -7.3190 S.2       1 <0>        -0.6615
     15 N2          2.8946   -0.2316   -8.0393 N.pl3     1 <0>        -0.6696
     16 C13         3.4885   -0.4782   -9.3556 C.3       1 <0>         0.1870
     17 C14         3.1504    0.6621  -10.2810 C.ar      1 <0>        -0.2157
     18 C15         1.9970    0.6139  -11.0422 C.ar      1 <0>        -0.0609
     19 C16         1.6834    1.6569  -11.8921 C.ar      1 <0>        -0.1714
     20 C17         2.5273    2.7556  -11.9818 C.ar      1 <0>         0.2755
     21 C18         3.6865    2.8022  -11.2149 C.ar      1 <0>        -0.0599
     22 C19         3.9913    1.7569  -10.3625 C.ar      1 <0>        -0.0741
     23 F1          4.5111    3.8691  -11.2991 F         1 <0>        -0.1371
     24 N3          2.2126    3.8127  -12.8415 N.2       1 <0>        -1.0959
     25 S2          3.2207    5.1223  -12.9470 S.o2      1 <0>         2.5421
     26 O1          3.1853    5.7120  -11.6546 O.2       1 <0>        -1.0243
     27 O2          4.4344    4.6041  -13.4739 O.2       1 <0>        -1.0223
     28 C20         2.4329    6.2207  -14.1568 C.3       1 <0>        -0.6487
     29 H1          1.0039    1.9031    0.0027 H         1 <0>         0.0575
     30 H2         -0.5459    1.8868   -0.8726 H         1 <0>         0.0572
     31 H3         -0.5289    1.8773    0.9072 H         1 <0>         0.0588
     32 H4          0.2319   -0.1594    2.1383 H         1 <0>         0.0586
     33 H5          0.7568   -1.6008    1.2356 H         1 <0>         0.0568
     34 H6          1.7647   -0.1336    1.2338 H         1 <0>         0.0574
     35 H7         -1.9605   -0.1726   -0.8702 H         1 <0>         0.0593
     36 H8         -1.4185   -1.6235    0.0069 H         1 <0>         0.0591
     37 H9         -1.9435   -0.1821    0.9097 H         1 <0>         0.0584
     38 H10        -0.9938   -1.5568   -1.9713 H         1 <0>         0.1281
     39 H11         0.1588   -2.3512   -3.9970 H         1 <0>         0.1247
     40 H12         3.7024   -0.3141   -2.7796 H         1 <0>         0.1247
     41 H13         2.5473    0.4872   -0.7580 H         1 <0>         0.1224
     42 H14         3.7711   -1.9799   -4.5441 H         1 <0>         0.0923
     43 H15         2.2923   -2.8305   -5.0520 H         1 <0>         0.0926
     44 H16         2.0032   -0.0917   -5.6780 H         1 <0>         0.3969
     45 H17         2.3776    0.5743   -7.8838 H         1 <0>         0.3989
     46 H18         4.5712   -0.5571   -9.2568 H         1 <0>         0.0859
     47 H19         3.0924   -1.4077   -9.7646 H         1 <0>         0.0887
     48 H20         1.3405   -0.2408  -10.9724 H         1 <0>         0.1125
     49 H21         0.7825    1.6174  -12.4865 H         1 <0>         0.1223
     50 H22         4.8891    1.7934   -9.7633 H         1 <0>         0.1150
     51 H23         1.4419    6.5023  -13.8006 H         1 <0>         0.1135
     52 H24         3.0411    7.1162  -14.2845 H         1 <0>         0.1018
     53 H25         2.3423    5.7037  -15.1120 H         1 <0>         0.1140
@<TRIPOS>BOND
     1    1    2 1
     2    1   29 1
     3    1   30 1
     4    1   31 1
     5    2    3 1
     6    2    4 1
     7    2    5 1
     8    3   32 1
     9    3   33 1
    10    3   34 1
    11    4   35 1
    12    4   36 1
    13    4   37 1
    14    5   10 ar
    15    5    6 ar
    16    6    7 ar
    17    6   38 1
    18    7    8 ar
    19    7   39 1
    20    8    9 ar
    21    8   11 1
    22    9   10 ar
    23    9   40 1
    24   10   41 1
    25   11   12 1
    26   11   42 1
    27   11   43 1
    28   12   13 1
    29   12   44 1
    30   13   14 2
    31   13   15 1
    32   15   16 1
    33   15   45 1
    34   16   17 1
    35   16   46 1
    36   16   47 1
    37   17   22 ar
    38   17   18 ar
    39   18   19 ar
    40   18   48 1
    41   19   20 ar
    42   19   49 1
    43   20   21 ar
    44   20   24 1
    45   21   22 ar
    46   21   23 1
    47   22   50 1
    48   24   25 1
    49   25   26 2
    50   25   27 2
    51   25   28 1
    52   28   51 1
    53   28   52 1
    54   28   53 1
@<TRIPOS>MOLECULE
ZINC01491591
   53    54     0     0     0
SMALL
USER_CHARGES

@<TRIPOS>ATOM
      1 C1         -0.0187    1.5258    0.0104 C.3       1 <0>        -0.1391
      2 C2          0.0021   -0.0041    0.0020 C.3       1 <0>        -0.0320
      3 C3          0.7421   -0.5109    1.2415 C.3       1 <0>        -0.1393
      4 C4         -1.4333   -0.5336    0.0129 C.3       1 <0>        -0.1457
      5 C5          0.7074   -0.4901   -1.2379 C.ar      1 <0>        -0.0591
      6 C6          0.0361   -1.2843   -2.1485 C.ar      1 <0>        -0.1228
      7 C7          0.6831   -1.7301   -3.2859 C.ar      1 <0>        -0.0934
      8 C8          2.0014   -1.3813   -3.5127 C.ar      1 <0>        -0.1124
      9 C9          2.6724   -0.5863   -2.6025 C.ar      1 <0>        -0.0934
     10 C10         2.0241   -0.1370   -1.4673 C.ar      1 <0>        -0.1174
     11 C11         2.7070   -1.8681   -4.7521 C.3       1 <0>         0.1341
     12 N1          2.5202   -0.8976   -5.8335 N.pl3     1 <0>        -0.6922
     13 C12         3.0740   -1.1276   -7.0610 C.cat     1 <0>         0.5483
     14 N2          3.8022   -2.2628   -7.2801 N.pl3     1 <0>        -0.6770
     15 C13         4.3961   -2.5094   -8.5964 C.3       1 <0>         0.1871
     16 C14         5.1416   -3.8189   -8.5738 C.ar      1 <0>        -0.2146
     17 C15         6.4770   -3.8462   -8.2161 C.ar      1 <0>        -0.0612
     18 C16         7.1643   -5.0444   -8.1944 C.ar      1 <0>        -0.1711
     19 C17         6.5132   -6.2231   -8.5320 C.ar      1 <0>         0.2752
     20 C18         5.1699   -6.1934   -8.8911 C.ar      1 <0>        -0.0597
     21 C19         4.4870   -4.9910   -8.9055 C.ar      1 <0>        -0.0745
     22 F1          4.5322   -7.3378   -9.2208 F         1 <0>        -0.1371
     23 N3          7.2065   -7.4375   -8.5114 N.2       1 <0>        -1.0960
     24 S1          6.4279   -8.8423   -8.9145 S.o2      1 <0>         2.5421
     25 O1          5.4296   -9.0029   -7.9160 O.2       1 <0>        -1.0243
     26 O2          6.0677   -8.6786  -10.2793 O.2       1 <0>        -1.0224
     27 C20         7.6881  -10.1369   -8.7519 C.3       1 <0>        -0.6488
     28 S2          2.8623   -0.0279   -8.2863 S.3       1 <0>        -0.6137
     29 H1          1.0039    1.9031    0.0027 H         1 <0>         0.0575
     30 H2         -0.5459    1.8868   -0.8726 H         1 <0>         0.0572
     31 H3         -0.5289    1.8773    0.9072 H         1 <0>         0.0588
     32 H4          0.2319   -0.1594    2.1383 H         1 <0>         0.0588
     33 H5          0.7568   -1.6008    1.2356 H         1 <0>         0.0571
     34 H6          1.7647   -0.1336    1.2338 H         1 <0>         0.0575
     35 H7         -1.9605   -0.1726   -0.8702 H         1 <0>         0.0595
     36 H8         -1.4185   -1.6235    0.0069 H         1 <0>         0.0594
     37 H9         -1.9435   -0.1821    0.9097 H         1 <0>         0.0586
     38 H10        -0.9938   -1.5568   -1.9713 H         1 <0>         0.1288
     39 H11         0.1588   -2.3512   -3.9970 H         1 <0>         0.1247
     40 H12         3.7024   -0.3141   -2.7796 H         1 <0>         0.1246
     41 H13         2.5473    0.4872   -0.7580 H         1 <0>         0.1232
     42 H14         3.7711   -1.9799   -4.5441 H         1 <0>         0.0810
     43 H15         2.2923   -2.8305   -5.0520 H         1 <0>         0.0808
     44 H16         3.9260   -2.9054   -6.5641 H         1 <0>         0.3976
     45 H17         3.6081   -2.5529   -9.3482 H         1 <0>         0.0842
     46 H18         5.0869   -1.7022   -8.8404 H         1 <0>         0.0870
     47 H19         6.9836   -2.9293   -7.9535 H         1 <0>         0.1124
     48 H20         8.2075   -5.0640   -7.9155 H         1 <0>         0.1222
     49 H21         3.4428   -4.9668   -9.1802 H         1 <0>         0.1149
     50 H22         8.0555  -10.1596   -7.7259 H         1 <0>         0.1135
     51 H23         7.2507  -11.1033   -9.0026 H         1 <0>         0.1018
     52 H24         8.5154   -9.9258   -9.4294 H         1 <0>         0.1140
     53 H25         2.0032   -0.0917   -5.6780 H         1 <0>         0.4255
@<TRIPOS>BOND
     1    1    2 1
     2    1   29 1
     3    1   30 1
     4    1   31 1
     5    2    3 1
     6    2    4 1
     7    2    5 1
     8    3   32 1
     9    3   33 1
    10    3   34 1
    11    4   35 1
    12    4   36 1
    13    4   37 1
    14    5   10 ar
    15    5    6 ar
    16    6    7 ar
    17    6   38 1
    18    7    8 ar
    19    7   39 1
    20    8    9 ar
    21    8   11 1
    22    9   10 ar
    23    9   40 1
    24   10   41 1
    25   11   12 1
    26   11   42 1
    27   11   43 1
    28   12   13 2
    29   12   53 1
    30   13   14 1
    31   13   28 1
    32   14   15 1
    33   14   44 1
    34   15   16 1
    35   15   45 1
    36   15   46 1
    37   16   21 ar
    38   16   17 ar
    39   17   18 ar
    40   17   47 1
    41   18   19 ar
    42   18   48 1
    43   19   20 ar
    44   19   23 1
    45   20   21 ar
    46   20   22 1
    47   21   49 1
    48   23   24 1
    49   24   25 2
    50   24   26 2
    51   24   27 1
    52   27   50 1
    53   27   51 1
    54   27   52 1
@<TRIPOS>MOLECULE
ZINC03871859
   46    48     0     0     0
SMALL
USER_CHARGES

@<TRIPOS>ATOM
      1 C1         -0.0167    1.3782    0.0096 C.ar      1 <0>        -0.0978
      2 C2          1.1706    2.0858    0.0021 C.ar      1 <0>        -0.1073
      3 C3          2.3780    1.4104   -0.0130 C.ar      1 <0>        -0.0335
      4 C4          2.3961    0.0270   -0.0206 C.ar      1 <0>        -0.1077
      5 C5          1.2082   -0.6795   -0.0130 C.ar      1 <0>        -0.0983
      6 C6          0.0021   -0.0041    0.0020 C.ar      1 <0>        -0.0787
      7 C7         -1.2928   -0.7750    0.0107 C.3       1 <0>        -0.0942
      8 C8         -1.7453   -1.0281   -1.4288 C.3       1 <0>         0.1287
      9 N1         -3.0041   -1.7775   -1.4203 N.pl3     1 <0>        -0.6841
     10 C9         -3.5946   -2.1160   -2.5836 C.2       1 <0>         0.5688
     11 S1         -2.8738   -1.6701   -4.0711 S.2       1 <0>        -0.6385
     12 N2         -4.7527   -2.8054   -2.5758 N.pl3     1 <0>        -0.5632
     13 C10        -5.4128   -3.1916   -3.8109 C.3       1 <0>         0.1050
     14 C11        -6.9316   -3.1963   -3.5641 C.3       1 <0>        -0.1344
     15 C12        -7.3680   -1.7904   -3.1635 C.3       1 <0>        -0.0843
     16 C13        -7.2582   -1.5434   -1.6776 C.ar      1 <0>        -0.0435
     17 C14        -8.1825   -0.6474   -1.1397 C.ar      1 <0>        -0.1355
     18 C15        -8.1493   -0.3091    0.1977 C.ar      1 <0>         0.0944
     19 C16        -7.1765   -0.8607    1.0269 C.ar      1 <0>         0.0804
     20 C17        -6.2708   -1.7620    0.4988 C.ar      1 <0>        -0.1215
     21 C18        -6.3295   -2.1193   -0.8412 C.ar      1 <0>        -0.1062
     22 C19        -5.3969   -3.2030   -1.3215 C.3       1 <0>         0.1341
     23 O1         -7.1175   -0.5166    2.3412 O.3       1 <0>        -0.4848
     24 O2         -9.0643    0.5602    0.7043 O.3       1 <0>        -0.4872
     25 Cl1         3.8696    2.2984   -0.0231 Cl        1 <0>        -0.0677
     26 H1         -0.9592    1.9053    0.0259 H         1 <0>         0.1329
     27 H2          1.1558    3.1656    0.0076 H         1 <0>         0.1353
     28 H3          3.3383   -0.5007   -0.0327 H         1 <0>         0.1353
     29 H4          1.2222   -1.7594   -0.0193 H         1 <0>         0.1328
     30 H5         -1.1447   -1.7283    0.5180 H         1 <0>         0.0819
     31 H6         -2.0551   -0.1989    0.5352 H         1 <0>         0.0825
     32 H7         -1.8934   -0.0748   -1.9361 H         1 <0>         0.0905
     33 H8         -0.9830   -1.6042   -1.9533 H         1 <0>         0.0911
     34 H9         -3.4125   -2.0301   -0.5776 H         1 <0>         0.3953
     35 H10        -5.1703   -2.4762   -4.5966 H         1 <0>         0.1166
     36 H11        -5.0854   -4.1883   -4.1066 H         1 <0>         0.0801
     37 H12        -7.4492   -3.4936   -4.4761 H         1 <0>         0.0948
     38 H13        -7.1694   -3.8951   -2.7621 H         1 <0>         0.0739
     39 H14        -6.7440   -1.0661   -3.6872 H         1 <0>         0.0861
     40 H15        -8.4042   -1.6437   -3.4685 H         1 <0>         0.0813
     41 H16        -8.9357   -0.2122   -1.7797 H         1 <0>         0.1355
     42 H17        -5.5111   -2.1921    1.1346 H         1 <0>         0.1338
     43 H18        -5.9643   -4.1194   -1.4842 H         1 <0>         0.1125
     44 H19        -4.6316   -3.3849   -0.5670 H         1 <0>         0.0845
     45 H20        -7.6469   -1.0822    2.9200 H         1 <0>         0.3895
     46 H21        -9.8682    0.1366    1.0350 H         1 <0>         0.3908
@<TRIPOS>BOND
     1    1    6 ar
     2    1    2 ar
     3    1   26 1
     4    2    3 ar
     5    2   27 1
     6    3    4 ar
     7    3   25 1
     8    4    5 ar
     9    4   28 1
    10    5    6 ar
    11    5   29 1
    12    6    7 1
    13    7    8 1
    14    7   30 1
    15    7   31 1
    16    8    9 1
    17    8   32 1
    18    8   33 1
    19    9   10 1
    20    9   34 1
    21   10   11 2
    22   10   12 1
    23   12   22 1
    24   12   13 1
    25   13   14 1
    26   13   35 1
    27   13   36 1
    28   14   15 1
    29   14   37 1
    30   14   38 1
    31   15   16 1
    32   15   39 1
    33   15   40 1
    34   16   21 ar
    35   16   17 ar
    36   17   18 ar
    37   17   41 1
    38   18   19 ar
    39   18   24 1
    40   19   20 ar
    41   19   23 1
    42   20   21 ar
    43   20   42 1
    44   21   22 1
    45   22   43 1
    46   22   44 1
    47   23   45 1
    48   24   46 1
@<TRIPOS>MOLECULE
ZINC13523856
   75    76     0     0     0
SMALL
USER_CHARGES

@<TRIPOS>ATOM
      1 C1         -0.3876    1.9911   -0.2846 C.3       1 <0>        -0.1384
      2 C2         -0.2891    0.4717   -0.1344 C.3       1 <0>        -0.0315
      3 C3          0.4282    0.1340    1.1742 C.3       1 <0>        -0.1396
      4 C4         -1.6952   -0.1312   -0.1155 C.3       1 <0>        -0.1457
      5 C5          0.4863   -0.0985   -1.2939 C.ar      1 <0>        -0.0677
      6 C6         -0.1410   -0.9300   -2.2029 C.ar      1 <0>        -0.1175
      7 C7          0.5704   -1.4530   -3.2665 C.ar      1 <0>        -0.1125
      8 C8          1.9088   -1.1443   -3.4215 C.ar      1 <0>        -0.0941
      9 C9          2.5359   -0.3121   -2.5131 C.ar      1 <0>        -0.1109
     10 C10         1.8235    0.2143   -1.4518 C.ar      1 <0>        -0.1135
     11 C11         2.6845   -1.7153   -4.5805 C.3       1 <0>        -0.0682
     12 C12         2.7124   -0.7003   -5.7250 C.3       1 <0>        -0.0939
     13 H1          3.1057    0.2484   -5.3599 H         1 <0>         0.0920
     14 C13         3.6075   -1.2244   -6.8498 C.3       1 <0>         0.1295
     15 N1          3.7301   -0.2028   -7.8925 N.pl3     1 <0>        -0.6753
     16 C14         4.4762   -0.4447   -8.9886 C.2       1 <0>         0.5605
     17 S1          5.2806   -1.9459   -9.1622 S.2       1 <0>        -0.6427
     18 N2          4.5891    0.4953   -9.9479 N.pl3     1 <0>        -0.6837
     19 C15         5.4001    0.2323  -11.1392 C.3       1 <0>         0.1696
     20 C16         5.3614    1.4335  -12.0484 C.ar      1 <0>        -0.0854
     21 C17         4.3788    1.5351  -13.0157 C.ar      1 <0>        -0.1176
     22 C18         4.3391    2.6350  -13.8522 C.ar      1 <0>        -0.1077
     23 C19         5.2851    3.6391  -13.7218 C.ar      1 <0>         0.0873
     24 C20         6.2737    3.5371  -12.7479 C.ar      1 <0>         0.1023
     25 C21         6.3050    2.4342  -11.9096 C.ar      1 <0>        -0.1740
     26 O1          7.2044    4.5199  -12.6161 O.3       1 <0>        -0.3059
     27 C22         8.1892    4.3481  -11.5949 C.3       1 <0>         0.0235
     28 O2          5.2476    4.7215  -14.5442 O.3       1 <0>        -0.4852
     29 C23         1.2931   -0.4929   -6.2574 C.3       1 <0>         0.0627
     30 O3          1.2974    0.5540   -7.2300 O.3       1 <0>        -0.3605
     31 C24         0.1076    0.9340   -7.7217 C.2       1 <0>         0.4703
     32 O4         -0.9100    0.4605   -7.2742 O.2       1 <0>        -0.4947
     33 C25         0.0410    1.9511   -8.8317 C.3       1 <0>        -0.0567
     34 C26        -1.4210    2.3025   -9.1143 C.3       1 <0>        -0.1360
     35 C27         0.7972    3.2134   -8.4128 C.3       1 <0>        -0.1421
     36 C28         0.6792    1.3698  -10.0949 C.3       1 <0>        -0.1396
     37 H2          0.6141    2.4206   -0.2981 H         1 <0>         0.0563
     38 H3         -0.8986    2.2316   -1.2169 H         1 <0>         0.0554
     39 H4         -0.9485    2.4035    0.5541 H         1 <0>         0.0597
     40 H5         -0.1327    0.5464    2.0129 H         1 <0>         0.0594
     41 H6          0.4984   -0.9485    1.2812 H         1 <0>         0.0569
     42 H7          1.4299    0.5635    1.1607 H         1 <0>         0.0570
     43 H8         -2.2356    0.1789   -1.0099 H         1 <0>         0.0582
     44 H9         -1.6240   -1.2186   -0.0927 H         1 <0>         0.0593
     45 H10        -2.2278    0.2167    0.7697 H         1 <0>         0.0594
     46 H11        -1.1867   -1.1712   -2.0818 H         1 <0>         0.1263
     47 H12         0.0804   -2.1032   -3.9762 H         1 <0>         0.1207
     48 H13         3.5817   -0.0712   -2.6340 H         1 <0>         0.1215
     49 H14         2.3125    0.8675   -0.7442 H         1 <0>         0.1208
     50 H15         3.7043   -1.9331   -4.2631 H         1 <0>         0.0918
     51 H16         2.2060   -2.6336   -4.9208 H         1 <0>         0.0834
     52 H17         4.5948   -1.4562   -6.4503 H         1 <0>         0.0943
     53 H18         3.1666   -2.1262   -7.2747 H         1 <0>         0.0902
     54 H19         3.2743    0.6478   -7.7942 H         1 <0>         0.4028
     55 H20         4.1333    1.3458   -9.8495 H         1 <0>         0.3958
     56 H21         6.4299    0.0350  -10.8414 H         1 <0>         0.0963
     57 H22         5.0016   -0.6349  -11.6658 H         1 <0>         0.0994
     58 H23         3.6409    0.7532  -13.1183 H         1 <0>         0.1329
     59 H24         3.5709    2.7115  -14.6075 H         1 <0>         0.1403
     60 H25         7.0690    2.3544  -11.1505 H         1 <0>         0.1357
     61 H26         7.6979    4.2779  -10.6245 H         1 <0>         0.0554
     62 H27         8.7528    3.4345  -11.7838 H         1 <0>         0.0586
     63 H28         8.8680    5.2009  -11.5977 H         1 <0>         0.1040
     64 H29         4.7131    5.4534  -14.2069 H         1 <0>         0.3895
     65 H30         0.9394   -1.4153   -6.7180 H         1 <0>         0.0726
     66 H31         0.6323   -0.2213   -5.4342 H         1 <0>         0.0813
     67 H32        -1.8757    2.7166   -8.2144 H         1 <0>         0.0652
     68 H33        -1.4692    3.0382   -9.9172 H         1 <0>         0.0730
     69 H34        -1.9597    1.4032   -9.4128 H         1 <0>         0.0672
     70 H35         1.8557    2.9810   -8.2961 H         1 <0>         0.0635
     71 H36         0.6759    3.9803   -9.1778 H         1 <0>         0.0751
     72 H37         0.3988    3.5783   -7.4661 H         1 <0>         0.0632
     73 H38         0.1405    0.4705  -10.3934 H         1 <0>         0.0643
     74 H39         0.6310    2.1055  -10.8978 H         1 <0>         0.0776
     75 H40         1.7208    1.1194   -9.8936 H         1 <0>         0.0584
@<TRIPOS>BOND
     1    1    2 1
     2    1   37 1
     3    1   38 1
     4    1   39 1
     5    2    3 1
     6    2    4 1
     7    2    5 1
     8    3   40 1
     9    3   41 1
    10    3   42 1
    11    4   43 1
    12    4   44 1
    13    4   45 1
    14    5   10 ar
    15    5    6 ar
    16    6    7 ar
    17    6   46 1
    18    7    8 ar
    19    7   47 1
    20    8    9 ar
    21    8   11 1
    22    9   10 ar
    23    9   48 1
    24   10   49 1
    25   11   12 1
    26   11   50 1
    27   11   51 1
    28   12   13 1
    29   12   14 1
    30   12   29 1
    31   14   15 1
    32   14   52 1
    33   14   53 1
    34   15   16 1
    35   15   54 1
    36   16   17 2
    37   16   18 1
    38   18   19 1
    39   18   55 1
    40   19   20 1
    41   19   56 1
    42   19   57 1
    43   20   25 ar
    44   20   21 ar
    45   21   22 ar
    46   21   58 1
    47   22   23 ar
    48   22   59 1
    49   23   24 ar
    50   23   28 1
    51   24   25 ar
    52   24   26 1
    53   25   60 1
    54   26   27 1
    55   27   61 1
    56   27   62 1
    57   27   63 1
    58   28   64 1
    59   29   30 1
    60   29   65 1
    61   29   66 1
    62   30   31 1
    63   31   32 2
    64   31   33 1
    65   33   34 1
    66   33   35 1
    67   33   36 1
    68   34   67 1
    69   34   68 1
    70   34   69 1
    71   35   70 1
    72   35   71 1
    73   35   72 1
    74   36   73 1
    75   36   74 1
    76   36   75 1
@<TRIPOS>MOLECULE
ZINC13523862
   75    76     0     0     0
SMALL
USER_CHARGES

@<TRIPOS>ATOM
      1 C1         -0.0187    1.5258    0.0104 C.3       1 <0>        -0.1391
      2 C2          0.0021   -0.0041    0.0020 C.3       1 <0>        -0.0315
      3 C3          0.7421   -0.5109    1.2415 C.3       1 <0>        -0.1394
      4 C4         -1.4333   -0.5336    0.0129 C.3       1 <0>        -0.1451
      5 C5          0.7074   -0.4901   -1.2379 C.ar      1 <0>        -0.0676
      6 C6          0.0361   -1.2843   -2.1485 C.ar      1 <0>        -0.1188
      7 C7          0.6831   -1.7301   -3.2859 C.ar      1 <0>        -0.1102
      8 C8          2.0014   -1.3813   -3.5127 C.ar      1 <0>        -0.0940
      9 C9          2.6724   -0.5863   -2.6025 C.ar      1 <0>        -0.1137
     10 C10         2.0241   -0.1370   -1.4673 C.ar      1 <0>        -0.1123
     11 C11         2.7070   -1.8681   -4.7521 C.3       1 <0>        -0.0682
     12 C12         2.5119   -0.8545   -5.8815 C.3       1 <0>        -0.0938
     13 H1          1.4468   -0.6761   -6.0295 H         1 <0>         0.0926
     14 C13         3.1209   -1.4057   -7.1723 C.3       1 <0>         0.1294
     15 N1          2.8301   -0.4908   -8.2790 N.pl3     1 <0>        -0.6756
     16 C14         3.2711   -0.7737   -9.5207 C.2       1 <0>         0.5604
     17 S1          4.1709   -2.2021   -9.8049 S.2       1 <0>        -0.6423
     18 N2          3.0036    0.0680  -10.5388 N.pl3     1 <0>        -0.6838
     19 C15         3.4829   -0.2394  -11.8886 C.3       1 <0>         0.1694
     20 C16         3.0533    0.8519  -12.8349 C.ar      1 <0>        -0.0856
     21 C17         1.8387    0.7592  -13.4888 C.ar      1 <0>        -0.1176
     22 C18         1.4400    1.7577  -14.3578 C.ar      1 <0>        -0.1078
     23 C19         2.2583    2.8546  -14.5749 C.ar      1 <0>         0.0873
     24 C20         3.4806    2.9481  -13.9165 C.ar      1 <0>         0.1024
     25 C21         3.8720    1.9462  -13.0430 C.ar      1 <0>        -0.1737
     26 O1          4.2872    4.0228  -14.1262 O.3       1 <0>        -0.3055
     27 C22         5.5271    4.0517  -13.4164 C.3       1 <0>         0.0235
     28 O2          1.8679    3.8375  -15.4298 O.3       1 <0>        -0.4852
     29 C23         3.2027    0.4597   -5.5122 C.3       1 <0>         0.0620
     30 O3          2.9230    1.4420   -6.5117 O.3       1 <0>        -0.3602
     31 C24         3.4593    2.6600   -6.3360 C.2       1 <0>         0.4702
     32 O4          4.1435    2.8846   -5.3658 O.2       1 <0>        -0.4946
     33 C25         3.2080    3.7471   -7.3489 C.3       1 <0>        -0.0562
     34 C26         3.9273    5.0256   -6.9139 C.3       1 <0>        -0.1359
     35 C27         3.7367    3.3040   -8.7146 C.3       1 <0>        -0.1385
     36 C28         1.7049    4.0157   -7.4466 C.3       1 <0>        -0.1436
     37 H2          1.0039    1.9031    0.0027 H         1 <0>         0.0567
     38 H3         -0.5459    1.8868   -0.8726 H         1 <0>         0.0554
     39 H4         -0.5289    1.8773    0.9072 H         1 <0>         0.0597
     40 H5          0.2319   -0.1594    2.1383 H         1 <0>         0.0595
     41 H6          0.7568   -1.6008    1.2356 H         1 <0>         0.0569
     42 H7          1.7647   -0.1336    1.2338 H         1 <0>         0.0569
     43 H8         -1.9605   -0.1726   -0.8702 H         1 <0>         0.0582
     44 H9         -1.4185   -1.6235    0.0069 H         1 <0>         0.0592
     45 H10        -1.9435   -0.1821    0.9097 H         1 <0>         0.0593
     46 H11        -0.9938   -1.5568   -1.9713 H         1 <0>         0.1267
     47 H12         0.1588   -2.3512   -3.9970 H         1 <0>         0.1222
     48 H13         3.7024   -0.3141   -2.7796 H         1 <0>         0.1205
     49 H14         2.5473    0.4872   -0.7580 H         1 <0>         0.1206
     50 H15         3.7711   -1.9799   -4.5441 H         1 <0>         0.0836
     51 H16         2.2923   -2.8305   -5.0520 H         1 <0>         0.0917
     52 H17         4.2002   -1.5005   -7.0533 H         1 <0>         0.0898
     53 H18         2.6917   -2.3843   -7.3876 H         1 <0>         0.0949
     54 H19         2.3203    0.3185   -8.1179 H         1 <0>         0.4027
     55 H20         2.4938    0.8774  -10.3778 H         1 <0>         0.3953
     56 H21         4.5708   -0.3066  -11.8814 H         1 <0>         0.0962
     57 H22         3.0624   -1.1903  -12.2157 H         1 <0>         0.0997
     58 H23         1.2000   -0.0953  -13.3205 H         1 <0>         0.1331
     59 H24         0.4910    1.6825  -14.8679 H         1 <0>         0.1404
     60 H25         4.8185    2.0181  -12.5279 H         1 <0>         0.1355
     61 H26         5.3323    4.0366  -12.3440 H         1 <0>         0.0551
     62 H27         6.1227    3.1807  -13.6898 H         1 <0>         0.0584
     63 H28         6.0721    4.9599  -13.6739 H         1 <0>         0.1039
     64 H29         1.3624    4.5467  -15.0094 H         1 <0>         0.3895
     65 H30         2.8317    0.8068   -4.5479 H         1 <0>         0.0812
     66 H31         4.2791    0.2997   -5.4512 H         1 <0>         0.0730
     67 H32         4.9981    4.8343   -6.8444 H         1 <0>         0.0659
     68 H33         3.7455    5.8119   -7.6465 H         1 <0>         0.0728
     69 H34         3.5506    5.3413   -5.9410 H         1 <0>         0.0668
     70 H35         3.2243    2.3932   -9.0244 H         1 <0>         0.0552
     71 H36         3.5549    4.0903   -9.4472 H         1 <0>         0.0763
     72 H37         4.8075    3.1127   -8.6450 H         1 <0>         0.0639
     73 H38         1.3283    4.3314   -6.4737 H         1 <0>         0.0641
     74 H39         1.5232    4.8020   -8.1792 H         1 <0>         0.0756
     75 H40         1.1925    3.1049   -7.7565 H         1 <0>         0.0663
@<TRIPOS>BOND
     1    1    2 1
     2    1   37 1
     3    1   38 1
     4    1   39 1
     5    2    3 1
     6    2    4 1
     7    2    5 1
     8    3   40 1
     9    3   41 1
    10    3   42 1
    11    4   43 1
    12    4   44 1
    13    4   45 1
    14    5   10 ar
    15    5    6 ar
    16    6    7 ar
    17    6   46 1
    18    7    8 ar
    19    7   47 1
    20    8    9 ar
    21    8   11 1
    22    9   10 ar
    23    9   48 1
    24   10   49 1
    25   11   12 1
    26   11   50 1
    27   11   51 1
    28   12   13 1
    29   12   14 1
    30   12   29 1
    31   14   15 1
    32   14   52 1
    33   14   53 1
    34   15   16 1
    35   15   54 1
    36   16   17 2
    37   16   18 1
    38   18   19 1
    39   18   55 1
    40   19   20 1
    41   19   56 1
    42   19   57 1
    43   20   25 ar
    44   20   21 ar
    45   21   22 ar
    46   21   58 1
    47   22   23 ar
    48   22   59 1
    49   23   24 ar
    50   23   28 1
    51   24   25 ar
    52   24   26 1
    53   25   60 1
    54   26   27 1
    55   27   61 1
    56   27   62 1
    57   27   63 1
    58   28   64 1
    59   29   30 1
    60   29   65 1
    61   29   66 1
    62   30   31 1
    63   31   32 2
    64   31   33 1
    65   33   34 1
    66   33   35 1
    67   33   36 1
    68   34   67 1
    69   34   68 1
    70   34   69 1
    71   35   70 1
    72   35   71 1
    73   35   72 1
    74   36   73 1
    75   36   74 1
    76   36   75 1
@<TRIPOS>MOLECULE
ZINC00044027
   41    43     0     0     0
SMALL
USER_CHARGES

@<TRIPOS>ATOM
      1 C1         -4.8538   -4.0638    0.9108 C.3       1 <0>        -0.0548
      2 N1         -4.6244   -2.8061    1.6344 N.4       1 <0>        -0.3863
      3 C2         -4.0000   -3.0949    2.9324 C.3       1 <0>        -0.0478
      4 C3         -3.7364   -1.9420    0.8453 C.3       1 <0>        -0.0093
      5 C4         -4.4383   -1.5396   -0.4533 C.3       1 <0>        -0.1865
      6 C5         -3.5134   -0.6397   -1.2752 C.3       1 <0>         0.1190
      7 N2         -4.1855   -0.2544   -2.5186 N.pl3     1 <0>        -0.5621
      8 C6         -4.9466    0.9115   -2.5039 C.ar      1 <0>         0.1833
      9 C7         -5.4466    1.3707   -1.2896 C.ar      1 <0>        -0.1632
     10 C8         -6.2007    2.5274   -1.2376 C.ar      1 <0>        -0.0789
     11 C9         -6.4648    3.2382   -2.3930 C.ar      1 <0>        -0.1269
     12 C10        -5.9746    2.7903   -3.6059 C.ar      1 <0>        -0.0533
     13 C11        -5.2180    1.6285   -3.6658 C.ar      1 <0>        -0.1513
     14 S1         -4.6102    1.0681   -5.2211 S.3       1 <0>         0.0418
     15 C12        -4.1728   -0.6126   -4.9268 C.ar      1 <0>        -0.1476
     16 C13        -4.0101   -1.0788   -3.6268 C.ar      1 <0>         0.2001
     17 C14        -3.6645   -2.4105   -3.4235 C.ar      1 <0>        -0.1605
     18 C15        -3.4778   -3.2563   -4.5018 C.ar      1 <0>         0.0017
     19 C16        -3.6338   -2.7836   -5.7916 C.ar      1 <0>        -0.1199
     20 C17        -3.9865   -1.4684   -6.0025 C.ar      1 <0>        -0.0415
     21 Cl1        -3.0468   -4.9167   -4.2348 Cl        1 <0>        -0.0547
     22 H1         -5.5127   -4.7049    1.4964 H         1 <0>         0.1270
     23 H2         -5.3171   -3.8495   -0.0523 H         1 <0>         0.1230
     24 H3         -3.9018   -4.5701    0.7514 H         1 <0>         0.1245
     25 H4         -3.0479   -3.6012    2.7730 H         1 <0>         0.1232
     26 H5         -3.8297   -2.1617    3.4693 H         1 <0>         0.1245
     27 H6         -4.6589   -3.7360    3.5180 H         1 <0>         0.1260
     28 H7         -3.4947   -1.0479    1.4199 H         1 <0>         0.1356
     29 H8         -2.8190   -2.4818    0.6102 H         1 <0>         0.1342
     30 H9         -4.6799   -2.4338   -1.0279 H         1 <0>         0.0966
     31 H10        -5.3556   -0.9999   -0.2183 H         1 <0>         0.0979
     32 H11        -3.2718    0.2545   -0.7007 H         1 <0>         0.0984
     33 H12        -2.5960   -1.1794   -1.5103 H         1 <0>         0.0962
     34 H13        -5.2447    0.8199   -0.3828 H         1 <0>         0.1245
     35 H14        -6.5853    2.8770   -0.2909 H         1 <0>         0.1332
     36 H15        -7.0538    4.1423   -2.3487 H         1 <0>         0.1374
     37 H16        -6.1810    3.3459   -4.5088 H         1 <0>         0.1390
     38 H17        -3.5416   -2.7862   -2.4184 H         1 <0>         0.1339
     39 H18        -3.4863   -3.4459   -6.6318 H         1 <0>         0.1476
     40 H19        -4.1082   -1.1006   -7.0106 H         1 <0>         0.1483
     41 H20        -5.5056   -2.3374    1.7820 H         1 <0>         0.4275
@<TRIPOS>BOND
     1    1    2 1
     2    1   22 1
     3    1   23 1
     4    1   24 1
     5    2    3 1
     6    2    4 1
     7    2   41 1
     8    3   25 1
     9    3   26 1
    10    3   27 1
    11    4    5 1
    12    4   28 1
    13    4   29 1
    14    5    6 1
    15    5   30 1
    16    5   31 1
    17    6    7 1
    18    6   32 1
    19    6   33 1
    20    7   16 1
    21    7    8 1
    22    8   13 ar
    23    8    9 ar
    24    9   10 ar
    25    9   34 1
    26   10   11 ar
    27   10   35 1
    28   11   12 ar
    29   11   36 1
    30   12   13 ar
    31   12   37 1
    32   13   14 1
    33   14   15 1
    34   15   20 ar
    35   15   16 ar
    36   16   17 ar
    37   17   18 ar
    38   17   38 1
    39   18   19 ar
    40   18   21 1
    41   19   20 ar
    42   19   39 1
    43   20   40 1
@<TRIPOS>MOLECULE
ZINC03816584
   71    72     0     0     0
SMALL
USER_CHARGES

@<TRIPOS>ATOM
      1 C1          0.5754    1.6453    0.5077 C.3       1 <0>        -0.1169
      2 C2          0.4637    0.1463    0.3999 C.ar      1 <0>        -0.0896
      3 C3          0.1578   -0.4386   -0.8149 C.ar      1 <0>        -0.1144
      4 C4          0.0554   -1.8134   -0.9138 C.ar      1 <0>        -0.1172
      5 C5          0.2593   -2.6037    0.2022 C.ar      1 <0>        -0.0867
      6 C6          0.5659   -2.0191    1.4164 C.ar      1 <0>        -0.1103
      7 C7          0.6726   -0.6441    1.5143 C.ar      1 <0>        -0.0846
      8 C8          1.0122   -0.0070    2.8371 C.3       1 <0>        -0.1174
      9 C9          0.1466   -4.1027    0.0946 C.3       1 <0>        -0.0679
     10 C10         1.5383   -4.7055   -0.1072 C.3       1 <0>        -0.0952
     11 H1          2.1986   -4.3711    0.6930 H         1 <0>         0.0920
     12 C11         1.4411   -6.2322   -0.0836 C.3       1 <0>         0.1336
     13 N1          2.7860   -6.8084   -0.1569 N.pl3     1 <0>        -0.6853
     14 C12         2.9471   -8.1465   -0.1509 C.2       1 <0>         0.5624
     15 N2          4.1844   -8.6766   -0.2184 N.pl3     1 <0>        -0.6694
     16 C13         4.3596  -10.1311   -0.2119 C.3       1 <0>         0.1869
     17 C14         5.8277  -10.4606   -0.2955 C.ar      1 <0>        -0.2372
     18 C15         6.4298  -10.6199   -1.5301 C.ar      1 <0>        -0.0544
     19 C16         7.7750  -10.9219   -1.6103 C.ar      1 <0>        -0.1897
     20 C17         8.5234  -11.0657   -0.4489 C.ar      1 <0>         0.2964
     21 C18         7.9154  -10.9051    0.7897 C.ar      1 <0>        -0.2609
     22 C19         6.5710  -10.5975    0.8626 C.ar      1 <0>        -0.0418
     23 N3          9.8840  -11.3716   -0.5264 N.2       1 <0>        -1.0960
     24 S1         10.7744  -11.5427    0.8594 S.o2      1 <0>         2.5260
     25 O1         10.7478  -10.2590    1.4682 O.2       1 <0>        -1.0303
     26 O2         10.2090  -12.6682    1.5171 O.2       1 <0>        -1.0284
     27 C20        12.4528  -11.9296    0.2902 C.3       1 <0>        -0.6376
     28 S2          1.5801   -9.1729   -0.0576 S.2       1 <0>        -0.6694
     29 C21         2.1003   -4.2511   -1.4557 C.3       1 <0>         0.0652
     30 O3          3.4488   -4.7053   -1.5872 O.3       1 <0>        -0.3562
     31 C22         4.0796   -4.4171   -2.7364 C.2       1 <0>         0.4738
     32 O4          3.5383   -3.7245   -3.5654 O.2       1 <0>        -0.5022
     33 C23         5.4629   -4.9573   -2.9927 C.3       1 <0>        -0.0571
     34 C24         6.0023   -4.3778   -4.3020 C.3       1 <0>        -0.1335
     35 C25         6.3873   -4.5600   -1.8401 C.3       1 <0>        -0.1435
     36 C26         5.4036   -6.4826   -3.0964 C.3       1 <0>        -0.1407
     37 H2          1.6025    1.9486    0.3049 H         1 <0>         0.0695
     38 H3         -0.0912    2.1123   -0.2173 H         1 <0>         0.0652
     39 H4          0.2956    1.9591    1.5133 H         1 <0>         0.0680
     40 H5         -0.0014    0.1788   -1.6866 H         1 <0>         0.1208
     41 H6         -0.1842   -2.2702   -1.8626 H         1 <0>         0.1214
     42 H7          0.7249   -2.6365    2.2882 H         1 <0>         0.1229
     43 H8          0.0938    0.2048    3.3848 H         1 <0>         0.0701
     44 H9          1.6337   -0.6874    3.4192 H         1 <0>         0.0666
     45 H10         1.5546    0.9225    2.6641 H         1 <0>         0.0678
     46 H11        -0.2925   -4.5006    1.0094 H         1 <0>         0.0913
     47 H12        -0.4871   -4.3594   -0.7542 H         1 <0>         0.0828
     48 H13         0.9590   -6.5514    0.8405 H         1 <0>         0.0905
     49 H14         0.8532   -6.5721   -0.9362 H         1 <0>         0.0859
     50 H15         3.5605   -6.2269   -0.2098 H         1 <0>         0.4018
     51 H16         3.9467  -10.5426    0.7091 H         1 <0>         0.0826
     52 H17         3.8409  -10.5633   -1.0676 H         1 <0>         0.0836
     53 H18         5.8473  -10.5082   -2.4327 H         1 <0>         0.1042
     54 H19         8.2446  -11.0465   -2.5749 H         1 <0>         0.1115
     55 H20         8.4943  -11.0166    1.6946 H         1 <0>         0.1021
     56 H21         6.0987  -10.4682    1.8252 H         1 <0>         0.1013
     57 H22        12.8238  -11.1130   -0.3292 H         1 <0>         0.1150
     58 H23        13.1079  -12.0586    1.1518 H         1 <0>         0.1016
     59 H24        12.4353  -12.8497   -0.2939 H         1 <0>         0.1156
     60 H25         1.4960   -4.6692   -2.2607 H         1 <0>         0.0712
     61 H26         2.0765   -3.1627   -1.5111 H         1 <0>         0.0769
     62 H27         6.0445   -3.2911   -4.2281 H         1 <0>         0.0621
     63 H28         7.0028   -4.7685   -4.4874 H         1 <0>         0.0740
     64 H29         5.3437   -4.6608   -5.1231 H         1 <0>         0.0652
     65 H30         6.0507   -5.0415   -0.9219 H         1 <0>         0.0673
     66 H31         7.4054   -4.8777   -2.0648 H         1 <0>         0.0778
     67 H32         6.3642   -3.4778   -1.7123 H         1 <0>         0.0597
     68 H33         4.7451   -6.7657   -3.9175 H         1 <0>         0.0622
     69 H34         6.4041   -6.8734   -3.2818 H         1 <0>         0.0827
     70 H35         5.0193   -6.8955   -2.1636 H         1 <0>         0.0600
     71 H36         4.9590   -8.0950   -0.2713 H         1 <0>         0.3962
@<TRIPOS>BOND
     1    1    2 1
     2    1   37 1
     3    1   38 1
     4    1   39 1
     5    2    7 ar
     6    2    3 ar
     7    3    4 ar
     8    3   40 1
     9    4    5 ar
    10    4   41 1
    11    5    6 ar
    12    5    9 1
    13    6    7 ar
    14    6   42 1
    15    7    8 1
    16    8   43 1
    17    8   44 1
    18    8   45 1
    19    9   10 1
    20    9   46 1
    21    9   47 1
    22   10   11 1
    23   10   12 1
    24   10   29 1
    25   12   13 1
    26   12   48 1
    27   12   49 1
    28   13   14 1
    29   13   50 1
    30   14   15 1
    31   14   28 2
    32   15   16 1
    33   15   71 1
    34   16   17 1
    35   16   51 1
    36   16   52 1
    37   17   22 ar
    38   17   18 ar
    39   18   19 ar
    40   18   53 1
    41   19   20 ar
    42   19   54 1
    43   20   21 ar
    44   20   23 1
    45   21   22 ar
    46   21   55 1
    47   22   56 1
    48   23   24 1
    49   24   25 2
    50   24   26 2
    51   24   27 1
    52   27   57 1
    53   27   58 1
    54   27   59 1
    55   29   30 1
    56   29   60 1
    57   29   61 1
    58   30   31 1
    59   31   32 2
    60   31   33 1
    61   33   34 1
    62   33   35 1
    63   33   36 1
    64   34   62 1
    65   34   63 1
    66   34   64 1
    67   35   65 1
    68   35   66 1
    69   35   67 1
    70   36   68 1
    71   36   69 1
    72   36   70 1
