@<TRIPOS>MOLECULE
ZINC01846448
   31    32     0     0     0
SMALL
USER_CHARGES

@<TRIPOS>ATOM
      1 C1          0.0102    1.4271    0.5225 C.ar      1 <0>         0.0212
      2 C2          1.1914    2.1206    0.3480 C.ar      1 <0>        -0.1436
      3 C3          2.3868    1.4275    0.2002 C.ar      1 <0>        -0.0214
      4 C4          2.3887    0.0381    0.2287 C.ar      1 <0>        -0.0394
      5 C5          1.2037   -0.6488    0.4036 C.ar      1 <0>         0.0406
      6 C6          0.0159    0.0443    0.5503 C.ar      1 <0>        -0.0610
      7 N1         -1.2524   -0.6957    0.7380 N.pl3     1 <0>         0.0335
      8 O1         -2.2915   -0.0913    0.8669 O.2       1 <0>        -0.1395
      9 O2         -1.2491   -1.9044    0.7626 O.3       1 <0>        -0.1340
     10 N2          3.6595   -0.7046    0.0713 N.pl3     1 <0>         0.0367
     11 O3          3.6603   -1.9133    0.0962 O.2       1 <0>        -0.1216
     12 O4          4.6965   -0.1024   -0.0822 O.3       1 <0>        -0.1358
     13 S1          3.8964    2.3083   -0.0233 S.3       1 <0>         0.2473
     14 C7          3.3920    3.9911   -0.1590 C.ar      1 <0>        -0.1241
     15 C8          3.5472    4.8538    0.9194 C.ar      1 <0>        -0.0507
     16 C9          3.1508    6.1719    0.8095 C.ar      1 <0>        -0.0122
     17 C10         2.5995    6.6337   -0.3719 C.ar      1 <0>        -0.0187
     18 C11         2.4432    5.7779   -1.4470 C.ar      1 <0>         0.0007
     19 C12         2.8434    4.4602   -1.3465 C.ar      1 <0>        -0.0110
     20 N3          2.6823    3.5467   -2.5001 N.pl3     1 <0>         0.0231
     21 O5          2.2049    3.9555   -3.5329 O.2       1 <0>        -0.1190
     22 O6          3.0281    2.3917   -2.4095 O.3       1 <0>        -0.1265
     23 N4          2.1752    8.0474   -0.4857 N.pl3     1 <0>         0.0237
     24 O7          2.3109    8.7967    0.4533 O.2       1 <0>        -0.1236
     25 O8          1.6932    8.4526   -1.5177 O.3       1 <0>        -0.1261
     26 H1         -0.9186    1.9651    0.6419 H         1 <0>         0.1761
     27 H2          1.1861    3.2003    0.3260 H         1 <0>         0.1518
     28 H3          1.2044   -1.7286    0.4259 H         1 <0>         0.1913
     29 H4          3.9769    4.4937    1.8424 H         1 <0>         0.1855
     30 H5          3.2710    6.8429    1.6471 H         1 <0>         0.1853
     31 H6          2.0116    6.1417   -2.3678 H         1 <0>         0.1914
@<TRIPOS>BOND
     1    1    6 ar
     2    1    2 ar
     3    1   26 1
     4    2    3 ar
     5    2   27 1
     6    3    4 ar
     7    3   13 1
     8    4    5 ar
     9    4   10 1
    10    5    6 ar
    11    5   28 1
    12    6    7 1
    13    7    8 2
    14    7    9 1
    15   10   11 2
    16   10   12 1
    17   13   14 1
    18   14   19 ar
    19   14   15 ar
    20   15   16 ar
    21   15   29 1
    22   16   17 ar
    23   16   30 1
    24   17   18 ar
    25   17   23 1
    26   18   19 ar
    27   18   31 1
    28   19   20 1
    29   20   21 2
    30   20   22 1
    31   23   24 2
    32   23   25 1
@<TRIPOS>MOLECULE
ZINC01736331
   17    18     0     0     0
SMALL
USER_CHARGES
5,7-dinitro-2,1,3-benzothiadiazole
@<TRIPOS>ATOM
      1 C1          0.0021   -0.0041    0.0020 C.ar      1 <0>         0.0899
      2 C2         -0.0163    1.3502    0.0095 C.ar      1 <0>        -0.0390
      3 C3          1.1624    2.0960    0.0022 C.ar      1 <0>         0.0248
      4 C4          2.3783    1.4994   -0.0127 C.ar      1 <0>         0.0143
      5 C5          2.4742    0.0835   -0.0217 C.ar      1 <0>         0.1005
      6 C6          1.2405   -0.6972   -0.0140 C.ar      1 <0>         0.0414
      7 N1          1.4778   -2.0073   -0.0231 N.2       1 <0>        -0.5181
      8 S1          3.0362   -2.1701   -0.0387 S.3       1 <0>         0.8803
      9 N2          3.5565   -0.6920   -0.0360 N.2       1 <0>        -0.5231
     10 N3          3.6073    2.3245   -0.0200 N.pl3     1 <0>         0.0250
     11 O1          3.5251    3.5397   -0.0123 O.2       1 <0>        -0.1458
     12 O2          4.7008    1.7881   -0.0337 O.3       1 <0>        -0.1059
     13 N4         -1.3177    2.0553    0.0194 N.pl3     1 <0>         0.0253
     14 O3         -2.3557    1.4180    0.0208 O.2       1 <0>        -0.1332
     15 O4         -1.3507    3.2728    0.0262 O.3       1 <0>        -0.1251
     16 H1         -0.9259   -0.5566    0.0079 H         1 <0>         0.1924
     17 H2          1.1042    3.1744    0.0082 H         1 <0>         0.1963
@<TRIPOS>BOND
     1    1    6 ar
     2    1    2 ar
     3    1   16 1
     4    2    3 ar
     5    2   13 1
     6    3    4 ar
     7    3   17 1
     8    4    5 ar
     9    4   10 1
    10    5    9 2
    11    5    6 ar
    12    6    7 2
    13    7    8 1
    14    8    9 1
    15   10   11 2
    16   10   12 1
    17   13   14 2
    18   13   15 1
