@<TRIPOS>MOLECULE
ZINC05162918
   35    37     0     0     0
SMALL
USER_CHARGES
4-(indol-1-ylmethyl)benzamidine
@<TRIPOS>ATOM
      1 C1          0.9235    4.3656   -0.6133 C.ar      1 <0>        -0.1440
      2 C2         -0.2008    3.5649   -0.7631 C.ar      1 <0>        -0.0930
      3 C3         -1.4593    4.0679   -0.5172 C.ar      1 <0>        -0.1367
      4 C4         -1.6073    5.3882   -0.1043 C.ar      1 <0>         0.0968
      5 C5         -0.4651    6.1954    0.0455 C.ar      1 <0>        -0.1091
      6 C6          0.8008    5.6664   -0.2143 C.ar      1 <0>        -0.0661
      7 C7         -0.9509    7.5083    0.4769 C.2       1 <0>        -0.1902
      8 C8         -2.2883    7.4242    0.5589 C.2       1 <0>         0.0435
      9 N1         -2.6983    6.1649    0.2152 N.pl3     1 <0>        -0.4864
     10 C9         -4.0909    5.7105    0.1909 C.3       1 <0>         0.1392
     11 C10        -4.4229    5.0384    1.4981 C.ar      1 <0>        -0.0428
     12 C11        -4.2283    3.6762    1.6413 C.ar      1 <0>        -0.0957
     13 C12        -4.5259    3.0559    2.8374 C.ar      1 <0>        -0.0543
     14 C13        -5.0333    3.8032    3.8999 C.ar      1 <0>        -0.1525
     15 C14        -5.2323    5.1751    3.7478 C.ar      1 <0>        -0.0608
     16 C15        -4.9264    5.7850    2.5484 C.ar      1 <0>        -0.0949
     17 C16        -5.3591    3.1427    5.1847 C.cat     1 <0>         0.6000
     18 N2         -5.1615    1.7871    5.3320 N.pl3     1 <0>        -0.7793
     19 H1          1.9028    3.9569   -0.8142 H         1 <0>         0.1258
     20 H2         -0.0877    2.5386   -1.0800 H         1 <0>         0.1269
     21 H3         -2.3280    3.4382   -0.6405 H         1 <0>         0.1144
     22 H4          1.6798    6.2834   -0.0998 H         1 <0>         0.1252
     23 H5         -0.3478    8.3787    0.6888 H         1 <0>         0.1501
     24 H6         -2.9434    8.2312    0.8522 H         1 <0>         0.1693
     25 H7         -4.7498    6.5665    0.0449 H         1 <0>         0.1115
     26 H8         -4.2279    5.0029   -0.6267 H         1 <0>         0.1055
     27 H9         -3.8388    3.0979    0.8165 H         1 <0>         0.1473
     28 H10        -4.3695    1.9931    2.9494 H         1 <0>         0.1406
     29 H11        -5.6245    5.7592    4.5672 H         1 <0>         0.1390
     30 H12        -5.0799    6.8473    2.4294 H         1 <0>         0.1490
     31 H13        -6.0761    3.5016    7.0559 H         1 <0>         0.4452
     32 H14        -4.8090    1.2654    4.5941 H         1 <0>         0.4431
     33 H15        -5.3749    1.3545    6.1734 H         1 <0>         0.4321
     34 N3         -5.8366    3.9100    6.1523 N.pl3     1 <0>        -0.7585
     35 H16        -5.9658    4.9161    5.9932 H         1 <0>         0.4601
@<TRIPOS>BOND
     1    1    6 ar
     2    1    2 ar
     3    1   19 1
     4    2    3 ar
     5    2   20 1
     6    3    4 ar
     7    3   21 1
     8    4    9 1
     9    4    5 ar
    10    5    6 ar
    11    5    7 1
    12    6   22 1
    13    7    8 2
    14    7   23 1
    15    8    9 1
    16    8   24 1
    17    9   10 1
    18   10   11 1
    19   10   25 1
    20   10   26 1
    21   11   16 ar
    22   11   12 ar
    23   12   13 ar
    24   12   27 1
    25   13   14 ar
    26   13   28 1
    27   14   15 ar
    28   14   17 1
    29   15   16 ar
    30   15   29 1
    31   16   30 1
    32   17   18 1
    33   17   34 2
    34   18   32 1
    35   18   33 1
    36   31   34 1
    37   34   35 1
@<TRIPOS>MOLECULE
ZINC00159755
   23    23     0     0     0
SMALL
USER_CHARGES
piperidine-1-carboxamidine
@<TRIPOS>ATOM
      1 C1          1.4165    4.1687    0.9705 C.3       1 <0>        -0.1293
      2 C2          2.3565    2.9657    1.0786 C.3       1 <0>        -0.1389
      3 C3          2.0675    1.9922   -0.0682 C.3       1 <0>         0.1034
      4 N1          0.6397    1.6463   -0.0463 N.pl3     1 <0>        -0.5871
      5 C4         -0.3506    2.7315   -0.0609 C.3       1 <0>         0.1021
      6 C5         -0.0343    3.6969    1.0915 C.3       1 <0>        -0.1395
      7 C6          0.2379    0.3317   -0.0185 C.cat     1 <0>         0.7343
      8 N2         -1.0954    0.0231    0.1123 N.pl3     1 <0>        -0.8102
      9 H1          1.6368    4.8747    1.7712 H         1 <0>         0.0835
     10 H2          1.5605    4.6565    0.0065 H         1 <0>         0.0753
     11 H3          2.1956    2.4627    2.0321 H         1 <0>         0.0762
     12 H4          3.3904    3.3052    1.0159 H         1 <0>         0.0976
     13 H5          2.6643    1.0891    0.0597 H         1 <0>         0.0895
     14 H6          2.3150    2.4619   -1.0202 H         1 <0>         0.1042
     15 H7         -0.2967    3.2626   -1.0113 H         1 <0>         0.1028
     16 H8         -1.3496    2.3165    0.0720 H         1 <0>         0.0900
     17 H9         -0.1728    3.1870    2.0448 H         1 <0>         0.0759
     18 H10        -0.7020    4.5568    1.0385 H         1 <0>         0.0962
     19 H11         0.9360   -1.5797   -0.1064 H         1 <0>         0.4494
     20 H12        -1.7597    0.7300    0.1069 H         1 <0>         0.4364
     21 H13        -1.3720   -0.9015    0.2099 H         1 <0>         0.4370
     22 N3          1.1840   -0.5903   -0.1220 N.pl3     1 <0>        -0.8007
     23 H14         2.1668   -0.3088   -0.2178 H         1 <0>         0.4520
@<TRIPOS>BOND
     1    1    6 1
     2    1    2 1
     3    1    9 1
     4    1   10 1
     5    2    3 1
     6    2   11 1
     7    2   12 1
     8    3    4 1
     9    3   13 1
    10    3   14 1
    11    4    5 1
    12    4    7 1
    13    5    6 1
    14    5   15 1
    15    5   16 1
    16    6   17 1
    17    6   18 1
    18    7    8 1
    19    7   22 2
    20    8   20 1
    21    8   21 1
    22   19   22 1
    23   22   23 1
@<TRIPOS>MOLECULE
ZINC03807172
   71    73     0     0     0
SMALL
USER_CHARGES

@<TRIPOS>ATOM
      1 C1          0.9385   -1.7701    0.1611 C.3       1 <0>        -0.1485
      2 C2          0.2089   -2.6475    1.1803 C.3       1 <0>        -0.0921
      3 H1          0.2893   -3.6931    0.8828 H         1 <0>         0.0674
      4 C3         -1.2666   -2.2452    1.2359 C.3       1 <0>        -0.1301
      5 C4         -1.3743   -0.7664    1.6209 C.3       1 <0>         0.1066
      6 N1         -0.6421   -0.5499    2.8762 N.am      1 <0>        -0.5960
      7 C5          0.7591   -0.9839    2.9606 C.3       1 <0>         0.0788
      8 H2          1.3682   -0.3864    2.2822 H         1 <0>         0.0615
      9 C6          0.8427   -2.4601    2.5606 C.3       1 <0>        -0.1124
     10 C7          1.2574   -0.8109    4.3722 C.2       1 <0>         0.5048
     11 O1          0.6399   -1.3029    5.3013 O.co2     1 <0>        -0.6486
     12 O2          2.2780   -0.1789    4.5852 O.co2     1 <0>        -0.7077
     13 C8         -1.2442    0.0360    3.9301 C.2       1 <0>         0.4662
     14 O3         -0.6565    0.1347    4.9864 O.2       1 <0>        -0.4237
     15 C9         -2.6475    0.5685    3.7959 C.3       1 <0>         0.1413
     16 H3         -3.2576   -0.1492    3.2475 H         1 <0>         0.0995
     17 C10        -2.6185    1.8974    3.0381 C.3       1 <0>        -0.1163
     18 C11        -4.0510    2.3655    2.7744 C.3       1 <0>        -0.1370
     19 C12        -4.0220    3.6943    2.0166 C.3       1 <0>         0.0907
     20 N2         -5.3937    4.1426    1.7641 N.pl3     1 <0>        -0.6904
     21 C13        -5.6181    5.3150    1.0961 C.cat     1 <0>         0.7396
     22 N3         -6.8652    5.7225    0.8666 N.pl3     1 <0>        -0.7983
     23 N4         -4.5894    6.0490    0.6752 N.pl3     1 <0>        -0.7927
     24 N5         -3.2196    0.7785    5.1281 N.pl3     1 <0>        -1.0973
     25 S1         -4.1335   -0.4088    5.8333 S.o2      1 <0>         2.6831
     26 O4         -3.3907   -1.6148    5.7192 O.2       1 <0>        -0.9257
     27 O5         -4.5676    0.1029    7.0859 O.2       1 <0>        -0.9569
     28 C14        -5.5776   -0.6113    4.8443 C.ar      1 <0>        -0.7427
     29 C15        -5.7736   -1.7832    4.1411 C.ar      1 <0>         0.0208
     30 C16        -6.9075   -1.9406    3.3657 C.ar      1 <0>        -0.1843
     31 C17        -7.8454   -0.9286    3.2939 C.ar      1 <0>        -0.0247
     32 C18        -7.6570    0.2497    3.9962 C.ar      1 <0>        -0.1780
     33 C19        -6.5220    0.4068    4.7769 C.ar      1 <0>         0.3092
     34 N6         -6.3034    1.5875    5.4951 N.pl3     1 <0>        -0.7471
     35 C20        -7.4164    2.5312    5.6665 C.3       1 <0>         0.1214
     36 C21        -8.1197    2.6779    4.3108 C.3       1 <0>        -0.1017
     37 H4         -7.3994    3.0000    3.5587 H         1 <0>         0.0599
     38 C22        -8.7012    1.3305    3.8995 C.3       1 <0>        -0.0677
     39 C23        -9.2402    3.7136    4.4240 C.3       1 <0>        -0.1512
     40 H5          1.9893   -2.0568    0.1210 H         1 <0>         0.0548
     41 H6          0.4876   -1.9039   -0.8222 H         1 <0>         0.0474
     42 H7          0.8582   -0.7245    0.4584 H         1 <0>         0.0583
     43 H8         -1.7232   -2.4009    0.2585 H         1 <0>         0.0662
     44 H9         -1.7817   -2.8532    1.9796 H         1 <0>         0.0686
     45 H10        -0.9392   -0.1511    0.8333 H         1 <0>         0.0624
     46 H11        -2.4223   -0.5000    1.7585 H         1 <0>         0.0666
     47 H12         0.3077   -3.0660    3.2919 H         1 <0>         0.0708
     48 H13         1.8875   -2.7687    2.5262 H         1 <0>         0.0656
     49 H14        -2.0961    2.6448    3.6352 H         1 <0>         0.0895
     50 H15        -2.0996    1.7631    2.0889 H         1 <0>         0.0927
     51 H16        -4.5734    1.6181    2.1773 H         1 <0>         0.0854
     52 H17        -4.5699    2.4998    3.7235 H         1 <0>         0.0850
     53 H18        -3.4996    4.4418    2.6137 H         1 <0>         0.0965
     54 H19        -3.5031    3.5601    1.0675 H         1 <0>         0.0969
     55 H20        -6.1428    3.6080    2.0707 H         1 <0>         0.4327
     56 H21        -7.6143    5.1880    1.1731 H         1 <0>         0.4391
     57 H22        -3.6812    5.7522    0.8423 H         1 <0>         0.4415
     58 H23        -4.7485    6.8804    0.2015 H         1 <0>         0.4392
     59 H24        -3.0631    1.6130    5.5971 H         1 <0>         0.4177
     60 H25        -5.0420   -2.5758    4.1964 H         1 <0>         0.1452
     61 H26        -7.0602   -2.8567    2.8144 H         1 <0>         0.1315
     62 H27        -8.7294   -1.0570    2.6870 H         1 <0>         0.1275
     63 H28        -5.4314    1.7798    5.8740 H         1 <0>         0.4020
     64 H29        -8.1176    2.1446    6.4061 H         1 <0>         0.0714
     65 H30        -7.0334    3.4989    5.9903 H         1 <0>         0.0864
     66 H31        -9.0704    1.3842    2.8753 H         1 <0>         0.0771
     67 H32        -9.5300    1.0914    4.5659 H         1 <0>         0.0773
     68 H33        -8.8185    4.6743    4.7194 H         1 <0>         0.0590
     69 H34        -9.7386    3.8165    3.4601 H         1 <0>         0.0600
     70 H35        -9.9618    3.3877    5.1732 H         1 <0>         0.0664
     71 H36        -7.0243    6.5539    0.3929 H         1 <0>         0.4396
@<TRIPOS>BOND
     1    1    2 1
     2    1   40 1
     3    1   41 1
     4    1   42 1
     5    2    3 1
     6    2    9 1
     7    2    4 1
     8    4    5 1
     9    4   43 1
    10    4   44 1
    11    5    6 1
    12    5   45 1
    13    5   46 1
    14    6    7 1
    15    6   13 am
    16    7    8 1
    17    7    9 1
    18    7   10 1
    19    9   47 1
    20    9   48 1
    21   10   11 2
    22   10   12 1
    23   13   14 2
    24   13   15 1
    25   15   16 1
    26   15   17 1
    27   15   24 1
    28   17   18 1
    29   17   49 1
    30   17   50 1
    31   18   19 1
    32   18   51 1
    33   18   52 1
    34   19   20 1
    35   19   53 1
    36   19   54 1
    37   20   21 1
    38   20   55 1
    39   21   22 2
    40   21   23 1
    41   22   56 1
    42   22   71 1
    43   23   57 1
    44   23   58 1
    45   24   25 1
    46   24   59 1
    47   25   26 2
    48   25   27 2
    49   25   28 1
    50   28   33 ar
    51   28   29 ar
    52   29   30 ar
    53   29   60 1
    54   30   31 ar
    55   30   61 1
    56   31   32 ar
    57   31   62 1
    58   32   38 1
    59   32   33 ar
    60   33   34 1
    61   34   35 1
    62   34   63 1
    63   35   36 1
    64   35   64 1
    65   35   65 1
    66   36   37 1
    67   36   38 1
    68   36   39 1
    69   38   66 1
    70   38   67 1
    71   39   68 1
    72   39   69 1
    73   39   70 1
@<TRIPOS>MOLECULE
ZINC03917722
   71    73     0     0     0
SMALL
USER_CHARGES

@<TRIPOS>ATOM
      1 C1          1.0040   -1.4893    0.2091 C.3       1 <0>        -0.1484
      2 C2          0.2597   -2.4151    1.1733 C.3       1 <0>        -0.0921
      3 H1          0.3366   -3.4438    0.8212 H         1 <0>         0.0674
      4 C3         -1.2139   -2.0068    1.2369 C.3       1 <0>        -0.1301
      5 C4         -1.3165   -0.5499    1.6992 C.3       1 <0>         0.1068
      6 N1         -0.5949   -0.4055    2.9709 N.am      1 <0>        -0.5960
      7 C5          0.8028   -0.8523    3.0448 C.3       1 <0>         0.0787
      8 H2          1.4218   -0.2235    2.4049 H         1 <0>         0.0615
      9 C6          0.8814   -2.3056    2.5674 C.3       1 <0>        -0.1124
     10 C7          1.2888   -0.7580    4.4682 C.2       1 <0>         0.5051
     11 O1          0.6607   -1.2965    5.3637 O.co2     1 <0>        -0.6489
     12 O2          2.3101   -0.1432    4.7242 O.co2     1 <0>        -0.7077
     13 C8         -1.2034    0.1273    4.0491 C.2       1 <0>         0.4664
     14 O3         -0.6265    0.1624    5.1153 O.2       1 <0>        -0.4246
     15 C9         -2.6005    0.6793    3.9297 C.3       1 <0>         0.1423
     16 H3         -3.2080    0.0036    3.3276 H         1 <0>         0.0992
     17 C10        -2.5503    2.0539    3.2596 C.3       1 <0>        -0.1151
     18 C11        -3.9751    2.5469    2.9995 C.3       1 <0>        -0.1388
     19 C12        -3.9249    3.9214    2.3294 C.3       1 <0>         0.0907
     20 N2         -5.2892    4.3935    2.0804 N.pl3     1 <0>        -0.6907
     21 C13        -5.4948    5.6077    1.4851 C.cat     1 <0>         0.7398
     22 N3         -6.7352    6.0369    1.2587 N.pl3     1 <0>        -0.7984
     23 N4         -4.4546    6.3608    1.1317 N.pl3     1 <0>        -0.7926
     24 N5         -3.1904    0.8080    5.2645 N.pl3     1 <0>        -1.0930
     25 S1         -4.1318   -0.4101    5.8747 S.o2      1 <0>         2.6870
     26 O4         -3.4145   -1.6195    5.6691 O.2       1 <0>        -0.9265
     27 O5         -4.5588    0.0128    7.1623 O.2       1 <0>        -0.9623
     28 C14        -5.5767   -0.5047    4.8708 C.ar      1 <0>        -0.7431
     29 C15        -5.8178   -1.6334    4.1130 C.ar      1 <0>         0.0215
     30 C16        -6.9520   -1.7058    3.3256 C.ar      1 <0>        -0.1843
     31 C17        -7.8434   -0.6506    3.2934 C.ar      1 <0>        -0.0243
     32 C18        -7.6087    0.4855    4.0491 C.ar      1 <0>        -0.1799
     33 C19        -6.4764    0.5550    4.8464 C.ar      1 <0>         0.3101
     34 N6         -6.2208    1.6841    5.6323 N.pl3     1 <0>        -0.7523
     35 C20        -6.9948    2.9090    5.3890 C.3       1 <0>         0.1292
     36 C21        -8.4673    2.5090    5.2284 C.3       1 <0>        -0.1179
     37 H4         -8.7966    1.9652    6.1138 H         1 <0>         0.0877
     38 C22        -8.5977    1.6194    3.9865 C.3       1 <0>        -0.0603
     39 C23        -9.3230    3.7648    5.0505 C.3       1 <0>        -0.1432
     40 H5          2.0534   -1.7802    0.1633 H         1 <0>         0.0547
     41 H6          0.5616   -1.5675   -0.7840 H         1 <0>         0.0474
     42 H7          0.9272   -0.4605    0.5610 H         1 <0>         0.0583
     43 H8         -1.6622   -2.1072    0.2484 H         1 <0>         0.0661
     44 H9         -1.7396   -2.6503    1.9424 H         1 <0>         0.0688
     45 H10        -0.8703    0.1036    0.9496 H         1 <0>         0.0623
     46 H11        -2.3641   -0.2846    1.8414 H         1 <0>         0.0666
     47 H12         0.3360   -2.9462    3.2604 H         1 <0>         0.0708
     48 H13         1.9247   -2.6187    2.5261 H         1 <0>         0.0655
     49 H14        -2.0357    2.7582    3.9133 H         1 <0>         0.0889
     50 H15        -2.0139    1.9776    2.3137 H         1 <0>         0.0918
     51 H16        -4.4896    1.8426    2.3458 H         1 <0>         0.0846
     52 H17        -4.5115    2.6231    3.9454 H         1 <0>         0.0884
     53 H18        -3.4103    4.6257    2.9831 H         1 <0>         0.0965
     54 H19        -3.3885    3.8451    1.3836 H         1 <0>         0.0965
     55 H20        -6.0467    3.8450    2.3378 H         1 <0>         0.4331
     56 H21        -7.4928    5.4884    1.5160 H         1 <0>         0.4391
     57 H22        -3.5513    6.0483    1.2966 H         1 <0>         0.4415
     58 H23        -4.6004    7.2219    0.7096 H         1 <0>         0.4393
     59 H24        -3.0297    1.6068    5.7908 H         1 <0>         0.4185
     60 H25        -5.1212   -2.4584    4.1351 H         1 <0>         0.1452
     61 H26        -7.1414   -2.5893    2.7339 H         1 <0>         0.1315
     62 H27        -8.7272   -0.7122    2.6757 H         1 <0>         0.1273
     63 H28        -5.5438    1.6584    6.3265 H         1 <0>         0.4111
     64 H29        -6.8868    3.5880    6.2348 H         1 <0>         0.0877
     65 H30        -6.6425    3.3935    4.4784 H         1 <0>         0.0494
     66 H31        -8.4158    2.2069    3.0866 H         1 <0>         0.0659
     67 H32        -9.6088    1.2140    3.9501 H         1 <0>         0.0785
     68 H33        -8.9953    4.3050    4.1623 H         1 <0>         0.0488
     69 H34       -10.3687    3.4788    4.9366 H         1 <0>         0.0641
     70 H35        -9.2148    4.4053    5.9258 H         1 <0>         0.0616
     71 H36        -6.8810    6.8979    0.8365 H         1 <0>         0.4396
@<TRIPOS>BOND
     1    1    2 1
     2    1   40 1
     3    1   41 1
     4    1   42 1
     5    2    3 1
     6    2    9 1
     7    2    4 1
     8    4    5 1
     9    4   43 1
    10    4   44 1
    11    5    6 1
    12    5   45 1
    13    5   46 1
    14    6    7 1
    15    6   13 am
    16    7    8 1
    17    7    9 1
    18    7   10 1
    19    9   47 1
    20    9   48 1
    21   10   11 2
    22   10   12 1
    23   13   14 2
    24   13   15 1
    25   15   16 1
    26   15   17 1
    27   15   24 1
    28   17   18 1
    29   17   49 1
    30   17   50 1
    31   18   19 1
    32   18   51 1
    33   18   52 1
    34   19   20 1
    35   19   53 1
    36   19   54 1
    37   20   21 1
    38   20   55 1
    39   21   22 2
    40   21   23 1
    41   22   56 1
    42   22   71 1
    43   23   57 1
    44   23   58 1
    45   24   25 1
    46   24   59 1
    47   25   26 2
    48   25   27 2
    49   25   28 1
    50   28   33 ar
    51   28   29 ar
    52   29   30 ar
    53   29   60 1
    54   30   31 ar
    55   30   61 1
    56   31   32 ar
    57   31   62 1
    58   32   38 1
    59   32   33 ar
    60   33   34 1
    61   34   35 1
    62   34   63 1
    63   35   36 1
    64   35   64 1
    65   35   65 1
    66   36   37 1
    67   36   38 1
    68   36   39 1
    69   38   66 1
    70   38   67 1
    71   39   68 1
    72   39   69 1
    73   39   70 1
@<TRIPOS>MOLECULE
ZINC02003646
   53    56     0     0     0
SMALL
USER_CHARGES

@<TRIPOS>ATOM
      1 C1          1.2474    1.3576    1.1081 C.ar      1 <0>        -0.0578
      2 C2          0.5264    2.1037    0.1929 C.ar      1 <0>        -0.1354
      3 C3         -0.0411    1.4933   -0.9108 C.ar      1 <0>        -0.0160
      4 C4          0.1097    0.1351   -1.1053 C.ar      1 <0>        -0.6646
      5 C5          0.8352   -0.6212   -0.1870 C.ar      1 <0>         0.0545
      6 C6          1.4046   -0.0009    0.9238 C.ar      1 <0>        -0.1261
      7 C7          1.0003   -2.0814   -0.3903 C.ar      1 <0>        -0.1289
      8 C8          2.2659   -2.6140   -0.6308 C.ar      1 <0>        -0.0687
      9 C9          2.4170   -3.9712   -0.8195 C.ar      1 <0>        -0.1515
     10 C10         1.3086   -4.8084   -0.7701 C.ar      1 <0>         0.1581
     11 C11         0.0457   -4.2795   -0.5309 C.ar      1 <0>        -0.1195
     12 C12        -0.1092   -2.9236   -0.3354 C.ar      1 <0>        -0.0284
     13 N1          1.4641   -6.1841   -0.9617 N.am      1 <0>        -0.6650
     14 C13         0.6690   -7.0503   -0.3030 C.2       1 <0>         0.5918
     15 O1         -0.1157   -6.6416    0.5316 O.2       1 <0>        -0.5087
     16 C14         0.7504   -8.4916   -0.5938 C.2       1 <0>        -0.2964
     17 C15         1.6500   -9.1066   -1.4143 C.2       1 <0>         0.1198
     18 O2          1.3919  -10.4170   -1.4113 O.3       1 <0>        -0.0544
     19 N2          0.2902  -10.6785   -0.5650 N.2       1 <0>        -0.2875
     20 C16        -0.1186   -9.5466   -0.0506 C.2       1 <0>         0.1802
     21 C17        -1.2458   -9.3623    0.8959 C.ar      1 <0>        -0.0283
     22 C18        -2.1513   -8.3179    0.7091 C.ar      1 <0>         0.0143
     23 C19        -3.2015   -8.1445    1.5890 C.ar      1 <0>        -0.1105
     24 C20        -3.3626   -9.0031    2.6584 C.ar      1 <0>        -0.0407
     25 C21        -2.4631  -10.0519    2.8559 C.ar      1 <0>        -0.1647
     26 C22        -1.4050  -10.2343    1.9680 C.ar      1 <0>        -0.0292
     27 C23        -2.6361  -10.9713    4.0026 C.cat     1 <0>         0.6054
     28 N3         -3.1959  -10.5334    5.1284 N.pl3     1 <0>        -0.7574
     29 N4         -2.2320  -12.2364    3.9083 N.pl3     1 <0>        -0.7586
     30 S1         -0.6144   -0.6410   -2.5117 S.o2      1 <0>         2.6976
     31 O3         -1.3745   -1.7380   -2.0238 O.2       1 <0>        -0.9568
     32 O4         -1.1891    0.3951   -3.2963 O.2       1 <0>        -0.9645
     33 N5          0.6218   -1.2828   -3.4074 N.pl3     1 <0>        -1.2454
     34 H1          1.6918    1.8401    1.9661 H         1 <0>         0.1360
     35 H2          0.4059    3.1667    0.3411 H         1 <0>         0.1379
     36 H3         -0.6035    2.0804   -1.6217 H         1 <0>         0.1482
     37 H4          1.9679   -0.5822    1.6386 H         1 <0>         0.1350
     38 H5          3.1274   -1.9638   -0.6696 H         1 <0>         0.1332
     39 H6          3.3973   -4.3842   -1.0062 H         1 <0>         0.1315
     40 H7         -0.8142   -4.9318   -0.4932 H         1 <0>         0.1372
     41 H8         -1.0899   -2.5137   -0.1445 H         1 <0>         0.1497
     42 H9          2.1443   -6.5154   -1.5687 H         1 <0>         0.4106
     43 H10         2.4357   -8.6178   -1.9711 H         1 <0>         0.2298
     44 H11        -2.0307   -7.6431   -0.1254 H         1 <0>         0.1505
     45 H12        -3.8995   -7.3339    1.4403 H         1 <0>         0.1569
     46 H13        -4.1858   -8.8626    3.3433 H         1 <0>         0.1453
     47 H14        -0.7087  -11.0469    2.1139 H         1 <0>         0.1429
     48 H15        -3.4904   -9.6117    5.1971 H         1 <0>         0.4470
     49 H16        -1.8241  -12.5554    3.0881 H         1 <0>         0.4466
     50 H17        -2.3454  -12.8390    4.6599 H         1 <0>         0.4339
     51 H18         1.5393   -1.1842   -3.1085 H         1 <0>         0.4157
     52 H19         0.4283   -1.7573   -4.2310 H         1 <0>         0.4214
     53 H20        -3.3093  -11.1361    5.8800 H         1 <0>         0.4339
@<TRIPOS>BOND
     1    1    6 ar
     2    1    2 ar
     3    1   34 1
     4    2    3 ar
     5    2   35 1
     6    3    4 ar
     7    3   36 1
     8    4    5 ar
     9    4   30 1
    10    5    6 ar
    11    5    7 1
    12    6   37 1
    13    7   12 ar
    14    7    8 ar
    15    8    9 ar
    16    8   38 1
    17    9   10 ar
    18    9   39 1
    19   10   11 ar
    20   10   13 1
    21   11   12 ar
    22   11   40 1
    23   12   41 1
    24   13   14 am
    25   13   42 1
    26   14   15 2
    27   14   16 1
    28   16   20 1
    29   16   17 2
    30   17   18 1
    31   17   43 1
    32   18   19 1
    33   19   20 2
    34   20   21 1
    35   21   26 ar
    36   21   22 ar
    37   22   23 ar
    38   22   44 1
    39   23   24 ar
    40   23   45 1
    41   24   25 ar
    42   24   46 1
    43   25   26 ar
    44   25   27 1
    45   26   47 1
    46   27   28 2
    47   27   29 1
    48   28   48 1
    49   28   53 1
    50   29   49 1
    51   29   50 1
    52   30   31 2
    53   30   32 2
    54   30   33 1
    55   33   51 1
    56   33   52 1
@<TRIPOS>MOLECULE
ZINC00036634
   18    18     0     0     0
SMALL
USER_CHARGES

@<TRIPOS>ATOM
      1 C1         -0.0167    1.3793    0.0096 C.ar      1 <0>        -0.0493
      2 C2          1.1684    2.0931    0.0021 C.ar      1 <0>        -0.1131
      3 C3          2.3774    1.4284   -0.0134 C.ar      1 <0>        -0.0592
      4 C4          2.4031    0.0335   -0.0211 C.ar      1 <0>        -0.1590
      5 C5          1.2045   -0.6805   -0.0130 C.ar      1 <0>        -0.0593
      6 C6          0.0021   -0.0041    0.0020 C.ar      1 <0>        -0.1131
      7 C7          3.6962   -0.6857   -0.0382 C.cat     1 <0>         0.6008
      8 N1          3.7175   -2.0169   -0.0455 N.pl3     1 <0>        -0.7620
      9 N2          4.8384   -0.0015   -0.0463 N.pl3     1 <0>        -0.7620
     10 H1         -0.9604    1.9041    0.0260 H         1 <0>         0.1474
     11 H2          1.1472    3.1728    0.0081 H         1 <0>         0.1491
     12 H3          3.3019    1.9867   -0.0199 H         1 <0>         0.1374
     13 H4          1.2179   -1.7604   -0.0192 H         1 <0>         0.1374
     14 H5         -0.9265   -0.5556    0.0079 H         1 <0>         0.1491
     15 H6          2.8854   -2.5154   -0.0396 H         1 <0>         0.4443
     16 H7          4.8229    0.9683   -0.0410 H         1 <0>         0.4443
     17 H8          5.6860   -0.4730   -0.0576 H         1 <0>         0.4336
     18 H9          4.5652   -2.4884   -0.0567 H         1 <0>         0.4336
@<TRIPOS>BOND
     1    1    6 ar
     2    1    2 ar
     3    1   10 1
     4    2    3 ar
     5    2   11 1
     6    3    4 ar
     7    3   12 1
     8    4    5 ar
     9    4    7 1
    10    5    6 ar
    11    5   13 1
    12    6   14 1
    13    7    8 2
    14    7    9 1
    15    8   15 1
    16    8   18 1
    17    9   16 1
    18    9   17 1
@<TRIPOS>MOLECULE
ZINC03777328
   64    65     0     0     0
SMALL
USER_CHARGES
N-(1-formyl-4-guanidino-butyl)-1-(2-methylamino-3-phenyl-propanoyl)-pyrrolidine-2-carboxamide
@<TRIPOS>ATOM
      1 C1         -1.1006   11.6463   -1.5224 C.3       1 <0>        -0.0461
      2 C2         -0.9630   11.2349    0.8596 C.3       1 <0>         0.0169
      3 H1         -1.8685   11.8411    0.8348 H         1 <0>         0.1593
      4 C3         -0.1070   11.6456    2.0594 C.3       1 <0>        -0.0917
      5 C4          0.1631   13.1271    2.0002 C.ar      1 <0>        -0.1306
      6 C5          1.2821   13.5998    1.3406 C.ar      1 <0>        -0.1429
      7 C6          1.5270   14.9590    1.2817 C.ar      1 <0>        -0.1028
      8 C7          0.6589   15.8448    1.8922 C.ar      1 <0>        -0.0988
      9 C8         -0.4574   15.3717    2.5563 C.ar      1 <0>        -0.1020
     10 C9         -0.7053   14.0129    2.6102 C.ar      1 <0>        -0.1030
     11 C10        -1.3357    9.7799    0.9830 C.2       1 <0>         0.5339
     12 O1         -0.6480    8.9310    0.4564 O.2       1 <0>        -0.5146
     13 N1         -2.4332    9.4221    1.6787 N.am      1 <0>        -0.5806
     14 C11        -3.3535   10.3459    2.3665 C.3       1 <0>         0.0813
     15 C12        -4.0211    9.4904    3.4720 C.3       1 <0>        -0.1308
     16 C13        -4.1772    8.1228    2.7560 C.3       1 <0>        -0.1285
     17 C14        -2.9104    8.0459    1.8779 C.3       1 <0>         0.1215
     18 H2         -2.1435    7.4566    2.3804 H         1 <0>         0.1120
     19 C15        -3.2460    7.4222    0.5477 C.2       1 <0>         0.5198
     20 O2         -3.1031    8.0595   -0.4742 O.2       1 <0>        -0.5250
     21 N2         -3.7051    6.1561    0.4937 N.am      1 <0>        -0.7157
     22 C16        -4.0313    5.5498   -0.7994 C.3       1 <0>         0.0934
     23 H3         -3.3938    5.8829   -1.4941 H         1 <0>         0.1097
     24 C17        -3.9188    4.0277   -0.6920 C.3       1 <0>        -0.1228
     25 C18        -2.4636    3.6418   -0.4196 C.3       1 <0>        -0.1314
     26 C19        -2.3512    2.1198   -0.3120 C.3       1 <0>         0.0917
     27 N3         -0.9577    1.7502   -0.0513 N.pl3     1 <0>        -0.7015
     28 C20        -0.6115    0.4267    0.0849 C.cat     1 <0>         0.7402
     29 N4          0.6971    0.0796    0.3240 N.pl3     1 <0>        -0.8052
     30 C21        -5.4384    5.9233   -1.1887 C.2       1 <0>         0.3242
     31 O3         -6.1004    6.6237   -0.4610 O.2       1 <0>        -0.4336
     32 H4         -1.7933   10.8080   -1.5941 H         1 <0>         0.1248
     33 H5         -1.6614   12.5704   -1.3827 H         1 <0>         0.1257
     34 H6         -0.5140   11.7124   -2.4389 H         1 <0>         0.1325
     35 H7         -0.6374   11.4096    2.9820 H         1 <0>         0.1230
     36 H8          0.8379   11.1028    2.0345 H         1 <0>         0.1070
     37 H9          1.9630   12.9075    0.8678 H         1 <0>         0.1239
     38 H10         2.3990   15.3287    0.7626 H         1 <0>         0.1351
     39 H11         0.8526   16.9065    1.8500 H         1 <0>         0.1355
     40 H12        -1.1357   16.0637    3.0331 H         1 <0>         0.1356
     41 H13        -1.5773   13.6432    3.1294 H         1 <0>         0.1298
     42 H14        -2.7994   11.1733    2.8098 H         1 <0>         0.0903
     43 H15        -4.1047   10.7206    1.6713 H         1 <0>         0.0881
     44 H16        -3.3726    9.4033    4.3438 H         1 <0>         0.0897
     45 H17        -4.9924    9.8998    3.7496 H         1 <0>         0.1035
     46 H18        -5.0756    8.1109    2.1388 H         1 <0>         0.0942
     47 H19        -4.1946    7.3082    3.4801 H         1 <0>         0.1022
     48 H20        -3.8194    5.6464    1.3110 H         1 <0>         0.4059
     49 H21        -4.2467    3.5723   -1.6264 H         1 <0>         0.1024
     50 H22        -4.5476    3.6737    0.1251 H         1 <0>         0.0872
     51 H23        -2.1357    4.0972    0.5149 H         1 <0>         0.0828
     52 H24        -1.8348    3.9957   -1.2365 H         1 <0>         0.0868
     53 H25        -2.6790    1.6643   -1.2465 H         1 <0>         0.0960
     54 H26        -2.9800    1.7658    0.5049 H         1 <0>         0.0946
     55 H27        -0.2787    2.4390    0.0213 H         1 <0>         0.4328
     56 H28        -1.3784   -1.4601    0.0685 H         1 <0>         0.4538
     57 H29         1.3761    0.7684    0.3966 H         1 <0>         0.4401
     58 H30         0.9414   -0.8543    0.4201 H         1 <0>         0.4409
     59 H31        -5.8548    5.5646   -2.1184 H         1 <0>         0.1125
     60 N5         -0.1904   11.4419   -0.3798 N.4       1 <0>        -0.5078
     61 H32         0.4084   12.2689   -0.2715 H         1 <0>         0.4350
     62 H33         0.3945   10.6166   -0.5561 H         1 <0>         0.4390
     63 N6         -1.5851   -0.4656   -0.0249 N.pl3     1 <0>        -0.7942
     64 H34        -2.5475   -0.1559   -0.2040 H         1 <0>         0.4551
@<TRIPOS>BOND
     1    1   32 1
     2    1   33 1
     3    1   34 1
     4    1   60 1
     5    2    3 1
     6    2    4 1
     7    2   11 1
     8    2   60 1
     9    4    5 1
    10    4   35 1
    11    4   36 1
    12    5   10 ar
    13    5    6 ar
    14    6    7 ar
    15    6   37 1
    16    7    8 ar
    17    7   38 1
    18    8    9 ar
    19    8   39 1
    20    9   10 ar
    21    9   40 1
    22   10   41 1
    23   11   12 2
    24   11   13 am
    25   13   17 1
    26   13   14 1
    27   14   15 1
    28   14   42 1
    29   14   43 1
    30   15   16 1
    31   15   44 1
    32   15   45 1
    33   16   17 1
    34   16   46 1
    35   16   47 1
    36   17   18 1
    37   17   19 1
    38   19   20 2
    39   19   21 am
    40   21   22 1
    41   21   48 1
    42   22   23 1
    43   22   24 1
    44   22   30 1
    45   24   25 1
    46   24   49 1
    47   24   50 1
    48   25   26 1
    49   25   51 1
    50   25   52 1
    51   26   27 1
    52   26   53 1
    53   26   54 1
    54   27   28 1
    55   27   55 1
    56   28   29 1
    57   28   63 2
    58   29   57 1
    59   29   58 1
    60   30   31 2
    61   30   59 1
    62   56   63 1
    63   60   61 1
    64   60   62 1
    65   63   64 1
@<TRIPOS>MOLECULE
ZINC00001763
   45    47     0     0     0
SMALL
USER_CHARGES

@<TRIPOS>ATOM
      1 C1          0.4307    0.2502    2.0676 C.ar      1 <0>        -0.0153
      2 C2          1.6219    0.9331    2.1617 C.ar      1 <0>        -0.1193
      3 C3          2.6604    0.6489    1.2801 C.ar      1 <0>         0.1435
      4 C4          2.4990   -0.3267    0.3008 C.ar      1 <0>        -0.1724
      5 C5          1.3106   -1.0136    0.2008 C.ar      1 <0>        -0.0246
      6 C6          0.2649   -0.7307    1.0849 C.ar      1 <0>        -0.1135
      7 C7         -1.0096   -1.4644    0.9809 C.2       1 <0>         0.5087
      8 O1         -1.9176   -1.2170    1.7498 O.2       1 <0>        -0.4667
      9 O2         -1.1677   -2.4095    0.0332 O.3       1 <0>        -0.2923
     10 C8         -2.3923   -2.9828   -0.0978 C.ar      1 <0>         0.1259
     11 C9         -3.4217   -2.2783   -0.7313 C.ar      1 <0>        -0.1152
     12 C10        -4.6566   -2.8272   -0.8764 C.ar      1 <0>        -0.0682
     13 C11        -4.9108   -4.1213   -0.3857 C.ar      1 <0>        -0.0654
     14 C12        -6.1763   -4.7102   -0.5232 C.ar      1 <0>        -0.0099
     15 C13        -6.3918   -5.9856   -0.0291 C.ar      1 <0>        -0.1471
     16 C14        -5.3542   -6.6900    0.6072 C.ar      1 <0>        -0.0871
     17 C15        -4.1234   -6.1364    0.7499 C.ar      1 <0>        -0.0773
     18 C16        -3.8721   -4.8419    0.2575 C.ar      1 <0>        -0.0011
     19 C17        -2.6050   -4.2525    0.3893 C.ar      1 <0>        -0.1091
     20 C18        -7.7236   -6.6117   -0.1711 C.cat     1 <0>         0.5988
     21 N1         -7.9368   -7.8384    0.3023 N.pl3     1 <0>        -0.7582
     22 N2         -8.7104   -5.9491   -0.7725 N.pl3     1 <0>        -0.7622
     23 N3          3.8650    1.3431    1.3778 N.pl3     1 <0>        -0.6394
     24 C19         5.0543    0.6734    1.2516 C.cat     1 <0>         0.7482
     25 N4          6.2001    1.3513    1.2200 N.pl3     1 <0>        -0.7807
     26 N5          5.0638   -0.6552    1.1604 N.pl3     1 <0>        -0.7908
     27 H1         -0.3734    0.4685    2.7547 H         1 <0>         0.1604
     28 H2          1.7507    1.6909    2.9204 H         1 <0>         0.1556
     29 H3          3.3071   -0.5447   -0.3817 H         1 <0>         0.1475
     30 H4          1.1857   -1.7701   -0.5598 H         1 <0>         0.1596
     31 H5         -3.2326   -1.2847   -1.1100 H         1 <0>         0.1435
     32 H6         -5.4416   -2.2709   -1.3671 H         1 <0>         0.1506
     33 H7         -6.9764   -4.1730   -1.0105 H         1 <0>         0.1463
     34 H8         -5.5392   -7.6838    0.9873 H         1 <0>         0.1398
     35 H9         -3.3365   -6.6892    1.2415 H         1 <0>         0.1528
     36 H10        -1.8032   -4.7903    0.8733 H         1 <0>         0.1514
     37 H11        -7.2183   -8.3209    0.7403 H         1 <0>         0.4450
     38 H12        -8.5551   -5.0558   -1.1173 H         1 <0>         0.4433
     39 H13        -9.5841   -6.3598   -0.8657 H         1 <0>         0.4357
     40 H14         3.8617    2.3003    1.5351 H         1 <0>         0.4483
     41 H15         6.1931    2.3190    1.2864 H         1 <0>         0.4449
     42 H16         4.2274   -1.1445    1.1178 H         1 <0>         0.4412
     43 H17         5.9073   -1.1336    1.1367 H         1 <0>         0.4432
     44 H18        -8.8106   -8.2492    0.2091 H         1 <0>         0.4352
     45 H19         7.0417    0.8773    1.1307 H         1 <0>         0.4465
@<TRIPOS>BOND
     1    1    6 ar
     2    1    2 ar
     3    1   27 1
     4    2    3 ar
     5    2   28 1
     6    3    4 ar
     7    3   23 1
     8    4    5 ar
     9    4   29 1
    10    5    6 ar
    11    5   30 1
    12    6    7 1
    13    7    8 2
    14    7    9 1
    15    9   10 1
    16   10   19 ar
    17   10   11 ar
    18   11   12 ar
    19   11   31 1
    20   12   13 ar
    21   12   32 1
    22   13   18 ar
    23   13   14 ar
    24   14   15 ar
    25   14   33 1
    26   15   16 ar
    27   15   20 1
    28   16   17 ar
    29   16   34 1
    30   17   18 ar
    31   17   35 1
    32   18   19 ar
    33   19   36 1
    34   20   21 2
    35   20   22 1
    36   21   37 1
    37   21   44 1
    38   22   38 1
    39   22   39 1
    40   23   24 1
    41   23   40 1
    42   24   25 2
    43   24   26 1
    44   25   41 1
    45   25   45 1
    46   26   42 1
    47   26   43 1
@<TRIPOS>MOLECULE
ZINC05751469
   34    36     0     0     0
SMALL
USER_CHARGES
1,3-bis(p-tolyl)-1,3-diazetidine-2,4-dione
@<TRIPOS>ATOM
      1 C1          6.6004    2.2531   -0.0495 C.3       1 <0>        -0.1162
      2 C2          5.0936    2.2326   -0.0352 C.ar      1 <0>        -0.0936
      3 C3          4.3874    3.4213   -0.0215 C.ar      1 <0>        -0.0889
      4 C4          3.0064    3.4057   -0.0084 C.ar      1 <0>        -0.1306
      5 C5          2.3272    2.1949   -0.0084 C.ar      1 <0>         0.1579
      6 C6          3.0390    1.0030   -0.0159 C.ar      1 <0>        -0.1306
      7 C7          4.4199    1.0250   -0.0352 C.ar      1 <0>        -0.0889
      8 N1          0.9256    2.1758    0.0049 N.am      1 <0>        -0.5632
      9 C8         -0.0144    1.2099    0.0087 C.2       1 <0>         0.7348
     10 O1          0.0021   -0.0041    0.0020 O.2       1 <0>        -0.4357
     11 N2         -0.9802    2.1499    0.0169 N.am      1 <0>        -0.5632
     12 C9         -0.0402    3.1157    0.0192 C.2       1 <0>         0.7348
     13 O2         -0.0567    4.3297    0.0259 O.2       1 <0>        -0.4357
     14 C10        -2.3820    2.1308    0.0213 C.ar      1 <0>         0.1579
     15 C11        -3.0611    0.9201    0.0112 C.ar      1 <0>        -0.1306
     16 C12        -4.4422    0.9045    0.0218 C.ar      1 <0>        -0.0889
     17 C13        -5.1484    2.0933    0.0306 C.ar      1 <0>        -0.0936
     18 C14        -4.4747    3.3008    0.0345 C.ar      1 <0>        -0.0889
     19 C15        -3.0937    3.3228    0.0301 C.ar      1 <0>        -0.1306
     20 C16        -6.6553    2.0728    0.0354 C.3       1 <0>        -0.1162
     21 H1          6.9735    2.2521    0.9746 H         1 <0>         0.0738
     22 H2          6.9708    1.3711   -0.5720 H         1 <0>         0.0693
     23 H3          6.9467    3.1509   -0.5615 H         1 <0>         0.0693
     24 H4          4.9163    4.3630   -0.0215 H         1 <0>         0.1350
     25 H5          2.4554    4.3345    0.0023 H         1 <0>         0.1364
     26 H6          2.5134    0.0595   -0.0114 H         1 <0>         0.1364
     27 H7          4.9741    0.0981   -0.0455 H         1 <0>         0.1350
     28 H8         -2.5101   -0.0087   -0.0002 H         1 <0>         0.1364
     29 H9         -4.9711   -0.0372    0.0184 H         1 <0>         0.1350
     30 H10        -5.0290    4.2277    0.0414 H         1 <0>         0.1350
     31 H11        -2.5681    4.2662    0.0332 H         1 <0>         0.1364
     32 H12        -7.0219    2.0731   -0.9911 H         1 <0>         0.0738
     33 H13        -7.0048    1.1754    0.5458 H         1 <0>         0.0693
     34 H14        -7.0290    2.9551    0.5549 H         1 <0>         0.0693
@<TRIPOS>BOND
     1    1    2 1
     2    1   21 1
     3    1   22 1
     4    1   23 1
     5    2    7 ar
     6    2    3 ar
     7    3    4 ar
     8    3   24 1
     9    4    5 ar
    10    4   25 1
    11    5    6 ar
    12    5    8 1
    13    6    7 ar
    14    6   26 1
    15    7   27 1
    16    8   12 am
    17    8    9 am
    18    9   10 2
    19    9   11 am
    20   11   12 am
    21   11   14 1
    22   12   13 2
    23   14   19 ar
    24   14   15 ar
    25   15   16 ar
    26   15   28 1
    27   16   17 ar
    28   16   29 1
    29   17   18 ar
    30   17   20 1
    31   18   19 ar
    32   18   30 1
    33   19   31 1
    34   20   32 1
    35   20   33 1
    36   20   34 1
@<TRIPOS>MOLECULE
ZINC03807246
   69    72     0     0     0
SMALL
USER_CHARGES

@<TRIPOS>ATOM
      1 C1         -1.4468    1.0204    1.5598 C.ar      1 <0>        -0.0881
      2 C2         -0.3637    1.8925    1.4651 C.ar      1 <0>        -0.1181
      3 C3          0.8927    1.4262    1.2278 C.ar      1 <0>        -0.0900
      4 C4          1.1047    0.0452    1.0760 C.ar      1 <0>        -0.0797
      5 C5          2.3875   -0.4736    0.8307 C.ar      1 <0>         0.0262
      6 C6          2.5549   -1.8168    0.6895 C.ar      1 <0>        -0.6802
      7 C7          1.4718   -2.6889    0.7846 C.ar      1 <0>        -0.0526
      8 C8          0.2154   -2.2225    1.0214 C.ar      1 <0>        -0.1132
      9 C9          0.0034   -0.8415    1.1728 C.ar      1 <0>        -0.0113
     10 C10        -1.2794   -0.3227    1.4182 C.ar      1 <0>        -0.1213
     11 S1          4.1649   -2.4631    0.3814 S.o2      1 <0>         2.6992
     12 O1          3.9829   -3.7195   -0.2570 O.2       1 <0>        -0.9555
     13 O2          4.9188   -1.4119   -0.2067 O.2       1 <0>        -0.9466
     14 N1          4.8569   -2.7758    1.8530 N.pl3     1 <0>        -1.1073
     15 C11         4.2874   -3.8049    2.7264 C.3       1 <0>         0.1000
     16 C12         5.2796   -4.1529    3.8059 C.2       1 <0>         0.5210
     17 O3          6.3564   -3.5961    3.8422 O.2       1 <0>        -0.5181
     18 N2          4.9704   -5.0829    4.7311 N.am      1 <0>        -0.7101
     19 C13         5.9349   -5.4212    5.7806 C.3       1 <0>         0.1339
     20 H1          6.9457   -5.3661    5.3765 H         1 <0>         0.1200
     21 C14         5.6637   -6.8402    6.2843 C.3       1 <0>        -0.1006
     22 C15         5.9436   -7.8272    5.1805 C.ar      1 <0>        -0.0118
     23 C16         4.9340   -8.1867    4.3055 C.ar      1 <0>        -0.1089
     24 C17         5.1837   -9.0901    3.2931 C.ar      1 <0>        -0.0513
     25 C18         6.4577   -9.6411    3.1524 C.ar      1 <0>        -0.1581
     26 C19         7.4717   -9.2742    4.0377 C.ar      1 <0>        -0.0513
     27 C20         7.2105   -8.3658    5.0428 C.ar      1 <0>        -0.1097
     28 C21         6.7323  -10.6110    2.0691 C.cat     1 <0>         0.6003
     29 N3          7.9491  -11.1351    1.9374 N.pl3     1 <0>        -0.7617
     30 N4          5.7625  -10.9596    1.2261 N.pl3     1 <0>        -0.7609
     31 C22         5.7967   -4.4477    6.9226 C.2       1 <0>         0.5048
     32 O4          4.7594   -3.8388    7.0782 O.2       1 <0>        -0.5232
     33 N5          6.8258   -4.2538    7.7710 N.am      1 <0>        -0.6053
     34 C23         8.1249   -4.8969    7.5315 C.3       1 <0>         0.1030
     35 C24         9.2160   -3.8216    7.5376 C.3       1 <0>        -0.1381
     36 C25         9.1384   -3.0292    8.8446 C.3       1 <0>        -0.1219
     37 C26         7.7772   -2.3367    8.9433 C.3       1 <0>        -0.1374
     38 C27         6.6716   -3.3904    8.9498 C.3       1 <0>         0.1098
     39 H2         -2.4330    1.4161    1.7529 H         1 <0>         0.1312
     40 H3         -0.5239    2.9542    1.5813 H         1 <0>         0.1317
     41 H4          1.7223    2.1139    1.1562 H         1 <0>         0.1355
     42 H5          3.2360    0.1901    0.7541 H         1 <0>         0.1473
     43 H6          1.6320   -3.7506    0.6683 H         1 <0>         0.1377
     44 H7         -0.6144   -2.9101    1.0922 H         1 <0>         0.1372
     45 H8         -2.1280   -0.9865    1.4944 H         1 <0>         0.1341
     46 H9          5.6393   -2.2776    2.1368 H         1 <0>         0.4304
     47 H10         3.3716   -3.4286    3.1822 H         1 <0>         0.1037
     48 H11         4.0618   -4.6953    2.1395 H         1 <0>         0.1122
     49 H12         4.1091   -5.5283    4.7021 H         1 <0>         0.4077
     50 H13         6.3108   -7.0536    7.1352 H         1 <0>         0.1102
     51 H14         4.6211   -6.9239    6.5908 H         1 <0>         0.1049
     52 H15         3.9482   -7.7594    4.4155 H         1 <0>         0.1479
     53 H16         4.3946   -9.3705    2.6111 H         1 <0>         0.1406
     54 H17         8.4599   -9.6975    3.9342 H         1 <0>         0.1397
     55 H18         7.9956   -8.0779    5.7263 H         1 <0>         0.1495
     56 H19         8.6556  -10.8812    2.5516 H         1 <0>         0.4441
     57 H20         4.8760  -10.5777    1.3220 H         1 <0>         0.4444
     58 H21         5.9424  -11.5953    0.5159 H         1 <0>         0.4343
     59 H22         8.3237   -5.6236    8.3192 H         1 <0>         0.0758
     60 H23         8.1115   -5.3983    6.5638 H         1 <0>         0.0802
     61 H24        10.1943   -4.2954    7.4570 H         1 <0>         0.0789
     62 H25         9.0671   -3.1474    6.6941 H         1 <0>         0.0710
     63 H26         9.2627   -3.7078    9.6886 H         1 <0>         0.0666
     64 H27         9.9294   -2.2794    8.8623 H         1 <0>         0.0702
     65 H28         7.7314   -1.7538    9.8632 H         1 <0>         0.0799
     66 H29         7.6419   -1.6766    8.0866 H         1 <0>         0.0676
     67 H30         5.6996   -2.8981    8.9176 H         1 <0>         0.0938
     68 H31         6.7492   -3.9915    9.8557 H         1 <0>         0.0720
     69 H32         8.1291  -11.7709    1.2273 H         1 <0>         0.4342
@<TRIPOS>BOND
     1    1   10 ar
     2    1    2 ar
     3    1   39 1
     4    2    3 ar
     5    2   40 1
     6    3    4 ar
     7    3   41 1
     8    4    9 ar
     9    4    5 ar
    10    5    6 ar
    11    5   42 1
    12    6    7 ar
    13    6   11 1
    14    7    8 ar
    15    7   43 1
    16    8    9 ar
    17    8   44 1
    18    9   10 ar
    19   10   45 1
    20   11   12 2
    21   11   13 2
    22   11   14 1
    23   14   15 1
    24   14   46 1
    25   15   16 1
    26   15   47 1
    27   15   48 1
    28   16   17 2
    29   16   18 am
    30   18   19 1
    31   18   49 1
    32   19   20 1
    33   19   21 1
    34   19   31 1
    35   21   22 1
    36   21   50 1
    37   21   51 1
    38   22   27 ar
    39   22   23 ar
    40   23   24 ar
    41   23   52 1
    42   24   25 ar
    43   24   53 1
    44   25   26 ar
    45   25   28 1
    46   26   27 ar
    47   26   54 1
    48   27   55 1
    49   28   29 2
    50   28   30 1
    51   29   56 1
    52   29   69 1
    53   30   57 1
    54   30   58 1
    55   31   32 2
    56   31   33 am
    57   33   38 1
    58   33   34 1
    59   34   35 1
    60   34   59 1
    61   34   60 1
    62   35   36 1
    63   35   61 1
    64   35   62 1
    65   36   37 1
    66   36   63 1
    67   36   64 1
    68   37   38 1
    69   37   65 1
    70   37   66 1
    71   38   67 1
    72   38   68 1
@<TRIPOS>MOLECULE
ZINC01902827
   63    66     0     0     0
SMALL
USER_CHARGES
2-[[2-(5-amidino-2-hydroxy-phenoxy)-3,5-difluoro-6-[3-(1-methyl-4,5-dihydroimidazol-2-yl)phenoxy]-4-pyridyl]-methyl-amino]acetic acid
@<TRIPOS>ATOM
      1 H1          3.3872   -5.7811   -4.7880 H         1 <0>         0.4423
      2 C1          3.4525   -4.4102   -6.2927 C.cat     1 <0>         0.6056
      3 C2          2.9031   -3.1043   -6.7183 C.ar      1 <0>        -0.1474
      4 C3          3.2615   -2.5647   -7.9543 C.ar      1 <0>        -0.0559
      5 C4          2.7487   -1.3476   -8.3504 C.ar      1 <0>        -0.1142
      6 C5          1.8758   -0.6565   -7.5222 C.ar      1 <0>         0.1801
      7 C6          1.5141   -1.1901   -6.2867 C.ar      1 <0>         0.0875
      8 C7          2.0254   -2.4100   -5.8847 C.ar      1 <0>        -0.1239
      9 O1          0.6581   -0.5112   -5.4769 O.3       1 <0>        -0.1952
     10 C8          0.2148   -1.1326   -4.3542 C.ar      1 <0>         0.2757
     11 C9         -1.1098   -0.9902   -3.9702 C.ar      1 <0>         0.1247
     12 C10        -1.5546   -1.6330   -2.8158 C.ar      1 <0>         0.1429
     13 C11        -0.6424   -2.3981   -2.0897 C.ar      1 <0>         0.0646
     14 C12         0.6660   -2.4929   -2.5371 C.ar      1 <0>         0.2635
     15 N1          1.0514   -1.8718   -3.6419 N.ar      1 <0>        -0.5224
     16 O2          1.5620   -3.2353   -1.8375 O.3       1 <0>        -0.2158
     17 C13         2.8217   -2.7462   -1.6938 C.ar      1 <0>         0.1110
     18 C14         3.2030   -1.5987   -2.3765 C.ar      1 <0>        -0.1369
     19 C15         4.4812   -1.0940   -2.2291 C.ar      1 <0>        -0.0791
     20 C16         5.3904   -1.7342   -1.4110 C.ar      1 <0>        -0.0878
     21 C17         5.0179   -2.8904   -0.7259 C.ar      1 <0>        -0.1022
     22 C18         3.7268   -3.3955   -0.8706 C.ar      1 <0>        -0.0900
     23 C19         5.9910   -3.5791    0.1528 C.cat     1 <0>         0.5546
     24 C20         7.1107   -5.2445    1.2053 C.3       1 <0>         0.0571
     25 C21         7.7051   -3.8974    1.6619 C.3       1 <0>         0.0663
     26 N2          6.9066   -2.9069    0.9204 N.pl3     1 <0>        -0.5520
     27 C22         7.0641   -1.4522    0.9905 C.3       1 <0>         0.0748
     28 F1         -1.0289   -3.0384   -0.9646 F         1 <0>        -0.0905
     29 N3         -2.8803   -1.5133   -2.3969 N.pl3     1 <0>        -0.4748
     30 C23        -2.9626   -0.8311   -1.0984 C.3       1 <0>         0.0201
     31 C24        -3.5364   -2.8266   -2.3440 C.3       1 <0>         0.0087
     32 C25        -5.0164   -2.6405   -2.1298 C.2       1 <0>         0.4676
     33 O3         -5.4774   -1.5279   -2.0314 O.co2     1 <0>        -0.6087
     34 F2         -1.9582   -0.2381   -4.7048 F         1 <0>        -0.0730
     35 O4          1.3685    0.5397   -7.9190 O.3       1 <0>        -0.4711
     36 N4          4.4012   -5.0438   -7.0658 N.pl3     1 <0>        -0.7785
     37 H2          3.9410   -3.1004   -8.6007 H         1 <0>         0.1471
     38 H3          3.0271   -0.9313   -9.3073 H         1 <0>         0.1677
     39 H4          1.7463   -2.8247   -4.9272 H         1 <0>         0.1741
     40 H5          2.4971   -1.0966   -3.0215 H         1 <0>         0.1804
     41 H6          4.7712   -0.1989   -2.7594 H         1 <0>         0.1515
     42 H7          6.3899   -1.3399   -1.3019 H         1 <0>         0.1444
     43 H8          3.4332   -4.2908   -0.3427 H         1 <0>         0.1496
     44 H9          7.8690   -5.8466    0.7046 H         1 <0>         0.1283
     45 H10         6.6942   -5.7859    2.0549 H         1 <0>         0.1292
     46 H11         8.7571   -3.8278    1.3855 H         1 <0>         0.1231
     47 H12         7.5792   -3.7660    2.7366 H         1 <0>         0.1243
     48 H13         6.0990   -0.9737    0.8243 H         1 <0>         0.1013
     49 H14         7.4424   -1.1747    1.9745 H         1 <0>         0.1109
     50 H15         7.7683   -1.1256    0.2253 H         1 <0>         0.0937
     51 H16        -2.5317    0.1664   -1.1842 H         1 <0>         0.0677
     52 H17        -4.0066   -0.7512   -0.7954 H         1 <0>         0.1228
     53 H18        -2.4104   -1.4025   -0.3522 H         1 <0>         0.0322
     54 H19        -3.3687   -3.3545   -3.2827 H         1 <0>         0.0818
     55 H20        -3.1204   -3.4077   -1.5210 H         1 <0>         0.0595
     56 H21         1.9035    1.3007   -7.6551 H         1 <0>         0.4124
     57 H22         4.7632   -4.6007   -7.8491 H         1 <0>         0.4443
     58 H23         4.7068   -5.9328   -6.8269 H         1 <0>         0.4315
     59 N5          2.9872   -4.9205   -5.1619 N.pl3     1 <0>        -0.7624
     60 H24         2.2240   -4.4495   -4.6619 H         1 <0>         0.4586
     61 N6          6.0436   -4.8676    0.2641 N.pl3     1 <0>        -0.6212
     62 H25         5.4324   -5.5281   -0.2303 H         1 <0>         0.4721
     63 O5         -5.8226   -3.7106   -2.0486 O.co2     1 <0>        -0.7527
@<TRIPOS>BOND
     1    1   59 1
     2    2    3 1
     3    2   36 1
     4    2   59 2
     5    3    8 ar
     6    3    4 ar
     7    4    5 ar
     8    4   37 1
     9    5    6 ar
    10    5   38 1
    11    6    7 ar
    12    6   35 1
    13    7    8 ar
    14    7    9 1
    15    8   39 1
    16    9   10 1
    17   10   15 ar
    18   10   11 ar
    19   11   12 ar
    20   11   34 1
    21   12   13 ar
    22   12   29 1
    23   13   14 ar
    24   13   28 1
    25   14   15 ar
    26   14   16 1
    27   16   17 1
    28   17   22 ar
    29   17   18 ar
    30   18   19 ar
    31   18   40 1
    32   19   20 ar
    33   19   41 1
    34   20   21 ar
    35   20   42 1
    36   21   22 ar
    37   21   23 1
    38   22   43 1
    39   23   26 1
    40   23   61 2
    41   24   25 1
    42   24   44 1
    43   24   45 1
    44   24   61 1
    45   25   26 1
    46   25   46 1
    47   25   47 1
    48   26   27 1
    49   27   48 1
    50   27   49 1
    51   27   50 1
    52   29   30 1
    53   29   31 1
    54   30   51 1
    55   30   52 1
    56   30   53 1
    57   31   32 1
    58   31   54 1
    59   31   55 1
    60   32   33 2
    61   32   63 1
    62   35   56 1
    63   36   57 1
    64   36   58 1
    65   59   60 1
    66   61   62 1
