@<TRIPOS>MOLECULE
ZINC03807246
   69    72     0     0     0
SMALL
USER_CHARGES

@<TRIPOS>ATOM
      1 C1         -1.4468    1.0204    1.5598 C.ar      1 <0>        -0.0881
      2 C2         -0.3637    1.8925    1.4651 C.ar      1 <0>        -0.1181
      3 C3          0.8927    1.4262    1.2278 C.ar      1 <0>        -0.0900
      4 C4          1.1047    0.0452    1.0760 C.ar      1 <0>        -0.0797
      5 C5          2.3875   -0.4736    0.8307 C.ar      1 <0>         0.0262
      6 C6          2.5549   -1.8168    0.6895 C.ar      1 <0>        -0.6802
      7 C7          1.4718   -2.6889    0.7846 C.ar      1 <0>        -0.0526
      8 C8          0.2154   -2.2225    1.0214 C.ar      1 <0>        -0.1132
      9 C9          0.0034   -0.8415    1.1728 C.ar      1 <0>        -0.0113
     10 C10        -1.2794   -0.3227    1.4182 C.ar      1 <0>        -0.1213
     11 S1          4.1649   -2.4631    0.3814 S.o2      1 <0>         2.6992
     12 O1          3.9829   -3.7195   -0.2570 O.2       1 <0>        -0.9555
     13 O2          4.9188   -1.4119   -0.2067 O.2       1 <0>        -0.9466
     14 N1          4.8569   -2.7758    1.8530 N.pl3     1 <0>        -1.1073
     15 C11         4.2874   -3.8049    2.7264 C.3       1 <0>         0.1000
     16 C12         5.2796   -4.1529    3.8059 C.2       1 <0>         0.5210
     17 O3          6.3564   -3.5961    3.8422 O.2       1 <0>        -0.5181
     18 N2          4.9704   -5.0829    4.7311 N.am      1 <0>        -0.7101
     19 C13         5.9349   -5.4212    5.7806 C.3       1 <0>         0.1339
     20 H1          6.9457   -5.3661    5.3765 H         1 <0>         0.1200
     21 C14         5.6637   -6.8402    6.2843 C.3       1 <0>        -0.1006
     22 C15         5.9436   -7.8272    5.1805 C.ar      1 <0>        -0.0118
     23 C16         4.9340   -8.1867    4.3055 C.ar      1 <0>        -0.1089
     24 C17         5.1837   -9.0901    3.2931 C.ar      1 <0>        -0.0513
     25 C18         6.4577   -9.6411    3.1524 C.ar      1 <0>        -0.1581
     26 C19         7.4717   -9.2742    4.0377 C.ar      1 <0>        -0.0513
     27 C20         7.2105   -8.3658    5.0428 C.ar      1 <0>        -0.1097
     28 C21         6.7323  -10.6110    2.0691 C.cat     1 <0>         0.6003
     29 N3          7.9491  -11.1351    1.9374 N.pl3     1 <0>        -0.7617
     30 N4          5.7625  -10.9596    1.2261 N.pl3     1 <0>        -0.7609
     31 C22         5.7967   -4.4477    6.9226 C.2       1 <0>         0.5048
     32 O4          4.7594   -3.8388    7.0782 O.2       1 <0>        -0.5232
     33 N5          6.8258   -4.2538    7.7710 N.am      1 <0>        -0.6053
     34 C23         8.1249   -4.8969    7.5315 C.3       1 <0>         0.1030
     35 C24         9.2160   -3.8216    7.5376 C.3       1 <0>        -0.1381
     36 C25         9.1384   -3.0292    8.8446 C.3       1 <0>        -0.1219
     37 C26         7.7772   -2.3367    8.9433 C.3       1 <0>        -0.1374
     38 C27         6.6716   -3.3904    8.9498 C.3       1 <0>         0.1098
     39 H2         -2.4330    1.4161    1.7529 H         1 <0>         0.1312
     40 H3         -0.5239    2.9542    1.5813 H         1 <0>         0.1317
     41 H4          1.7223    2.1139    1.1562 H         1 <0>         0.1355
     42 H5          3.2360    0.1901    0.7541 H         1 <0>         0.1473
     43 H6          1.6320   -3.7506    0.6683 H         1 <0>         0.1377
     44 H7         -0.6144   -2.9101    1.0922 H         1 <0>         0.1372
     45 H8         -2.1280   -0.9865    1.4944 H         1 <0>         0.1341
     46 H9          5.6393   -2.2776    2.1368 H         1 <0>         0.4304
     47 H10         3.3716   -3.4286    3.1822 H         1 <0>         0.1037
     48 H11         4.0618   -4.6953    2.1395 H         1 <0>         0.1122
     49 H12         4.1091   -5.5283    4.7021 H         1 <0>         0.4077
     50 H13         6.3108   -7.0536    7.1352 H         1 <0>         0.1102
     51 H14         4.6211   -6.9239    6.5908 H         1 <0>         0.1049
     52 H15         3.9482   -7.7594    4.4155 H         1 <0>         0.1479
     53 H16         4.3946   -9.3705    2.6111 H         1 <0>         0.1406
     54 H17         8.4599   -9.6975    3.9342 H         1 <0>         0.1397
     55 H18         7.9956   -8.0779    5.7263 H         1 <0>         0.1495
     56 H19         8.6556  -10.8812    2.5516 H         1 <0>         0.4441
     57 H20         4.8760  -10.5777    1.3220 H         1 <0>         0.4444
     58 H21         5.9424  -11.5953    0.5159 H         1 <0>         0.4343
     59 H22         8.3237   -5.6236    8.3192 H         1 <0>         0.0758
     60 H23         8.1115   -5.3983    6.5638 H         1 <0>         0.0802
     61 H24        10.1943   -4.2954    7.4570 H         1 <0>         0.0789
     62 H25         9.0671   -3.1474    6.6941 H         1 <0>         0.0710
     63 H26         9.2627   -3.7078    9.6886 H         1 <0>         0.0666
     64 H27         9.9294   -2.2794    8.8623 H         1 <0>         0.0702
     65 H28         7.7314   -1.7538    9.8632 H         1 <0>         0.0799
     66 H29         7.6419   -1.6766    8.0866 H         1 <0>         0.0676
     67 H30         5.6996   -2.8981    8.9176 H         1 <0>         0.0938
     68 H31         6.7492   -3.9915    9.8557 H         1 <0>         0.0720
     69 H32         8.1291  -11.7709    1.2273 H         1 <0>         0.4342
@<TRIPOS>BOND
     1    1   10 ar
     2    1    2 ar
     3    1   39 1
     4    2    3 ar
     5    2   40 1
     6    3    4 ar
     7    3   41 1
     8    4    9 ar
     9    4    5 ar
    10    5    6 ar
    11    5   42 1
    12    6    7 ar
    13    6   11 1
    14    7    8 ar
    15    7   43 1
    16    8    9 ar
    17    8   44 1
    18    9   10 ar
    19   10   45 1
    20   11   12 2
    21   11   13 2
    22   11   14 1
    23   14   15 1
    24   14   46 1
    25   15   16 1
    26   15   47 1
    27   15   48 1
    28   16   17 2
    29   16   18 am
    30   18   19 1
    31   18   49 1
    32   19   20 1
    33   19   21 1
    34   19   31 1
    35   21   22 1
    36   21   50 1
    37   21   51 1
    38   22   27 ar
    39   22   23 ar
    40   23   24 ar
    41   23   52 1
    42   24   25 ar
    43   24   53 1
    44   25   26 ar
    45   25   28 1
    46   26   27 ar
    47   26   54 1
    48   27   55 1
    49   28   29 2
    50   28   30 1
    51   29   56 1
    52   29   69 1
    53   30   57 1
    54   30   58 1
    55   31   32 2
    56   31   33 am
    57   33   38 1
    58   33   34 1
    59   34   35 1
    60   34   59 1
    61   34   60 1
    62   35   36 1
    63   35   61 1
    64   35   62 1
    65   36   37 1
    66   36   63 1
    67   36   64 1
    68   37   38 1
    69   37   65 1
    70   37   66 1
    71   38   67 1
    72   38   68 1
