@<TRIPOS>MOLECULE
ZINC03870481
   46    48     0     0     0
SMALL
USER_CHARGES

@<TRIPOS>ATOM
      1 C1          0.3458    0.8613   -0.9582 C.3       1 <0>        -0.1492
      2 C2          0.3121   -0.5590   -1.5261 C.3       1 <0>        -0.1314
      3 C3          0.9109   -0.5597   -2.9340 C.3       1 <0>         0.1316
      4 H1          1.9111   -0.1274   -2.9037 H         1 <0>         0.1016
      5 C4          0.9919   -1.9967   -3.4531 C.3       1 <0>        -0.1616
      6 N1          0.0625    0.2346   -3.8260 N.am      1 <0>        -0.5887
      7 C5         -1.3367   -0.1451   -4.0363 C.3       1 <0>         0.0851
      8 C6          0.5693    1.3147   -4.4530 C.2       1 <0>         0.5727
      9 O1          1.7517    1.5771   -4.3516 O.2       1 <0>        -0.5377
     10 C7         -0.3139    2.1810   -5.2648 C.ar      1 <0>         0.0504
     11 C8          0.2508    3.2052   -6.0030 C.ar      1 <0>        -0.0724
     12 C9         -0.5809    4.0326   -6.7773 C.ar      1 <0>        -0.0372
     13 C10        -0.0751    5.0886   -7.5496 C.ar      1 <0>        -0.0970
     14 C11        -0.9332    5.8556   -8.2799 C.ar      1 <0>        -0.1015
     15 C12        -2.3033    5.6066   -8.2702 C.ar      1 <0>        -0.1022
     16 C13        -2.8279    4.5876   -7.5300 C.ar      1 <0>        -0.0984
     17 C14        -1.9771    3.7799   -6.7689 C.ar      1 <0>        -0.0736
     18 C15        -2.4781    2.6743   -5.9571 C.ar      1 <0>         0.1999
     19 N2         -1.6255    1.9438   -5.2636 N.ar      1 <0>        -0.4328
     20 C16        -3.9273    2.3727   -5.9164 C.ar      1 <0>        -0.0367
     21 C17        -4.6423    2.2095   -7.1030 C.ar      1 <0>        -0.0870
     22 C18        -5.9922    1.9287   -7.0588 C.ar      1 <0>        -0.1151
     23 C19        -6.6380    1.8087   -5.8408 C.ar      1 <0>        -0.0932
     24 C20        -5.9359    1.9695   -4.6603 C.ar      1 <0>        -0.1122
     25 C21        -4.5825    2.2448   -4.6907 C.ar      1 <0>        -0.0039
     26 Cl1        -3.7004    2.4389   -3.2081 Cl        1 <0>        -0.0491
     27 H2          1.3774    1.2106   -0.9144 H         1 <0>         0.0547
     28 H3         -0.2350    1.5233   -1.6004 H         1 <0>         0.0510
     29 H4         -0.0808    0.8617    0.0448 H         1 <0>         0.0541
     30 H5          0.8929   -1.2210   -0.8839 H         1 <0>         0.0751
     31 H6         -0.7195   -0.9084   -1.5699 H         1 <0>         0.0663
     32 H7         -0.0082   -2.4289   -3.4835 H         1 <0>         0.0600
     33 H8          1.4186   -1.9971   -4.4562 H         1 <0>         0.0592
     34 H9          1.6232   -2.5877   -2.7895 H         1 <0>         0.0695
     35 H10        -1.9737    0.4264   -3.3613 H         1 <0>         0.0634
     36 H11        -1.6191    0.0655   -5.0678 H         1 <0>         0.0916
     37 H12        -1.4582   -1.2097   -3.8364 H         1 <0>         0.0573
     38 H13         1.3184    3.3677   -5.9844 H         1 <0>         0.1528
     39 H14         0.9854    5.2924   -7.5651 H         1 <0>         0.1376
     40 H15        -0.5446    6.6689   -8.8749 H         1 <0>         0.1323
     41 H16        -2.9610    6.2302   -8.8575 H         1 <0>         0.1319
     42 H17        -3.8925    4.4059   -7.5322 H         1 <0>         0.1365
     43 H18        -4.1401    2.3032   -8.0546 H         1 <0>         0.1359
     44 H19        -6.5465    1.8026   -7.9771 H         1 <0>         0.1356
     45 H20        -7.6950    1.5887   -5.8120 H         1 <0>         0.1363
     46 H21        -6.4457    1.8753   -3.7129 H         1 <0>         0.1386
@<TRIPOS>BOND
     1    1    2 1
     2    1   27 1
     3    1   28 1
     4    1   29 1
     5    2    3 1
     6    2   30 1
     7    2   31 1
     8    3    4 1
     9    3    5 1
    10    3    6 1
    11    5   32 1
    12    5   33 1
    13    5   34 1
    14    6    7 1
    15    6    8 am
    16    7   35 1
    17    7   36 1
    18    7   37 1
    19    8    9 2
    20    8   10 1
    21   10   19 ar
    22   10   11 ar
    23   11   12 ar
    24   11   38 1
    25   12   17 ar
    26   12   13 ar
    27   13   14 ar
    28   13   39 1
    29   14   15 ar
    30   14   40 1
    31   15   16 ar
    32   15   41 1
    33   16   17 ar
    34   16   42 1
    35   17   18 ar
    36   18   19 ar
    37   18   20 1
    38   20   25 ar
    39   20   21 ar
    40   21   22 ar
    41   21   43 1
    42   22   23 ar
    43   22   44 1
    44   23   24 ar
    45   23   45 1
    46   24   25 ar
    47   24   46 1
    48   25   26 1
@<TRIPOS>MOLECULE
ZINC03870482
   46    48     0     0     0
SMALL
USER_CHARGES

@<TRIPOS>ATOM
      1 C1          1.6261    3.2891   -0.4383 C.3       1 <0>        -0.1483
      2 C2          1.2900    1.8365   -0.0950 C.3       1 <0>        -0.1331
      3 C3          1.5880    0.9450   -1.3022 C.3       1 <0>         0.1317
      4 H1          1.0511    1.3212   -2.1730 H         1 <0>         0.1016
      5 C4          1.1363   -0.4859   -1.0034 C.3       1 <0>        -0.1604
      6 N1          3.0276    0.9560   -1.5739 N.am      1 <0>        -0.5887
      7 C5          3.9695    0.4937   -0.5515 C.3       1 <0>         0.0855
      8 C6          3.4854    1.3914   -2.7644 C.2       1 <0>         0.5726
      9 O1          2.7134    1.8599   -3.5779 O.2       1 <0>        -0.5373
     10 C7          4.9278    1.2991   -3.0810 C.ar      1 <0>         0.0504
     11 C8          5.3922    1.8703   -4.2519 C.ar      1 <0>        -0.0723
     12 C9          6.7611    1.7876   -4.5602 C.ar      1 <0>        -0.0373
     13 C10         7.2992    2.3448   -5.7295 C.ar      1 <0>        -0.0970
     14 C11         8.6358    2.2316   -5.9722 C.ar      1 <0>        -0.1015
     15 C12         9.4738    1.5713   -5.0772 C.ar      1 <0>        -0.1022
     16 C13         8.9827    1.0182   -3.9308 C.ar      1 <0>        -0.0985
     17 C14         7.6165    1.1155   -3.6491 C.ar      1 <0>        -0.0737
     18 C15         7.0314    0.5448   -2.4389 C.ar      1 <0>         0.1999
     19 N2          5.7356    0.6730   -2.2254 N.ar      1 <0>        -0.4330
     20 C16         7.8843   -0.1660   -1.4591 C.ar      1 <0>        -0.0367
     21 C17         9.0399    0.4405   -0.9664 C.ar      1 <0>        -0.0870
     22 C18         9.8305   -0.2267   -0.0538 C.ar      1 <0>        -0.1151
     23 C19         9.4799   -1.4953    0.3736 C.ar      1 <0>        -0.0932
     24 C20         8.3361   -2.1032   -0.1106 C.ar      1 <0>        -0.1121
     25 C21         7.5324   -1.4434   -1.0202 C.ar      1 <0>        -0.0039
     26 Cl1         6.0926   -2.2042   -1.6216 Cl        1 <0>        -0.0491
     27 H2          2.6825    3.3667   -0.6953 H         1 <0>         0.0506
     28 H3          1.0213    3.6113   -1.2860 H         1 <0>         0.0558
     29 H4          1.4138    3.9242    0.4218 H         1 <0>         0.0540
     30 H5          1.8948    1.5143    0.7527 H         1 <0>         0.0668
     31 H6          0.2336    1.7589    0.1620 H         1 <0>         0.0753
     32 H7          1.6733   -0.8621   -0.1326 H         1 <0>         0.0596
     33 H8          0.0652   -0.4941   -0.8013 H         1 <0>         0.0692
     34 H9          1.3486   -1.1210   -1.8635 H         1 <0>         0.0578
     35 H10         4.2167   -0.5524   -0.7317 H         1 <0>         0.0631
     36 H11         4.8778    1.0946   -0.5960 H         1 <0>         0.0916
     37 H12         3.5147    0.5951    0.4339 H         1 <0>         0.0574
     38 H13         4.7109    2.3738   -4.9218 H         1 <0>         0.1528
     39 H14         6.6598    2.8588   -6.4319 H         1 <0>         0.1376
     40 H15         9.0511    2.6604   -6.8723 H         1 <0>         0.1323
     41 H16        10.5291    1.4954   -5.2943 H         1 <0>         0.1319
     42 H17         9.6445    0.5092   -3.2456 H         1 <0>         0.1365
     43 H18         9.3153    1.4303   -1.2991 H         1 <0>         0.1359
     44 H19        10.7255    0.2421    0.3278 H         1 <0>         0.1356
     45 H20        10.1025   -2.0131    1.0883 H         1 <0>         0.1363
     46 H21         8.0682   -3.0937    0.2263 H         1 <0>         0.1386
@<TRIPOS>BOND
     1    1    2 1
     2    1   27 1
     3    1   28 1
     4    1   29 1
     5    2    3 1
     6    2   30 1
     7    2   31 1
     8    3    4 1
     9    3    5 1
    10    3    6 1
    11    5   32 1
    12    5   33 1
    13    5   34 1
    14    6    7 1
    15    6    8 am
    16    7   35 1
    17    7   36 1
    18    7   37 1
    19    8    9 2
    20    8   10 1
    21   10   19 ar
    22   10   11 ar
    23   11   12 ar
    24   11   38 1
    25   12   17 ar
    26   12   13 ar
    27   13   14 ar
    28   13   39 1
    29   14   15 ar
    30   14   40 1
    31   15   16 ar
    32   15   41 1
    33   16   17 ar
    34   16   42 1
    35   17   18 ar
    36   18   19 ar
    37   18   20 1
    38   20   25 ar
    39   20   21 ar
    40   21   22 ar
    41   21   43 1
    42   22   23 ar
    43   22   44 1
    44   23   24 ar
    45   23   45 1
    46   24   25 ar
    47   24   46 1
    48   25   26 1
@<TRIPOS>MOLECULE
ZINC00347533
   33    35     0     0     0
SMALL
USER_CHARGES

@<TRIPOS>ATOM
      1 C1          0.5631    1.4223    0.1925 C.3       1 <0>         0.0581
      2 N1          0.3227   -0.0202    0.1047 N.am      1 <0>        -0.5556
      3 C2         -0.9933   -0.4534    0.1623 C.ar      1 <0>         0.1855
      4 C3         -1.9464    0.2981   -0.5284 C.ar      1 <0>        -0.1312
      5 C4         -3.2739   -0.0686   -0.5163 C.ar      1 <0>        -0.0641
      6 C5         -3.6780   -1.1934    0.1859 C.ar      1 <0>        -0.0507
      7 C6         -2.7522   -1.9462    0.8720 C.ar      1 <0>        -0.0534
      8 C7         -1.3959   -1.5855    0.8675 C.ar      1 <0>        -0.1216
      9 C8         -0.4610   -2.4380    1.6185 C.2       1 <0>         0.2667
     10 N2          0.7154   -2.7699    1.2188 N.2       1 <0>        -0.4850
     11 C9          1.2544   -2.3099   -0.0605 C.3       1 <0>         0.0240
     12 C10         1.3843   -0.8120   -0.0294 C.2       1 <0>         0.5093
     13 O1          2.4854   -0.3125   -0.1243 O.2       1 <0>        -0.5093
     14 C11        -0.9081   -2.9522    2.9336 C.ar      1 <0>        -0.0652
     15 C12        -0.3327   -4.1058    3.4666 C.ar      1 <0>        -0.0554
     16 C13        -0.7526   -4.5800    4.6919 C.ar      1 <0>        -0.1158
     17 C14        -1.7434   -3.9130    5.3929 C.ar      1 <0>        -0.0166
     18 C15        -2.3183   -2.7675    4.8682 C.ar      1 <0>        -0.1138
     19 C16        -1.9021   -2.2813    3.6464 C.ar      1 <0>        -0.0779
     20 Cl1        -2.2670   -4.5153    6.9345 Cl        1 <0>        -0.0618
     21 Cl2        -5.3522   -1.6524    0.2004 Cl        1 <0>        -0.0519
     22 H1          1.6337    1.6167    0.1296 H         1 <0>         0.1027
     23 H2          0.0534    1.9262   -0.6288 H         1 <0>         0.0743
     24 H3          0.1809    1.7972    1.1419 H         1 <0>         0.0733
     25 H4         -1.6394    1.1761   -1.0773 H         1 <0>         0.1457
     26 H5         -4.0011    0.5212   -1.0545 H         1 <0>         0.1472
     27 H6         -3.0719   -2.8214    1.4181 H         1 <0>         0.1484
     28 H7          2.2344   -2.7574   -0.2258 H         1 <0>         0.1354
     29 H8          0.5790   -2.5980   -0.8660 H         1 <0>         0.0958
     30 H9          0.4398   -4.6269    2.9206 H         1 <0>         0.1453
     31 H10        -0.3080   -5.4732    5.1053 H         1 <0>         0.1405
     32 H11        -3.0909   -2.2514    5.4189 H         1 <0>         0.1404
     33 H12        -2.3480   -1.3855    3.2402 H         1 <0>         0.1366
@<TRIPOS>BOND
     1    1    2 1
     2    1   22 1
     3    1   23 1
     4    1   24 1
     5    2   12 am
     6    2    3 1
     7    3    8 ar
     8    3    4 ar
     9    4    5 ar
    10    4   25 1
    11    5    6 ar
    12    5   26 1
    13    6    7 ar
    14    6   21 1
    15    7    8 ar
    16    7   27 1
    17    8    9 1
    18    9   10 2
    19    9   14 1
    20   10   11 1
    21   11   12 1
    22   11   28 1
    23   11   29 1
    24   12   13 2
    25   14   19 ar
    26   14   15 ar
    27   15   16 ar
    28   15   30 1
    29   16   17 ar
    30   16   31 1
    31   17   18 ar
    32   17   20 1
    33   18   19 ar
    34   18   32 1
    35   19   33 1
@<TRIPOS>MOLECULE
ZINC00603726
   47    50     0     0     0
SMALL
USER_CHARGES
2-(chloro-methyl-oxo-phenyl-BLAHyl)-N,N-dimethyl-acetamide
@<TRIPOS>ATOM
      1 C1          0.0886    1.9227   -0.1423 C.3       1 <0>         0.0674
      2 N1         -0.6372    2.0628    1.1225 N.pl3     1 <0>        -0.4360
      3 C2         -2.0056    2.1888    1.2364 C.ar      1 <0>         0.1346
      4 C3         -3.0315    2.2083    0.2947 C.ar      1 <0>        -0.1163
      5 C4         -4.3398    2.3428    0.7073 C.ar      1 <0>         0.0006
      6 C5         -4.6473    2.4545    2.0572 C.ar      1 <0>        -0.1288
      7 C6         -3.6557    2.4325    2.9970 C.ar      1 <0>        -0.0484
      8 C7         -2.3249    2.2972    2.6008 C.ar      1 <0>        -0.0849
      9 C8         -1.0505    2.2380    3.3299 C.2       1 <0>        -0.1146
     10 C9         -0.0500    2.0935    2.3688 C.2       1 <0>         0.0621
     11 C10         1.2943    2.0094    2.8006 C.2       1 <0>         0.5341
     12 O1          2.1959    1.8823    1.9879 O.2       1 <0>        -0.5219
     13 N2          1.5697    2.0707    4.1189 N.am      1 <0>        -0.3666
     14 N3          0.5465    2.2158    5.0604 N.2       1 <0>        -0.1699
     15 C11        -0.7031    2.2963    4.6959 C.2       1 <0>         0.1532
     16 C12        -1.7803    2.4529    5.7381 C.3       1 <0>        -0.0776
     17 C13        -1.1526    2.4887    7.1077 C.2       1 <0>         0.5043
     18 O2          0.0508    2.3962    7.2259 O.2       1 <0>        -0.4893
     19 N4         -1.9287    2.6235    8.2013 N.am      1 <0>        -0.6261
     20 C14        -1.3186    2.6583    9.5328 C.3       1 <0>         0.0865
     21 C15        -3.3825    2.7352    8.0586 C.3       1 <0>         0.0721
     22 C16         2.8977    1.9874    4.5507 C.ar      1 <0>         0.1485
     23 C17         3.3942    2.9149    5.4579 C.ar      1 <0>        -0.0922
     24 C18         4.7040    2.8264    5.8866 C.ar      1 <0>        -0.1111
     25 C19         5.5244    1.8227    5.4050 C.ar      1 <0>        -0.1136
     26 C20         5.0350    0.9012    4.4974 C.ar      1 <0>        -0.1099
     27 C21         3.7246    0.9805    4.0690 C.ar      1 <0>        -0.0970
     28 Cl1        -5.6145    2.3736   -0.4708 Cl        1 <0>        -0.0542
     29 H1          0.1844    0.8658   -0.3911 H         1 <0>         0.0812
     30 H2          1.0804    2.3639   -0.0429 H         1 <0>         0.1019
     31 H3         -0.4588    2.4341   -0.9340 H         1 <0>         0.0898
     32 H4         -2.8021    2.1219   -0.7572 H         1 <0>         0.1393
     33 H5         -5.6769    2.5589    2.3661 H         1 <0>         0.1434
     34 H6         -3.9018    2.5194    4.0450 H         1 <0>         0.1396
     35 H7         -2.3232    3.3817    5.5629 H         1 <0>         0.1231
     36 H8         -2.4704    1.6115    5.6766 H         1 <0>         0.1229
     37 H9         -1.0823    3.6889    9.7973 H         1 <0>         0.0547
     38 H10        -2.0156    2.2465   10.2627 H         1 <0>         0.0694
     39 H11        -0.4040    2.0653    9.5290 H         1 <0>         0.0777
     40 H12        -3.6485    2.6895    7.0026 H         1 <0>         0.0781
     41 H13        -3.8639    1.9145    8.5904 H         1 <0>         0.0649
     42 H14        -3.7167    3.6848    8.4767 H         1 <0>         0.0648
     43 H15         2.7553    3.7019    5.8308 H         1 <0>         0.1303
     44 H16         5.0894    3.5448    6.5950 H         1 <0>         0.1305
     45 H17         6.5496    1.7582    5.7386 H         1 <0>         0.1278
     46 H18         5.6783    0.1183    4.1235 H         1 <0>         0.1302
     47 H19         3.3429    0.2603    3.3604 H         1 <0>         0.1256
@<TRIPOS>BOND
     1    1    2 1
     2    1   29 1
     3    1   30 1
     4    1   31 1
     5    2   10 1
     6    2    3 1
     7    3    8 ar
     8    3    4 ar
     9    4    5 ar
    10    4   32 1
    11    5    6 ar
    12    5   28 1
    13    6    7 ar
    14    6   33 1
    15    7    8 ar
    16    7   34 1
    17    8    9 1
    18    9   15 1
    19    9   10 2
    20   10   11 1
    21   11   12 2
    22   11   13 am
    23   13   14 1
    24   13   22 1
    25   14   15 2
    26   15   16 1
    27   16   17 1
    28   16   35 1
    29   16   36 1
    30   17   18 2
    31   17   19 am
    32   19   20 1
    33   19   21 1
    34   20   37 1
    35   20   38 1
    36   20   39 1
    37   21   40 1
    38   21   41 1
    39   21   42 1
    40   22   27 ar
    41   22   23 ar
    42   23   24 ar
    43   23   43 1
    44   24   25 ar
    45   24   44 1
    46   25   26 ar
    47   25   45 1
    48   26   27 ar
    49   26   46 1
    50   27   47 1
@<TRIPOS>MOLECULE
ZINC00591057
   51    53     0     0     0
SMALL
USER_CHARGES
N-[(2,5-dimethoxyphenyl)methyl]-N-(5-fluoro-2-phenoxy-phenyl)-acetamide
@<TRIPOS>ATOM
      1 C1         -0.2727    3.8455    1.9459 C.3       1 <0>        -0.1778
      2 C2         -1.1927    2.7170    2.3348 C.2       1 <0>         0.5223
      3 O1         -1.6016    2.6330    3.4736 O.2       1 <0>        -0.5238
      4 N1         -1.5611    1.8012    1.4172 N.am      1 <0>        -0.5683
      5 C3         -0.9779    1.8347    0.0737 C.3       1 <0>         0.1555
      6 C4          0.1996    0.8961    0.0137 C.ar      1 <0>        -0.1089
      7 C5          1.4825    1.3871    0.1602 C.ar      1 <0>        -0.1013
      8 C6          2.5664    0.5242    0.0993 C.ar      1 <0>         0.0947
      9 C7          2.3624   -0.8319   -0.1093 C.ar      1 <0>        -0.1599
     10 C8          1.0798   -1.3228   -0.2558 C.ar      1 <0>        -0.1671
     11 C9         -0.0044   -0.4597   -0.1944 C.ar      1 <0>         0.1117
     12 O2         -1.2672   -0.9430   -0.3387 O.3       1 <0>        -0.3080
     13 C10        -1.4033   -2.3497   -0.5501 C.3       1 <0>         0.0252
     14 O3          3.8292    1.0076    0.2436 O.3       1 <0>        -0.3160
     15 C11         4.8982    0.0621    0.1694 C.3       1 <0>         0.0271
     16 C12        -2.5019    0.8172    1.7481 C.ar      1 <0>         0.1781
     17 C13        -2.0834   -0.3943    2.2786 C.ar      1 <0>        -0.1134
     18 C14        -3.0146   -1.3646    2.6046 C.ar      1 <0>         0.1078
     19 C15        -4.3641   -1.1285    2.4022 C.ar      1 <0>        -0.1358
     20 C16        -4.7865    0.0768    1.8734 C.ar      1 <0>        -0.0935
     21 C17        -3.8601    1.0553    1.5505 C.ar      1 <0>         0.0818
     22 O4         -4.2757    2.2437    1.0363 O.3       1 <0>        -0.2494
     23 C18        -4.3343    2.3683   -0.3155 C.ar      1 <0>         0.1209
     24 C19        -4.0815    1.2708   -1.1262 C.ar      1 <0>        -0.1931
     25 C20        -4.1460    1.3992   -2.5001 C.ar      1 <0>        -0.0797
     26 C21        -4.4527    2.6221   -3.0678 C.ar      1 <0>        -0.1521
     27 C22        -4.6999    3.7185   -2.2623 C.ar      1 <0>        -0.0814
     28 C23        -4.6415    3.5945   -0.8878 C.ar      1 <0>        -0.1460
     29 F1         -2.6065   -2.5441    3.1217 F         1 <0>        -0.1331
     30 H1         -0.8574    4.6602    1.5188 H         1 <0>         0.0995
     31 H2          0.2575    4.2027    2.8287 H         1 <0>         0.0984
     32 H3          0.4472    3.4897    1.2088 H         1 <0>         0.0848
     33 H4         -0.6468    2.8480   -0.1535 H         1 <0>         0.1001
     34 H5         -1.7268    1.5252   -0.6553 H         1 <0>         0.1003
     35 H6          1.6414    2.4431    0.3219 H         1 <0>         0.1397
     36 H7          3.2066   -1.5039   -0.1574 H         1 <0>         0.1326
     37 H8          0.9210   -2.3786   -0.4185 H         1 <0>         0.1333
     38 H9         -2.4591   -2.6019   -0.6488 H         1 <0>         0.0994
     39 H10        -0.8754   -2.6330   -1.4607 H         1 <0>         0.0565
     40 H11        -0.9790   -2.8873    0.2979 H         1 <0>         0.0550
     41 H12         5.8493    0.5781    0.3001 H         1 <0>         0.1021
     42 H13         4.7786   -0.6840    0.9550 H         1 <0>         0.0550
     43 H14         4.8819   -0.4290   -0.8036 H         1 <0>         0.0553
     44 H15        -1.0314   -0.5800    2.4375 H         1 <0>         0.1373
     45 H16        -5.0881   -1.8880    2.6578 H         1 <0>         0.1468
     46 H17        -5.8397    0.2579    1.7167 H         1 <0>         0.1466
     47 H18        -3.8382    0.3163   -0.6834 H         1 <0>         0.1299
     48 H19        -3.9530    0.5445   -3.1315 H         1 <0>         0.1247
     49 H20        -4.4990    2.7212   -4.1423 H         1 <0>         0.1246
     50 H21        -4.9393    4.6726   -2.7083 H         1 <0>         0.1307
     51 H22        -4.8343    4.4512   -0.2592 H         1 <0>         0.1310
@<TRIPOS>BOND
     1    1    2 1
     2    1   30 1
     3    1   31 1
     4    1   32 1
     5    2    3 2
     6    2    4 am
     7    4    5 1
     8    4   16 1
     9    5    6 1
    10    5   33 1
    11    5   34 1
    12    6   11 ar
    13    6    7 ar
    14    7    8 ar
    15    7   35 1
    16    8    9 ar
    17    8   14 1
    18    9   10 ar
    19    9   36 1
    20   10   11 ar
    21   10   37 1
    22   11   12 1
    23   12   13 1
    24   13   38 1
    25   13   39 1
    26   13   40 1
    27   14   15 1
    28   15   41 1
    29   15   42 1
    30   15   43 1
    31   16   21 ar
    32   16   17 ar
    33   17   18 ar
    34   17   44 1
    35   18   19 ar
    36   18   29 1
    37   19   20 ar
    38   19   45 1
    39   20   21 ar
    40   20   46 1
    41   21   22 1
    42   22   23 1
    43   23   28 ar
    44   23   24 ar
    45   24   25 ar
    46   24   47 1
    47   25   26 ar
    48   25   48 1
    49   26   27 ar
    50   26   49 1
    51   27   28 ar
    52   27   50 1
    53   28   51 1
@<TRIPOS>MOLECULE
ZINC03780965
   69    71     0     0     0
SMALL
USER_CHARGES

@<TRIPOS>ATOM
      1 C1         -0.0187    1.5258    0.0104 C.3       1 <0>        -0.1548
      2 C2          0.0021   -0.0041    0.0020 C.3       1 <0>        -0.1256
      3 C3          0.7182   -0.4975   -1.2568 C.3       1 <0>        -0.1201
      4 C4          0.7390   -2.0273   -1.2652 C.3       1 <0>        -0.1185
      5 C5          1.4551   -2.5207   -2.5240 C.3       1 <0>        -0.1394
      6 C6          1.4758   -4.0506   -2.5324 C.3       1 <0>         0.1055
      7 N1          2.1616   -4.5230   -3.7377 N.am      1 <0>        -0.6153
      8 C7          3.6091   -4.7477   -3.7165 C.3       1 <0>         0.1144
      9 C8          3.8950   -6.1913   -3.2979 C.3       1 <0>        -0.1332
     10 C9          5.4068   -6.4259   -3.2757 C.3       1 <0>        -0.1175
     11 C10         5.6927   -7.8695   -2.8571 C.3       1 <0>        -0.1190
     12 C11         7.2044   -8.1042   -2.8349 C.3       1 <0>        -0.1257
     13 C12         7.4904   -9.5477   -2.4163 C.3       1 <0>        -0.1542
     14 C13         1.4607   -4.7510   -4.8662 C.2       1 <0>         0.5133
     15 O1          2.0284   -5.1421   -5.8640 O.2       1 <0>        -0.5215
     16 C14        -0.0283   -4.5199   -4.8880 C.3       1 <0>        -0.0684
     17 C15        -0.5672   -4.8461   -6.2570 C.2       1 <0>        -0.1295
     18 C16        -0.6950   -3.9241   -7.3843 C.ar      1 <0>        -0.0897
     19 C17        -0.3970   -2.5704   -7.5664 C.ar      1 <0>        -0.0685
     20 C18        -0.6392   -1.9790   -8.7737 C.ar      1 <0>        -0.1440
     21 C19        -1.1796   -2.7115   -9.8220 C.ar      1 <0>        -0.0963
     22 C20        -1.4810   -4.0468   -9.6650 C.ar      1 <0>        -0.1297
     23 C21        -1.2427   -4.6707   -8.4448 C.ar      1 <0>         0.1063
     24 N2         -1.4327   -5.9567   -7.9887 N.pl3     1 <0>        -0.5867
     25 H1         -1.7989   -6.6861   -8.5130 H         1 <0>         0.4160
     26 C22        -1.0206   -6.0523   -6.6797 C.2       1 <0>         0.1314
     27 C23        -1.0671   -7.2814   -5.8585 C.ar      1 <0>        -0.0459
     28 C24         0.0257   -7.6359   -5.0662 C.ar      1 <0>        -0.0662
     29 C25        -0.0229   -8.7833   -4.3023 C.ar      1 <0>        -0.1497
     30 C26        -1.1542   -9.5835   -4.3206 C.ar      1 <0>         0.1084
     31 C27        -2.2419   -9.2362   -5.1060 C.ar      1 <0>        -0.1507
     32 C28        -2.2061   -8.0877   -5.8689 C.ar      1 <0>        -0.0766
     33 F1         -1.1967  -10.7063   -3.5705 F         1 <0>        -0.1355
     34 H2          1.0039    1.9031    0.0027 H         1 <0>         0.0533
     35 H3         -0.5459    1.8868   -0.8726 H         1 <0>         0.0536
     36 H4         -0.5289    1.8773    0.9072 H         1 <0>         0.0536
     37 H5          0.5293   -0.3651    0.8851 H         1 <0>         0.0605
     38 H6         -1.0205   -0.3814    0.0098 H         1 <0>         0.0610
     39 H7          0.1910   -0.1364   -2.1398 H         1 <0>         0.0619
     40 H8          1.7408   -0.1202   -1.2645 H         1 <0>         0.0612
     41 H9          1.2661   -2.3884   -0.3821 H         1 <0>         0.0641
     42 H10        -0.2836   -2.4046   -1.2575 H         1 <0>         0.0647
     43 H11         0.9279   -2.1597   -3.4071 H         1 <0>         0.0658
     44 H12         2.4777   -2.1435   -2.5317 H         1 <0>         0.0674
     45 H13         2.0030   -4.4117   -1.6494 H         1 <0>         0.0815
     46 H14         0.4533   -4.4279   -2.5247 H         1 <0>         0.0802
     47 H15         4.0190   -4.5697   -4.7106 H         1 <0>         0.0836
     48 H16         4.0724   -4.0645   -3.0047 H         1 <0>         0.0755
     49 H17         3.4851   -6.3693   -2.3037 H         1 <0>         0.0624
     50 H18         3.4317   -6.8745   -4.0097 H         1 <0>         0.0649
     51 H19         5.8167   -6.2479   -4.2699 H         1 <0>         0.0640
     52 H20         5.8701   -5.7427   -2.5639 H         1 <0>         0.0625
     53 H21         5.2828   -8.0475   -1.8630 H         1 <0>         0.0605
     54 H22         5.2294   -8.5528   -3.5689 H         1 <0>         0.0608
     55 H23         7.6144   -7.9261   -3.8291 H         1 <0>         0.0609
     56 H24         7.6678   -7.4209   -2.1232 H         1 <0>         0.0606
     57 H25         8.5674   -9.7149   -2.4005 H         1 <0>         0.0536
     58 H26         7.0804   -9.7258   -1.4222 H         1 <0>         0.0531
     59 H27         7.0271  -10.2310   -3.1281 H         1 <0>         0.0533
     60 H28        -0.5064   -5.1607   -4.1471 H         1 <0>         0.0989
     61 H29        -0.2374   -3.4759   -4.6545 H         1 <0>         0.1021
     62 H30         0.0229   -1.9941   -6.7552 H         1 <0>         0.1179
     63 H31        -0.4087   -0.9332   -8.9137 H         1 <0>         0.1226
     64 H32        -1.3660   -2.2295  -10.7704 H         1 <0>         0.1258
     65 H33        -1.9007   -4.6075  -10.4871 H         1 <0>         0.1206
     66 H34         0.9079   -7.0132   -5.0514 H         1 <0>         0.1400
     67 H35         0.8223   -9.0587   -3.6890 H         1 <0>         0.1399
     68 H36        -3.1209   -9.8637   -5.1173 H         1 <0>         0.1409
     69 H37        -3.0563   -7.8153   -6.4766 H         1 <0>         0.1339
@<TRIPOS>BOND
     1    1    2 1
     2    1   34 1
     3    1   35 1
     4    1   36 1
     5    2    3 1
     6    2   37 1
     7    2   38 1
     8    3    4 1
     9    3   39 1
    10    3   40 1
    11    4    5 1
    12    4   41 1
    13    4   42 1
    14    5    6 1
    15    5   43 1
    16    5   44 1
    17    6    7 1
    18    6   45 1
    19    6   46 1
    20    7    8 1
    21    7   14 am
    22    8    9 1
    23    8   47 1
    24    8   48 1
    25    9   10 1
    26    9   49 1
    27    9   50 1
    28   10   11 1
    29   10   51 1
    30   10   52 1
    31   11   12 1
    32   11   53 1
    33   11   54 1
    34   12   13 1
    35   12   55 1
    36   12   56 1
    37   13   57 1
    38   13   58 1
    39   13   59 1
    40   14   15 2
    41   14   16 1
    42   16   17 1
    43   16   60 1
    44   16   61 1
    45   17   26 2
    46   17   18 1
    47   18   23 ar
    48   18   19 ar
    49   19   20 ar
    50   19   62 1
    51   20   21 ar
    52   20   63 1
    53   21   22 ar
    54   21   64 1
    55   22   23 ar
    56   22   65 1
    57   23   24 1
    58   24   25 1
    59   24   26 1
    60   26   27 1
    61   27   32 ar
    62   27   28 ar
    63   28   29 ar
    64   28   66 1
    65   29   30 ar
    66   29   67 1
    67   30   31 ar
    68   30   33 1
    69   31   32 ar
    70   31   68 1
    71   32   69 1
