@<TRIPOS>MOLECULE
ZINC00086535
   29    30     0     0     0
SMALL
USER_CHARGES

@<TRIPOS>ATOM
      1 C1         -0.0159    1.3650   -0.0977 C.ar      1 <0>        -0.1367
      2 C2          0.4840    0.9327    1.1215 C.ar      1 <0>        -0.1228
      3 C3          1.6944    0.2747    1.1872 C.ar      1 <0>        -0.1392
      4 C4          2.4234    0.0398    0.0274 C.ar      1 <0>         0.1610
      5 C5          1.9199    0.4764   -1.2099 C.ar      1 <0>        -0.1351
      6 C6          0.6903    1.1425   -1.2582 C.ar      1 <0>        -0.0822
      7 C7          2.6802    0.2355   -2.4452 C.2       1 <0>         0.5173
      8 O1          2.2828    0.6944   -3.5076 O.co2     1 <0>        -0.6905
      9 O2          3.7104   -0.4240   -2.4107 O.co2     1 <0>        -0.6662
     10 N1          3.6417   -0.6217    0.0908 N.pl3     1 <0>        -0.6664
     11 C8          4.8344    0.1003   -0.0019 C.ar      1 <0>         0.2697
     12 C9          4.8071    1.4892   -0.0308 C.ar      1 <0>        -0.1547
     13 C10         5.9875    2.1996   -0.1225 C.ar      1 <0>        -0.0764
     14 C11         7.1962    1.5302   -0.1857 C.ar      1 <0>        -0.1473
     15 C12         7.2270    0.1481   -0.1572 C.ar      1 <0>        -0.1404
     16 C13         6.0503   -0.5686   -0.0598 C.ar      1 <0>        -0.1391
     17 C14         8.5464   -0.5769   -0.2263 C.3       1 <0>         0.5096
     18 F1          9.5864    0.3547   -0.3139 F         1 <0>        -0.1815
     19 F2          8.7122   -1.3541    0.9250 F         1 <0>        -0.1825
     20 F3          8.5653   -1.4043   -1.3542 F         1 <0>        -0.1765
     21 H1         -0.9669    1.8753   -0.1374 H         1 <0>         0.1161
     22 H2         -0.0781    1.1129    2.0259 H         1 <0>         0.1163
     23 H3          2.0762   -0.0582    2.1410 H         1 <0>         0.1176
     24 H4          0.2956    1.4812   -2.2048 H         1 <0>         0.1284
     25 H5          3.6653   -1.5853    0.1995 H         1 <0>         0.4037
     26 H6          3.8636    2.0125    0.0182 H         1 <0>         0.1210
     27 H7          5.9670    3.2792   -0.1453 H         1 <0>         0.1255
     28 H8          8.1181    2.0883   -0.2577 H         1 <0>         0.1265
     29 H9          6.0754   -1.6479   -0.0327 H         1 <0>         0.1247
@<TRIPOS>BOND
     1    1    6 ar
     2    1    2 ar
     3    1   21 1
     4    2    3 ar
     5    2   22 1
     6    3    4 ar
     7    3   23 1
     8    4    5 ar
     9    4   10 1
    10    5    6 ar
    11    5    7 1
    12    6   24 1
    13    7    8 2
    14    7    9 1
    15   10   11 1
    16   10   25 1
    17   11   16 ar
    18   11   12 ar
    19   12   13 ar
    20   12   26 1
    21   13   14 ar
    22   13   27 1
    23   14   15 ar
    24   14   28 1
    25   15   16 ar
    26   15   17 1
    27   16   29 1
    28   17   18 1
    29   17   19 1
    30   17   20 1
@<TRIPOS>MOLECULE
ZINC04673267
   18    19     0     0     0
SMALL
USER_CHARGES
2-(5-sulfanyl-1,3,4-oxadiazol-2-yl)phenol
@<TRIPOS>ATOM
      1 C1         -2.1124   -3.1067    0.0057 C.ar      1 <0>        -0.1714
      2 C2         -3.3873   -2.5675    0.0202 C.ar      1 <0>        -0.0674
      3 C3         -3.5662   -1.1970    0.0292 C.ar      1 <0>        -0.1740
      4 C4         -2.4676   -0.3531    0.0232 C.ar      1 <0>         0.2107
      5 C5         -1.1759   -0.8945    0.0085 C.ar      1 <0>        -0.1013
      6 C6         -1.0082   -2.2802   -0.0058 C.ar      1 <0>        -0.0508
      7 C7          0.0021   -0.0041    0.0020 C.2       1 <0>         0.1521
      8 N1         -0.0157    1.3068    0.0092 N.2       1 <0>        -0.3049
      9 N2          1.1917    1.7510    0.0001 N.2       1 <0>        -0.3326
     10 C8          2.0291    0.7404   -0.0133 C.2       1 <0>         0.3411
     11 O1          1.2971   -0.3904   -0.0124 O.3       1 <0>        -0.2301
     12 S1          3.7880    0.8439   -0.0291 S.3       1 <0>        -0.7165
     13 O2         -2.6424    0.9938    0.0320 O.3       1 <0>        -0.5245
     14 H1         -1.9819   -4.1787   -0.0016 H         1 <0>         0.1267
     15 H2         -4.2469   -3.2213    0.0243 H         1 <0>         0.1286
     16 H3         -4.5638   -0.7834    0.0406 H         1 <0>         0.1330
     17 H4         -0.0152   -2.7045   -0.0220 H         1 <0>         0.1304
     18 H5         -1.7685    1.6619    0.0272 H         1 <0>         0.4510
@<TRIPOS>BOND
     1    1    6 ar
     2    1    2 ar
     3    1   14 1
     4    2    3 ar
     5    2   15 1
     6    3    4 ar
     7    3   16 1
     8    4    5 ar
     9    4   13 1
    10    5    6 ar
    11    5    7 1
    12    6   17 1
    13    7   11 1
    14    7    8 2
    15    8    9 1
    16    9   10 2
    17   10   11 1
    18   10   12 1
    19   13   18 1
@<TRIPOS>MOLECULE
ZINC01532216
   33    35     0     0     0
SMALL
USER_CHARGES

@<TRIPOS>ATOM
      1 C1          2.1093    1.5563    3.8225 C.ar      1 <0>        -0.1932
      2 C2          2.3956    2.1947    2.6296 C.ar      1 <0>        -0.0835
      3 C3          2.9191    1.4798    1.5704 C.ar      1 <0>        -0.1678
      4 C4          3.1581    0.1177    1.7042 C.ar      1 <0>         0.2862
      5 C5          2.8693   -0.5204    2.9041 C.ar      1 <0>        -0.1962
      6 C6          2.3459    0.2006    3.9592 C.ar      1 <0>        -0.0840
      7 N1          3.6872   -0.6086    0.6347 N.pl3     1 <0>        -0.6813
      8 C7          3.7618   -1.9982    0.7053 C.ar      1 <0>         0.1818
      9 C8          2.6418   -2.7404    1.0163 C.ar      1 <0>        -0.1539
     10 C9          2.7057   -4.1283    1.0888 C.ar      1 <0>        -0.0965
     11 C10         3.8721   -4.7916    0.8561 C.ar      1 <0>        -0.1358
     12 C11         5.0364   -4.0730    0.5362 C.ar      1 <0>        -0.0508
     13 C12         4.9831   -2.6597    0.4535 C.ar      1 <0>        -0.0037
     14 C13         6.1457   -1.9438    0.1286 C.ar      1 <0>        -0.6424
     15 C14         7.3066   -2.6149   -0.1080 C.ar      1 <0>        -0.0331
     16 C15         7.3589   -4.0053   -0.0330 C.ar      1 <0>        -0.1328
     17 C16         6.2541   -4.7313    0.2912 C.ar      1 <0>        -0.0867
     18 S1          6.1032   -0.1852    0.0268 S.o2      1 <0>         2.6887
     19 O1          5.4595    0.2927    1.2407 O.2       1 <0>        -1.0293
     20 O2          7.4827    0.2658   -0.0703 O.2       1 <0>        -1.0606
     21 O3          5.3366    0.1506   -1.1630 O.3       1 <0>        -1.0600
     22 H1          1.7041    2.1186    4.6508 H         1 <0>         0.1074
     23 H2          2.2093    3.2534    2.5262 H         1 <0>         0.1125
     24 H3          3.1422    1.9789    0.6390 H         1 <0>         0.1153
     25 H4          3.0535   -1.5791    3.0114 H         1 <0>         0.1154
     26 H5          2.1215   -0.2947    4.8923 H         1 <0>         0.1097
     27 H6          4.0026   -0.1456   -0.1572 H         1 <0>         0.4161
     28 H7          1.7045   -2.2384    1.2059 H         1 <0>         0.1271
     29 H8          1.8157   -4.6889    1.3340 H         1 <0>         0.1219
     30 H9          3.9022   -5.8695    0.9177 H         1 <0>         0.1222
     31 H10         8.1998   -2.0615   -0.3578 H         1 <0>         0.1369
     32 H11         8.2920   -4.5139   -0.2255 H         1 <0>         0.1240
     33 H12         6.3096   -5.8085    0.3468 H         1 <0>         0.1263
@<TRIPOS>BOND
     1    1    6 ar
     2    1    2 ar
     3    1   22 1
     4    2    3 ar
     5    2   23 1
     6    3    4 ar
     7    3   24 1
     8    4    5 ar
     9    4    7 1
    10    5    6 ar
    11    5   25 1
    12    6   26 1
    13    7    8 1
    14    7   27 1
    15    8   13 ar
    16    8    9 ar
    17    9   10 ar
    18    9   28 1
    19   10   11 ar
    20   10   29 1
    21   11   12 ar
    22   11   30 1
    23   12   17 ar
    24   12   13 ar
    25   13   14 ar
    26   14   15 ar
    27   14   18 1
    28   15   16 ar
    29   15   31 1
    30   16   17 ar
    31   16   32 1
    32   17   33 1
    33   18   19 2
    34   18   20 2
    35   18   21 1
@<TRIPOS>MOLECULE
ZINC18142562
   31    33     0     0     0
SMALL
USER_CHARGES

@<TRIPOS>ATOM
      1 C1          0.5269    0.0157   -1.1902 C.3       1 <0>         0.0242
      2 O1         -0.0616    0.1064    0.1088 O.3       1 <0>        -0.3124
      3 C2          0.5768   -0.5346    1.1205 C.ar      1 <0>         0.1318
      4 C3          1.7523   -1.2332    0.8654 C.ar      1 <0>        -0.1946
      5 C4          2.4020   -1.8824    1.8833 C.ar      1 <0>        -0.0602
      6 C5          1.8790   -1.8411    3.1839 C.ar      1 <0>         0.0249
      7 C6          0.6935   -1.1351    3.4347 C.ar      1 <0>        -0.0853
      8 C7          0.0559   -0.4856    2.4095 C.ar      1 <0>        -0.1379
      9 N1          2.5174   -2.4821    4.1956 N.2       1 <0>        -0.3669
     10 C8          1.9111   -3.4461    4.8474 C.2       1 <0>         0.1703
     11 C9          0.6063   -4.0667    4.5303 C.ar      1 <0>        -0.1758
     12 C10        -0.3306   -3.8523    3.5238 C.ar      1 <0>        -0.0385
     13 C11        -1.4844   -4.6094    3.4901 C.ar      1 <0>        -0.1452
     14 C12        -1.7075   -5.5775    4.4549 C.ar      1 <0>        -0.0594
     15 C13        -0.7841   -5.7979    5.4575 C.ar      1 <0>        -0.1417
     16 C14         0.3842   -5.0461    5.5084 C.ar      1 <0>         0.1721
     17 N2          1.4564   -5.0658    6.3945 N.am      1 <0>        -0.6515
     18 C15         2.3873   -4.1561    6.0594 C.2       1 <0>         0.5730
     19 O2          3.4319   -3.9501    6.6464 O.2       1 <0>        -0.4623
     20 H1          0.5795   -1.0300   -1.4931 H         1 <0>         0.0582
     21 H2         -0.0816    0.5707   -1.9043 H         1 <0>         0.1036
     22 H3          1.5317    0.4374   -1.1642 H         1 <0>         0.0584
     23 H4          2.1539   -1.2645   -0.1367 H         1 <0>         0.1379
     24 H5          3.3144   -2.4247    1.6839 H         1 <0>         0.1349
     25 H6          0.2857   -1.1001    4.4342 H         1 <0>         0.1339
     26 H7         -0.8548    0.0621    2.6022 H         1 <0>         0.1402
     27 H8         -0.1558   -3.0965    2.7724 H         1 <0>         0.1340
     28 H9         -2.2140   -4.4463    2.7108 H         1 <0>         0.1347
     29 H10        -2.6127   -6.1657    4.4229 H         1 <0>         0.1373
     30 H11        -0.9699   -6.5559    6.2040 H         1 <0>         0.1348
     31 H12         1.5252   -5.6628    7.1558 H         1 <0>         0.4274
@<TRIPOS>BOND
     1    1    2 1
     2    1   20 1
     3    1   21 1
     4    1   22 1
     5    2    3 1
     6    3    8 ar
     7    3    4 ar
     8    4    5 ar
     9    4   23 1
    10    5    6 ar
    11    5   24 1
    12    6    7 ar
    13    6    9 1
    14    7    8 ar
    15    7   25 1
    16    8   26 1
    17    9   10 2
    18   10   18 1
    19   10   11 1
    20   11   16 ar
    21   11   12 ar
    22   12   13 ar
    23   12   27 1
    24   13   14 ar
    25   13   28 1
    26   14   15 ar
    27   14   29 1
    28   15   16 ar
    29   15   30 1
    30   16   17 1
    31   17   18 am
    32   17   31 1
    33   18   19 2
@<TRIPOS>MOLECULE
ZINC18144244
   21    22     0     0     0
SMALL
USER_CHARGES

@<TRIPOS>ATOM
      1 C1         -0.0166    1.3762    0.0096 C.ar      1 <0>        -0.1000
      2 C2          1.1697    2.0882    0.0021 C.ar      1 <0>        -0.0983
      3 C3          2.3840    1.4237   -0.0131 C.ar      1 <0>        -0.0314
      4 C4          2.4193    0.0422   -0.0213 C.ar      1 <0>        -0.0037
      5 C5          1.2244   -0.6835   -0.0138 C.ar      1 <0>         0.0076
      6 C6          0.0021   -0.0041    0.0020 C.ar      1 <0>        -0.0056
      7 Cl1        -1.4882   -0.8945    0.0121 Cl        1 <0>        -0.0406
      8 C7          1.2528   -2.1580   -0.0230 C.2       1 <0>         0.4643
      9 O1          1.2541   -2.8264   -1.1973 O.3       1 <0>        -0.6362
     10 N1          1.2767   -2.8213    1.1100 N.2       1 <0>        -0.6438
     11 C8          1.3028   -4.1800    1.1016 C.2       1 <0>         0.5211
     12 N2          1.3076   -4.9542    0.0304 N.2       1 <0>        -0.5605
     13 C9          1.3357   -6.2321    0.4002 C.2       1 <0>         0.1914
     14 N3          1.3494   -6.3066    1.7050 N.2       1 <0>        -0.3761
     15 N4          1.3346   -4.9904    2.1946 N.pl3     1 <0>        -0.5188
     16 Cl2         3.9429   -0.7896   -0.0415 Cl        1 <0>        -0.0280
     17 Cl3         3.8660    2.3279   -0.0224 Cl        1 <0>        -0.0526
     18 H1         -0.9600    1.9018    0.0260 H         1 <0>         0.1474
     19 H2          1.1482    3.1679    0.0078 H         1 <0>         0.1483
     20 H3          1.3453   -7.0765   -0.2731 H         1 <0>         0.1919
     21 H4          1.3431   -4.7145    3.1245 H         1 <0>         0.4238
@<TRIPOS>BOND
     1    1    6 ar
     2    1    2 ar
     3    1   18 1
     4    2    3 ar
     5    2   19 1
     6    3    4 ar
     7    3   17 1
     8    4    5 ar
     9    4   16 1
    10    5    6 ar
    11    5    8 1
    12    6    7 1
    13    8    9 1
    14    8   10 2
    15   10   11 1
    16   11   12 2
    17   11   15 1
    18   12   13 1
    19   13   20 1
    20   13   14 2
    21   14   15 1
    22   15   21 1
@<TRIPOS>MOLECULE
ZINC18144244
   22    23     0     0     0
SMALL
USER_CHARGES

@<TRIPOS>ATOM
      1 C1         -0.0166    1.3764    0.0096 C.ar      1 <0>        -0.0909
      2 C2          1.1696    2.0882    0.0021 C.ar      1 <0>        -0.0633
      3 C3          2.3835    1.4234   -0.0131 C.ar      1 <0>        -0.0308
      4 C4          2.4181    0.0416   -0.0209 C.ar      1 <0>         0.0075
      5 C5          1.2237   -0.6833   -0.0133 C.ar      1 <0>        -0.1020
      6 C6          0.0021   -0.0041    0.0020 C.ar      1 <0>         0.0069
      7 Cl1        -1.4882   -0.8944    0.0121 Cl        1 <0>        -0.0266
      8 C7          1.2516   -2.1596   -0.0220 C.2       1 <0>         0.5692
      9 O1          1.2734   -2.7734    1.0272 O.2       1 <0>        -0.4518
     10 N1          1.2530   -2.8267   -1.1931 N.am      1 <0>        -0.6131
     11 C8          1.2795   -4.2243   -1.2014 C.2       1 <0>         0.4420
     12 N2          1.2987   -4.9941   -0.1393 N.2       1 <0>        -0.2869
     13 N3          1.3214   -6.3203   -0.6008 N.pl3     1 <0>        -0.4796
     14 C9          1.3141   -6.2567   -1.9431 C.2       1 <0>         0.2850
     15 N4          1.2837   -4.9960   -2.2925 N.2       1 <0>        -0.5553
     16 Cl2         3.9414   -0.7909   -0.0405 Cl        1 <0>        -0.0147
     17 Cl3         3.8658    2.3269   -0.0230 Cl        1 <0>        -0.0244
     18 H1         -0.9599    1.9021    0.0260 H         1 <0>         0.1614
     19 H2          1.1484    3.1680    0.0078 H         1 <0>         0.1622
     20 H3          1.2356   -2.3370   -2.0303 H         1 <0>         0.4276
     21 H4          1.3272   -7.1005   -2.6171 H         1 <0>         0.2303
     22 H5          1.3391   -7.1238   -0.0577 H         1 <0>         0.4472
@<TRIPOS>BOND
     1    1    6 ar
     2    1    2 ar
     3    1   18 1
     4    2    3 ar
     5    2   19 1
     6    3    4 ar
     7    3   17 1
     8    4    5 ar
     9    4   16 1
    10    5    6 ar
    11    5    8 1
    12    6    7 1
    13    8    9 2
    14    8   10 am
    15   10   11 1
    16   10   20 1
    17   11   15 1
    18   11   12 2
    19   12   13 1
    20   13   14 1
    21   13   22 1
    22   14   15 2
    23   14   21 1
@<TRIPOS>MOLECULE
ZINC18144244
   21    22     0     0     0
SMALL
USER_CHARGES

@<TRIPOS>ATOM
      1 C1         -0.0166    1.3764    0.0096 C.ar      1 <0>        -0.0965
      2 C2          1.1696    2.0882    0.0021 C.ar      1 <0>        -0.0769
      3 C3          2.3836    1.4234   -0.0131 C.ar      1 <0>        -0.0324
      4 C4          2.4183    0.0417   -0.0213 C.ar      1 <0>         0.0044
      5 C5          1.2238   -0.6833   -0.0138 C.ar      1 <0>        -0.0842
      6 C6          0.0021   -0.0041    0.0020 C.ar      1 <0>         0.0033
      7 Cl1        -1.4882   -0.8944    0.0121 Cl        1 <0>        -0.0274
      8 C7          1.2518   -2.1595   -0.0230 C.2       1 <0>         0.5506
      9 O1          1.2738   -2.7735    1.0260 O.2       1 <0>        -0.4634
     10 N1          1.2530   -2.8262   -1.1943 N.am      1 <0>        -0.5985
     11 C8          1.2793   -4.2129   -1.2029 C.2       1 <0>         0.3317
     12 N2          1.2834   -4.9806   -2.2708 N.2       1 <0>        -0.6412
     13 C9          1.3114   -6.2618   -1.9036 C.2       1 <0>         0.1080
     14 N3          1.3256   -6.3325   -0.5993 N.2       1 <0>        -0.4098
     15 N4          1.3111   -5.0137   -0.1172 N.2       1 <0>        -0.3898
     16 Cl2         3.9415   -0.7907   -0.0415 Cl        1 <0>        -0.0151
     17 Cl3         3.8658    2.3271   -0.0224 Cl        1 <0>        -0.0384
     18 H1         -0.9599    1.9021    0.0260 H         1 <0>         0.1553
     19 H2          1.1484    3.1680    0.0078 H         1 <0>         0.1555
     20 H3          1.2354   -2.3362   -2.0313 H         1 <0>         0.4035
     21 H4          1.3205   -7.1062   -2.5768 H         1 <0>         0.1614
@<TRIPOS>BOND
     1    1    6 ar
     2    1    2 ar
     3    1   18 1
     4    2    3 ar
     5    2   19 1
     6    3    4 ar
     7    3   17 1
     8    4    5 ar
     9    4   16 1
    10    5    6 ar
    11    5    8 1
    12    6    7 1
    13    8    9 2
    14    8   10 am
    15   10   20 1
    16   10   11 1
    17   11   12 2
    18   11   15 1
    19   12   13 1
    20   13   21 1
    21   13   14 2
    22   14   15 1
@<TRIPOS>MOLECULE
ZINC12620329
   29    31     0     0     0
SMALL
USER_CHARGES

@<TRIPOS>ATOM
      1 C1         -0.0166    1.3762    0.0096 C.ar      1 <0>        -0.1447
      2 C2          1.1722    2.0863    0.0021 C.ar      1 <0>        -0.0547
      3 C3          2.3856    1.4273   -0.0130 C.ar      1 <0>        -0.1395
      4 C4          2.4256    0.0378   -0.0208 C.ar      1 <0>         0.1679
      5 C5          1.2200   -0.6776   -0.0131 C.ar      1 <0>        -0.1324
      6 C6          0.0021   -0.0041    0.0020 C.ar      1 <0>        -0.0201
      7 C7          1.5831   -2.1114   -0.0238 C.2       1 <0>         0.1906
      8 N1          0.7715   -3.1412   -0.0217 N.2       1 <0>        -0.3821
      9 C8          1.2754   -4.4040   -0.0328 C.ar      1 <0>         0.0976
     10 C9          2.3278   -4.7349   -0.8960 C.ar      1 <0>        -0.0859
     11 C10         2.8328   -6.0172   -0.9002 C.ar      1 <0>        -0.0481
     12 C11         2.3030   -6.9771   -0.0545 C.ar      1 <0>        -0.0421
     13 C12         1.2624   -6.6588    0.8016 C.ar      1 <0>        -0.0532
     14 C13         0.7491   -5.3800    0.8232 C.ar      1 <0>        -0.0856
     15 N2          2.8520   -8.3517   -0.0662 N.pl3     1 <0>         0.0329
     16 O1          3.7603   -8.6336   -0.8126 O.2       1 <0>        -0.1561
     17 O2          2.3920   -9.1926    0.6707 O.3       1 <0>        -0.1555
     18 C14         3.0680   -2.1294   -0.0377 C.2       1 <0>         0.5223
     19 O3          3.7726   -3.1198   -0.0497 O.2       1 <0>        -0.4697
     20 N3          3.4931   -0.8545   -0.0353 N.am      1 <0>        -0.6470
     21 H1         -0.9594    1.9028    0.0259 H         1 <0>         0.1393
     22 H2          1.1502    3.1660    0.0077 H         1 <0>         0.1401
     23 H3          3.3057    1.9927   -0.0191 H         1 <0>         0.1370
     24 H4         -0.9244   -0.5590    0.0082 H         1 <0>         0.1406
     25 H5          2.7420   -3.9876   -1.5565 H         1 <0>         0.1462
     26 H6          3.6440   -6.2743   -1.5653 H         1 <0>         0.1574
     27 H7          0.8549   -7.4137    1.4577 H         1 <0>         0.1619
     28 H8         -0.0594   -5.1321    1.4950 H         1 <0>         0.1566
     29 H9          4.4263   -0.5897   -0.0430 H         1 <0>         0.4262
@<TRIPOS>BOND
     1    1    6 ar
     2    1    2 ar
     3    1   21 1
     4    2    3 ar
     5    2   22 1
     6    3    4 ar
     7    3   23 1
     8    4   20 1
     9    4    5 ar
    10    5    6 ar
    11    5    7 1
    12    6   24 1
    13    7    8 2
    14    7   18 1
    15    8    9 1
    16    9   14 ar
    17    9   10 ar
    18   10   11 ar
    19   10   25 1
    20   11   12 ar
    21   11   26 1
    22   12   13 ar
    23   12   15 1
    24   13   14 ar
    25   13   27 1
    26   14   28 1
    27   15   16 2
    28   15   17 1
    29   18   19 2
    30   18   20 am
    31   20   29 1
@<TRIPOS>MOLECULE
ZINC13465610
   33    35     0     0     0
SMALL
USER_CHARGES

@<TRIPOS>ATOM
      1 C1          0.0912    1.5024   -0.1216 C.3       1 <0>        -0.1173
      2 C2          0.0827   -0.0043   -0.0944 C.ar      1 <0>        -0.0846
      3 C3         -1.0313   -0.6779    0.3774 C.ar      1 <0>        -0.1053
      4 C4         -1.0478   -2.0556    0.4054 C.ar      1 <0>        -0.1001
      5 C5          0.0667   -2.7747   -0.0453 C.ar      1 <0>         0.0606
      6 C6          1.1894   -2.0850   -0.5209 C.ar      1 <0>        -0.1231
      7 C7          1.1867   -0.7071   -0.5467 C.ar      1 <0>        -0.1067
      8 N1          0.0590   -4.1341   -0.0207 N.2       1 <0>        -0.3751
      9 C8          0.9414   -4.7817    0.7011 C.2       1 <0>         0.1780
     10 C9          1.9143   -4.2131    1.6592 C.ar      1 <0>        -0.1777
     11 C10         2.1924   -2.9146    2.0759 C.ar      1 <0>        -0.0367
     12 C11         3.1855   -2.6930    3.0087 C.ar      1 <0>        -0.1469
     13 C12         3.9014   -3.7593    3.5266 C.ar      1 <0>        -0.0582
     14 C13         3.6330   -5.0513    3.1196 C.ar      1 <0>        -0.1425
     15 C14         2.6366   -5.2951    2.1815 C.ar      1 <0>         0.1751
     16 N2          2.1750   -6.4778    1.6122 N.am      1 <0>        -0.5493
     17 C15         1.1783   -6.2473    0.7405 C.2       1 <0>         0.5692
     18 O1          0.5801   -7.0874    0.0973 O.2       1 <0>        -0.4609
     19 C16         2.7046   -7.8069    1.9272 C.3       1 <0>         0.0815
     20 H1         -0.3043    1.8508   -1.0757 H         1 <0>         0.0736
     21 H2         -0.5285    1.8839    0.6898 H         1 <0>         0.0690
     22 H3          1.1127    1.8622    0.0013 H         1 <0>         0.0688
     23 H4         -1.8895   -0.1219    0.7247 H         1 <0>         0.1317
     24 H5         -1.9174   -2.5794    0.7740 H         1 <0>         0.1312
     25 H6          2.0530   -2.6316   -0.8699 H         1 <0>         0.1259
     26 H7          2.0497   -0.1738   -0.9172 H         1 <0>         0.1305
     27 H8          1.6339   -2.0837    1.6708 H         1 <0>         0.1352
     28 H9          3.4046   -1.6870    3.3348 H         1 <0>         0.1348
     29 H10         4.6775   -3.5787    4.2556 H         1 <0>         0.1373
     30 H11         4.1988   -5.8742    3.5308 H         1 <0>         0.1336
     31 H12         2.1469   -8.2318    2.7619 H         1 <0>         0.0733
     32 H13         2.6038   -8.4541    1.0560 H         1 <0>         0.0894
     33 H14         3.7571   -7.7238    2.1983 H         1 <0>         0.0859
@<TRIPOS>BOND
     1    1    2 1
     2    1   20 1
     3    1   21 1
     4    1   22 1
     5    2    7 ar
     6    2    3 ar
     7    3    4 ar
     8    3   23 1
     9    4    5 ar
    10    4   24 1
    11    5    6 ar
    12    5    8 1
    13    6    7 ar
    14    6   25 1
    15    7   26 1
    16    8    9 2
    17    9   17 1
    18    9   10 1
    19   10   15 ar
    20   10   11 ar
    21   11   12 ar
    22   11   27 1
    23   12   13 ar
    24   12   28 1
    25   13   14 ar
    26   13   29 1
    27   14   15 ar
    28   14   30 1
    29   15   16 1
    30   16   17 am
    31   16   19 1
    32   17   18 2
    33   19   31 1
    34   19   32 1
    35   19   33 1
@<TRIPOS>MOLECULE
ZINC05525826
   34    36     0     0     0
SMALL
USER_CHARGES

@<TRIPOS>ATOM
      1 C1          0.0172    1.4622    0.2803 C.3       1 <0>         0.0791
      2 N1          0.0520   -0.0013    0.3366 N.am      1 <0>        -0.5491
      3 C2         -1.0138   -0.7952    0.7475 C.ar      1 <0>         0.1745
      4 C3         -2.2935   -0.4687    1.1817 C.ar      1 <0>        -0.1412
      5 C4         -3.1799   -1.4652    1.5391 C.ar      1 <0>        -0.0587
      6 C5         -2.8090   -2.7977    1.4709 C.ar      1 <0>        -0.1463
      7 C6         -1.5429   -3.1422    1.0422 C.ar      1 <0>        -0.0359
      8 C7         -0.6422   -2.1452    0.6794 C.ar      1 <0>        -0.1767
      9 C8          0.7537   -2.1714    0.1905 C.2       1 <0>         0.1761
     10 N2          1.5057   -3.2250   -0.0249 N.2       1 <0>        -0.3695
     11 C9          0.9738   -4.4698    0.0728 C.ar      1 <0>         0.0279
     12 C10        -0.0103   -4.8881   -0.8345 C.ar      1 <0>        -0.0862
     13 C11        -0.5439   -6.1467   -0.7306 C.ar      1 <0>        -0.1357
     14 C12        -0.1113   -7.0081    0.2724 C.ar      1 <0>         0.1289
     15 C13         0.8646   -6.5990    1.1753 C.ar      1 <0>        -0.1929
     16 C14         1.4102   -5.3450    1.0779 C.ar      1 <0>        -0.0652
     17 O1         -0.6438   -8.2526    0.3706 O.3       1 <0>        -0.3128
     18 C15        -0.1549   -9.0862    1.4233 C.3       1 <0>         0.0244
     19 C16         1.1159   -0.7470   -0.0078 C.2       1 <0>         0.5696
     20 O2          2.1849   -0.3284   -0.4081 O.2       1 <0>        -0.4626
     21 H1          0.9764    1.8350   -0.0788 H         1 <0>         0.0957
     22 H2         -0.7737    1.7810   -0.3986 H         1 <0>         0.0773
     23 H3         -0.1771    1.8596    1.2766 H         1 <0>         0.0774
     24 H4         -2.5948    0.5667    1.2400 H         1 <0>         0.1335
     25 H5         -4.1721   -1.2029    1.8753 H         1 <0>         0.1371
     26 H6         -3.5109   -3.5682    1.7537 H         1 <0>         0.1346
     27 H7         -1.2525   -4.1810    0.9883 H         1 <0>         0.1328
     28 H8         -0.3475   -4.2200   -1.6132 H         1 <0>         0.1335
     29 H9         -1.3018   -6.4700   -1.4288 H         1 <0>         0.1399
     30 H10         1.1964   -7.2722    1.9519 H         1 <0>         0.1375
     31 H11         2.1710   -5.0301    1.7768 H         1 <0>         0.1339
     32 H12        -0.3473   -8.6086    2.3840 H         1 <0>         0.0579
     33 H13        -0.6624  -10.0502    1.3887 H         1 <0>         0.1033
     34 H14         0.9177   -9.2355    1.3000 H         1 <0>         0.0581
@<TRIPOS>BOND
     1    1    2 1
     2    1   21 1
     3    1   22 1
     4    1   23 1
     5    2   19 am
     6    2    3 1
     7    3    8 ar
     8    3    4 ar
     9    4    5 ar
    10    4   24 1
    11    5    6 ar
    12    5   25 1
    13    6    7 ar
    14    6   26 1
    15    7    8 ar
    16    7   27 1
    17    8    9 1
    18    9   10 2
    19    9   19 1
    20   10   11 1
    21   11   16 ar
    22   11   12 ar
    23   12   13 ar
    24   12   28 1
    25   13   14 ar
    26   13   29 1
    27   14   15 ar
    28   14   17 1
    29   15   16 ar
    30   15   30 1
    31   16   31 1
    32   17   18 1
    33   18   32 1
    34   18   33 1
    35   18   34 1
    36   19   20 2
@<TRIPOS>MOLECULE
ZINC01675288
   19    20     0     0     0
SMALL
USER_CHARGES
1-methylindoline-2,3-dione
@<TRIPOS>ATOM
      1 C1          3.6358    3.7327   -0.0142 C.3       1 <0>         0.0778
      2 N1          2.2151    4.0898    0.0019 N.am      1 <0>        -0.5499
      3 C2          1.1736    3.1648    0.0074 C.ar      1 <0>         0.1920
      4 C3          1.1792    1.7760    0.0003 C.ar      1 <0>        -0.1505
      5 C4         -0.0126    1.0758    0.0080 C.ar      1 <0>        -0.0422
      6 C5         -1.2254    1.7447    0.0174 C.ar      1 <0>        -0.1556
      7 C6         -1.2541    3.1244    0.0312 C.ar      1 <0>        -0.0042
      8 C7         -0.0574    3.8406    0.0228 C.ar      1 <0>        -0.2405
      9 C8          0.2534    5.2821    0.0270 C.2       1 <0>         0.3904
     10 O1         -0.5305    6.2084    0.0399 O.2       1 <0>        -0.3682
     11 C9          1.7517    5.3516    0.0128 C.2       1 <0>         0.4899
     12 O2          2.4228    6.3621    0.0117 O.2       1 <0>        -0.4456
     13 H1          3.9779    3.6496   -1.0458 H         1 <0>         0.0745
     14 H2          4.2103    4.5045    0.4981 H         1 <0>         0.0895
     15 H3          3.7763    2.7782    0.4932 H         1 <0>         0.0868
     16 H4          2.1175    1.2415   -0.0115 H         1 <0>         0.1362
     17 H5          0.0021   -0.0041    0.0020 H         1 <0>         0.1403
     18 H6         -2.1496    1.1859    0.0188 H         1 <0>         0.1396
     19 H7         -2.1991    3.6471    0.0431 H         1 <0>         0.1399
@<TRIPOS>BOND
     1    1    2 1
     2    1   13 1
     3    1   14 1
     4    1   15 1
     5    2   11 am
     6    2    3 1
     7    3    8 ar
     8    3    4 ar
     9    4    5 ar
    10    4   16 1
    11    5    6 ar
    12    5   17 1
    13    6    7 ar
    14    6   18 1
    15    7    8 ar
    16    7   19 1
    17    8    9 1
    18    9   10 2
    19    9   11 1
    20   11   12 2
@<TRIPOS>MOLECULE
ZINC03861066
   13    13     0     0     0
SMALL
USER_CHARGES

@<TRIPOS>ATOM
      1 C1         -0.0126    1.0758    0.0080 C.ar      1 <0>        -0.0195
      2 C2          1.1760    1.7831    0.0004 C.ar      1 <0>        -0.1127
      3 C3          1.1605    3.1661    0.0080 C.ar      1 <0>        -0.0195
      4 C4         -0.0434    3.8447    0.0231 C.ar      1 <0>        -0.1310
      5 C5         -1.2371    3.1374    0.0307 C.ar      1 <0>         0.1927
      6 C6         -1.2190    1.7499    0.0173 C.ar      1 <0>        -0.1312
      7 I1         -3.0189    0.6779    0.0201 I         1 <0>         0.0025
      8 O1         -2.4224    3.8026    0.0456 O.3       1 <0>        -0.4725
      9 I2         -0.0659    5.9395    0.0353 I         1 <0>         0.0025
     10 I3          3.0029    0.7578   -0.0232 I         1 <0>        -0.0079
     11 H1          0.0021   -0.0041    0.0020 H         1 <0>         0.1471
     12 H2          2.0899    3.7161    0.0017 H         1 <0>         0.1471
     13 H3         -2.7739    3.9998   -0.8334 H         1 <0>         0.4023
@<TRIPOS>BOND
     1    1    6 ar
     2    1    2 ar
     3    1   11 1
     4    2    3 ar
     5    2   10 1
     6    3    4 ar
     7    3   12 1
     8    4    5 ar
     9    4    9 1
    10    5    6 ar
    11    5    8 1
    12    6    7 1
    13    8   13 1
