@<TRIPOS>MOLECULE
ZINC24640039
   77    81     0     0     0
SMALL
USER_CHARGES
(2S)-2-[(5-dimethylamino-1-naphthyl)sulfonylamino]-3-[4-[(5-dimethylamino-1-naphthyl)sulfonyloxy]phenyl]propanoic acid
@<TRIPOS>ATOM
      1 C1         -5.0364   -0.1428    2.1471 C.3       1 <0>         0.0268
      2 N1         -3.5722   -0.0999    2.0367 N.pl3     1 <0>        -0.5096
      3 C2         -3.1284   -0.5928    0.7260 C.3       1 <0>         0.0263
      4 C3         -2.9724   -0.8175    3.0693 C.ar      1 <0>         0.1061
      5 C4         -3.2288   -2.1638    3.2213 C.ar      1 <0>        -0.1529
      6 C5         -2.6348   -2.8894    4.2492 C.ar      1 <0>        -0.0887
      7 C6         -1.7862   -2.2931    5.1316 C.ar      1 <0>        -0.0950
      8 C7         -1.4983   -0.9230    5.0118 C.ar      1 <0>         0.0689
      9 C8         -2.0922   -0.1745    3.9658 C.ar      1 <0>        -0.0499
     10 C9         -1.8084    1.1953    3.8512 C.ar      1 <0>        -0.0271
     11 C10        -0.9596    1.7844    4.7380 C.ar      1 <0>        -0.1583
     12 C11        -0.3701    1.0478    5.7635 C.ar      1 <0>         0.0034
     13 C12        -0.6266   -0.2809    5.9085 C.ar      1 <0>        -0.6634
     14 S1          0.1306   -1.1917    7.2130 S.o2      1 <0>         2.6935
     15 O1          0.9621   -0.2789    7.9163 O.2       1 <0>        -0.9656
     16 O2         -0.9059   -1.9251    7.8511 O.2       1 <0>        -0.9709
     17 N2          1.1364   -2.3055    6.5129 N.pl3     1 <0>        -1.0924
     18 C13         2.3139   -1.8602    5.7635 C.3       1 <0>         0.1154
     19 H1          2.5632   -0.8462    6.1093 H         1 <0>         0.0905
     20 C14         3.4733   -2.8266    6.0139 C.3       1 <0>        -0.0697
     21 C15         3.8763   -2.7626    7.4646 C.ar      1 <0>        -0.0380
     22 C16         4.8464   -1.8658    7.8724 C.ar      1 <0>        -0.0999
     23 C17         5.2136   -1.8012    9.2026 C.ar      1 <0>        -0.1116
     24 C18         4.6161   -2.6450   10.1277 C.ar      1 <0>         0.0406
     25 C19         3.6470   -3.5478    9.7150 C.ar      1 <0>        -0.0881
     26 C20         3.2793   -3.6046    8.3846 C.ar      1 <0>        -0.0997
     27 O3          4.9792   -2.5869   11.4360 O.3       1 <0>        -0.6533
     28 S2          6.1307   -3.5130   11.8006 S.o2      1 <0>         2.6745
     29 O4          6.2414   -3.4852   13.2170 O.2       1 <0>        -0.9334
     30 O5          5.9275   -4.7183   11.0758 O.2       1 <0>        -0.9511
     31 C21         7.6049   -2.7862   11.1658 C.ar      1 <0>        -0.6993
     32 C22         8.1159   -3.2039    9.9751 C.ar      1 <0>         0.0272
     33 C23         9.2806   -2.6412    9.4580 C.ar      1 <0>        -0.1557
     34 C24         9.9409   -1.6569   10.1289 C.ar      1 <0>        -0.0167
     35 C25         9.4435   -1.2006   11.3590 C.ar      1 <0>        -0.0583
     36 C26         8.2561   -1.7683   11.8833 C.ar      1 <0>         0.0363
     37 C27         7.7599   -1.3166   13.1184 C.ar      1 <0>        -0.1482
     38 C28         8.4143   -0.3333   13.7954 C.ar      1 <0>        -0.0807
     39 C29         9.5786    0.2363   13.2880 C.ar      1 <0>        -0.1560
     40 C30        10.1010   -0.1824   12.0831 C.ar      1 <0>         0.1129
     41 N3         11.2670    0.3943   11.5841 N.pl3     1 <0>        -0.5117
     42 C31        11.0948    1.8390   11.3813 C.3       1 <0>         0.0238
     43 C32        12.4095    0.1189   12.4655 C.3       1 <0>         0.0249
     44 C33         1.9917   -1.8327    4.2916 C.2       1 <0>         0.4489
     45 O6          0.8915   -2.1523    3.9079 O.co2     1 <0>        -0.6086
     46 O7          2.9271   -1.4532    3.4068 O.co2     1 <0>        -0.7622
     47 H2         -5.3406    0.2309    3.1359 H         1 <0>         0.0696
     48 H3         -5.3831   -1.1795    2.0243 H         1 <0>         0.0306
     49 H4         -5.4818    0.4881    1.3638 H         1 <0>         0.0718
     50 H5         -2.0306   -0.5498    0.6706 H         1 <0>         0.0761
     51 H6         -3.5605    0.0349   -0.0673 H         1 <0>         0.0715
     52 H7         -3.4618   -1.6326    0.5932 H         1 <0>         0.0312
     53 H8         -3.8985   -2.6605    2.5349 H         1 <0>         0.1163
     54 H9         -2.8500   -3.9431    4.3487 H         1 <0>         0.1223
     55 H10        -1.3344   -2.8730    5.9229 H         1 <0>         0.1259
     56 H11        -2.2582    1.7784    3.0612 H         1 <0>         0.1375
     57 H12        -0.7397    2.8377    4.6450 H         1 <0>         0.1279
     58 H13         0.3000    1.5387    6.4537 H         1 <0>         0.1370
     59 H14         0.8267   -3.3603    6.4748 H         1 <0>         0.4330
     60 H15         3.1571   -3.8506    5.7660 H         1 <0>         0.0823
     61 H16         4.3289   -2.5442    5.3829 H         1 <0>         0.1012
     62 H17         5.3144   -1.2122    7.1512 H         1 <0>         0.1411
     63 H18         5.9683   -1.0975    9.5214 H         1 <0>         0.1349
     64 H19         3.1802   -4.2055   10.4333 H         1 <0>         0.1376
     65 H20         2.5247   -4.3070    8.0629 H         1 <0>         0.1398
     66 H21         7.6111   -3.9832    9.4235 H         1 <0>         0.1457
     67 H22         9.6654   -2.9904    8.5112 H         1 <0>         0.1376
     68 H23        10.8430   -1.2299    9.7163 H         1 <0>         0.1447
     69 H24         6.8577   -1.7462   13.5280 H         1 <0>         0.1605
     70 H25         8.0234    0.0107   14.7415 H         1 <0>         0.1301
     71 H26        10.0786    1.0149   13.8450 H         1 <0>         0.1234
     72 H27        12.0282    2.2678   10.9878 H         1 <0>         0.0766
     73 H28        10.8475    2.3170   12.3407 H         1 <0>         0.0337
     74 H29        10.2797    2.0139   10.6636 H         1 <0>         0.0740
     75 H30        13.3147    0.5846   12.0487 H         1 <0>         0.0765
     76 H31        12.5590   -0.9681   12.5432 H         1 <0>         0.0721
     77 H32        12.2103    0.5340   13.4645 H         1 <0>         0.0333
@<TRIPOS>BOND
     1    1    2 1
     2    1   47 1
     3    1   48 1
     4    1   49 1
     5    2    3 1
     6    2    4 1
     7    3   50 1
     8    3   51 1
     9    3   52 1
    10    4    9 ar
    11    4    5 ar
    12    5    6 ar
    13    5   53 1
    14    6    7 ar
    15    6   54 1
    16    7    8 ar
    17    7   55 1
    18    8   13 ar
    19    8    9 ar
    20    9   10 ar
    21   10   11 ar
    22   10   56 1
    23   11   12 ar
    24   11   57 1
    25   12   13 ar
    26   12   58 1
    27   13   14 1
    28   14   15 2
    29   14   16 2
    30   14   17 1
    31   17   18 1
    32   17   59 1
    33   18   19 1
    34   18   20 1
    35   18   44 1
    36   20   21 1
    37   20   60 1
    38   20   61 1
    39   21   26 ar
    40   21   22 ar
    41   22   23 ar
    42   22   62 1
    43   23   24 ar
    44   23   63 1
    45   24   25 ar
    46   24   27 1
    47   25   26 ar
    48   25   64 1
    49   26   65 1
    50   27   28 1
    51   28   29 2
    52   28   30 2
    53   28   31 1
    54   31   36 ar
    55   31   32 ar
    56   32   33 ar
    57   32   66 1
    58   33   34 ar
    59   33   67 1
    60   34   35 ar
    61   34   68 1
    62   35   40 ar
    63   35   36 ar
    64   36   37 ar
    65   37   38 ar
    66   37   69 1
    67   38   39 ar
    68   38   70 1
    69   39   40 ar
    70   39   71 1
    71   40   41 1
    72   41   42 1
    73   41   43 1
    74   42   72 1
    75   42   73 1
    76   42   74 1
    77   43   75 1
    78   43   76 1
    79   43   77 1
    80   44   45 2
    81   44   46 1
@<TRIPOS>MOLECULE
ZINC18279672
   52    54     0     0     0
SMALL
USER_CHARGES
(2S)-2-[[5-[methyl-[(2-methyl-4-oxo-3H-quinazolin-6-yl)methyl]amino]thiophene-2-carbonyl]amino]pentanedioic acid
@<TRIPOS>ATOM
      1 C1         10.3914    0.6209   -2.9939 C.3       1 <0>        -0.1098
      2 C2          9.9324    1.6032   -1.9474 C.2       1 <0>         0.3866
      3 N1         10.8080    2.5530   -1.5269 N.am      1 <0>        -0.6544
      4 H1         11.7018    2.5827   -1.9025 H         1 <0>         0.4157
      5 C3         10.4445    3.4586   -0.5889 C.2       1 <0>         0.5541
      6 O1         11.2187    4.3151   -0.2033 O.2       1 <0>        -0.5194
      7 C4          9.0777    3.3677   -0.0542 C.ar      1 <0>        -0.2041
      8 C5          8.6044    4.2514    0.9136 C.ar      1 <0>        -0.0276
      9 C6          7.3145    4.1207    1.3792 C.ar      1 <0>        -0.1286
     10 C7          6.4876    3.1147    0.8963 C.ar      1 <0>        -0.0507
     11 C8          6.9345    2.2343   -0.0630 C.ar      1 <0>        -0.0992
     12 C9          8.2378    2.3468   -0.5515 C.ar      1 <0>         0.1569
     13 N2          8.7202    1.4988   -1.4941 N.2       1 <0>        -0.5098
     14 C10         6.7981    5.0737    2.4262 C.3       1 <0>         0.1624
     15 N3          6.1861    6.2329    1.7721 N.pl3     1 <0>        -0.5801
     16 C11         6.9998    7.4090    1.4544 C.3       1 <0>         0.0999
     17 C12         4.8379    6.2170    1.4541 C.2       1 <0>         0.1191
     18 C13         4.0888    7.2017    0.8433 C.2       1 <0>        -0.2745
     19 C14         2.7578    6.9738    0.6212 C.2       1 <0>        -0.0340
     20 C15         2.2441    5.7510    1.0309 C.2       1 <0>        -0.2445
     21 S1          3.6794    4.9577    1.7328 S.3       1 <0>         0.1263
     22 C16         0.9186    5.2612    0.9245 C.2       1 <0>         0.6013
     23 O2          0.0538    5.9506    0.4145 O.2       1 <0>        -0.5485
     24 N4          0.6151    4.0324    1.3875 N.am      1 <0>        -0.6859
     25 C17        -0.7552    3.5260    1.2775 C.3       1 <0>         0.1006
     26 H2         -1.2033    3.8884    0.3523 H         1 <0>         0.0870
     27 C18        -0.7345    1.9962    1.2691 C.3       1 <0>        -0.0862
     28 C19        -0.0184    1.5028    0.0103 C.3       1 <0>        -0.1531
     29 C20         0.0021   -0.0041    0.0020 C.2       1 <0>         0.4619
     30 O3         -0.5042   -0.6201    0.9098 O.co2     1 <0>        -0.6390
     31 C21        -1.5658    4.0110    2.4518 C.2       1 <0>         0.4651
     32 O4         -1.0516    4.7080    3.2942 O.co2     1 <0>        -0.6388
     33 H3         10.8333   -0.2486   -2.5072 H         1 <0>         0.0972
     34 H4          9.5388    0.3061   -3.5957 H         1 <0>         0.1058
     35 H5         11.1341    1.0945   -3.6359 H         1 <0>         0.0837
     36 H6          9.2443    5.0328    1.2961 H         1 <0>         0.1350
     37 H7          5.4806    3.0240    1.2757 H         1 <0>         0.1416
     38 H8          6.2812    1.4583   -0.4338 H         1 <0>         0.1499
     39 H9          7.6246    5.4055    3.0547 H         1 <0>         0.0951
     40 H10         6.0536    4.5687    3.0417 H         1 <0>         0.0926
     41 H11         6.9800    8.1025    2.2951 H         1 <0>         0.0543
     42 H12         8.0272    7.0991    1.2632 H         1 <0>         0.0687
     43 H13         6.5977    7.9004    0.5685 H         1 <0>         0.0705
     44 H14         4.5442    8.1348    0.5463 H         1 <0>         0.1271
     45 H15         2.1325    7.7151    0.1461 H         1 <0>         0.1421
     46 H16         1.3039    3.4833    1.7937 H         1 <0>         0.3879
     47 H17        -1.7571    1.6189    1.2768 H         1 <0>         0.0849
     48 H18        -0.2073    1.6351    2.1522 H         1 <0>         0.0569
     49 H19         1.0042    1.8801    0.0026 H         1 <0>         0.0573
     50 H20        -0.5455    1.8639   -0.8728 H         1 <0>         0.0608
     51 O5          0.5827   -0.6618   -1.0138 O.co2     1 <0>        -0.7903
     52 O6         -2.8590    3.6685    2.5619 O.co2     1 <0>        -0.7696
@<TRIPOS>BOND
     1    1    2 1
     2    1   33 1
     3    1   34 1
     4    1   35 1
     5    2   13 2
     6    2    3 1
     7    3    4 1
     8    3    5 am
     9    5    6 2
    10    5    7 1
    11    7   12 ar
    12    7    8 ar
    13    8    9 ar
    14    8   36 1
    15    9   10 ar
    16    9   14 1
    17   10   11 ar
    18   10   37 1
    19   11   12 ar
    20   11   38 1
    21   12   13 1
    22   14   15 1
    23   14   39 1
    24   14   40 1
    25   15   16 1
    26   15   17 1
    27   16   41 1
    28   16   42 1
    29   16   43 1
    30   17   21 1
    31   17   18 2
    32   18   19 1
    33   18   44 1
    34   19   20 2
    35   19   45 1
    36   20   21 1
    37   20   22 1
    38   22   23 2
    39   22   24 am
    40   24   25 1
    41   24   46 1
    42   25   26 1
    43   25   27 1
    44   25   31 1
    45   27   28 1
    46   27   47 1
    47   27   48 1
    48   28   29 1
    49   28   49 1
    50   28   50 1
    51   29   30 2
    52   29   51 1
    53   31   32 2
    54   31   52 1
@<TRIPOS>MOLECULE
ZINC01540998
   50    52     0     0     0
SMALL
USER_CHARGES

@<TRIPOS>ATOM
      1 C1         -0.0167    1.3794    0.0096 C.ar      1 <0>        -0.1237
      2 C2          1.1667    2.0884    0.0021 C.ar      1 <0>        -0.0650
      3 C3          2.3848    1.4070   -0.0132 C.ar      1 <0>        -0.1108
      4 C4          2.3966    0.0113   -0.0208 C.ar      1 <0>        -0.0853
      5 C5          1.2061   -0.6856   -0.0132 C.ar      1 <0>        -0.1248
      6 C6          0.0021   -0.0041    0.0020 C.ar      1 <0>        -0.0756
      7 C7         -1.2946   -0.7719    0.0103 C.3       1 <0>        -0.0645
      8 C8         -1.7472   -1.0241   -1.4293 C.3       1 <0>        -0.0478
      9 C9         -3.0439   -1.7919   -1.4210 C.2       1 <0>        -0.0685
     10 C10        -3.1874   -3.1243   -1.5149 C.2       1 <0>        -0.0065
     11 N1         -4.5200   -3.4490   -1.4711 N.pl3     1 <0>        -0.5467
     12 H1         -4.8743   -4.3505   -1.5209 H         1 <0>         0.4184
     13 C11        -5.2735   -2.3187   -1.3465 C.2       1 <0>         0.3387
     14 C12        -4.3891   -1.2318   -1.3029 C.2       1 <0>        -0.3095
     15 C13        -4.9114    0.0734   -1.1699 C.2       1 <0>         0.5795
     16 O1         -4.1726    1.0423   -1.1322 O.2       1 <0>        -0.5172
     17 N2         -6.2532    0.2199   -1.0861 N.am      1 <0>        -0.6639
     18 H2         -6.6382    1.1055   -0.9942 H         1 <0>         0.4126
     19 C14        -7.0663   -0.8737   -1.1307 C.2       1 <0>         0.6511
     20 N3         -6.5926   -2.0916   -1.2621 N.2       1 <0>        -0.5927
     21 N4         -8.4242   -0.6953   -1.0434 N.pl3     1 <0>        -0.8265
     22 C15         3.6569    2.1603   -0.0218 C.2       1 <0>         0.5510
     23 O2          3.6435    3.3757   -0.0155 O.2       1 <0>        -0.5556
     24 N5          4.8314    1.4994   -0.0366 N.am      1 <0>        -0.6767
     25 C16         6.0919    2.2459   -0.0451 C.3       1 <0>         0.0726
     26 H3          5.9814    3.1523    0.5501 H         1 <0>         0.0776
     27 C17         7.2027    1.3778    0.5494 C.3       1 <0>        -0.0801
     28 C18         6.9032    1.1060    2.0250 C.3       1 <0>        -0.1779
     29 C19         7.9973    0.2510    2.6105 C.2       1 <0>         0.4911
     30 O3          8.9302   -0.1078    1.9123 O.co2     1 <0>        -0.6973
     31 O4          7.9496   -0.0820    3.7824 O.co2     1 <0>        -0.7205
     32 C20         6.4472    2.6155   -1.4622 C.2       1 <0>         0.4957
     33 O5          5.7154    2.2860   -2.3799 O.co2     1 <0>        -0.6965
     34 O6          7.4666    3.2441   -1.6909 O.co2     1 <0>        -0.7009
     35 H4         -0.9598    1.9054    0.0260 H         1 <0>         0.1238
     36 H5          1.1508    3.1682    0.0077 H         1 <0>         0.1319
     37 H6          3.3358   -0.5219   -0.0330 H         1 <0>         0.1274
     38 H7          1.2138   -1.7656   -0.0191 H         1 <0>         0.1227
     39 H8         -1.1489   -1.7256    0.5176 H         1 <0>         0.0683
     40 H9         -2.0557   -0.1941    0.5345 H         1 <0>         0.0708
     41 H10        -1.8929   -0.0704   -1.9367 H         1 <0>         0.0817
     42 H11        -0.9861   -1.6019   -1.9536 H         1 <0>         0.0745
     43 H12        -2.3774   -3.8322   -1.6109 H         1 <0>         0.1800
     44 H13        -8.7912    0.1979   -0.9515 H         1 <0>         0.4143
     45 H14        -9.0171   -1.4624   -1.0735 H         1 <0>         0.4255
     46 H15         4.8421    0.5294   -0.0416 H         1 <0>         0.3891
     47 H16         7.2537    0.4325    0.0090 H         1 <0>         0.0548
     48 H17         8.1565    1.8981    0.4621 H         1 <0>         0.0788
     49 H18         6.8522    2.0513    2.5654 H         1 <0>         0.0521
     50 H19         5.9494    0.5857    2.1123 H         1 <0>         0.0504
@<TRIPOS>BOND
     1    1    6 ar
     2    1    2 ar
     3    1   35 1
     4    2    3 ar
     5    2   36 1
     6    3    4 ar
     7    3   22 1
     8    4    5 ar
     9    4   37 1
    10    5    6 ar
    11    5   38 1
    12    6    7 1
    13    7    8 1
    14    7   39 1
    15    7   40 1
    16    8    9 1
    17    8   41 1
    18    8   42 1
    19    9   14 1
    20    9   10 2
    21   10   11 1
    22   10   43 1
    23   11   12 1
    24   11   13 1
    25   13   20 1
    26   13   14 2
    27   14   15 1
    28   15   16 2
    29   15   17 am
    30   17   18 1
    31   17   19 1
    32   19   20 2
    33   19   21 1
    34   21   44 1
    35   21   45 1
    36   22   23 2
    37   22   24 am
    38   24   25 1
    39   24   46 1
    40   25   26 1
    41   25   27 1
    42   25   32 1
    43   27   28 1
    44   27   47 1
    45   27   48 1
    46   28   29 1
    47   28   49 1
    48   28   50 1
    49   29   30 2
    50   29   31 1
    51   32   33 2
    52   32   34 1
@<TRIPOS>MOLECULE
ZINC00008107
   32    34     0     0     0
SMALL
USER_CHARGES
2-amino-6-methyl-5-(4-pyridylsulfanyl)-3H-quinazolin-4-one
@<TRIPOS>ATOM
      1 C1         -3.9760    2.8330   -2.4513 C.3       1 <0>        -0.1255
      2 C2         -4.4879    2.2881   -1.1427 C.ar      1 <0>        -0.0613
      3 C3         -5.4573    1.2984   -1.1421 C.ar      1 <0>        -0.0725
      4 C4         -5.9469    0.7861    0.0401 C.ar      1 <0>        -0.0945
      5 C5         -5.4604    1.2621    1.2594 C.ar      1 <0>         0.1975
      6 C6         -4.4672    2.2683    1.2647 C.ar      1 <0>        -0.1851
      7 C7         -3.9810    2.7777    0.0524 C.ar      1 <0>        -0.0775
      8 S1         -2.7437    4.0322    0.0468 S.3       1 <0>         0.0554
      9 C8         -1.2272    3.1352    0.0292 C.ar      1 <0>        -0.0446
     10 C9         -1.2209    1.7400    0.0173 C.ar      1 <0>        -0.1858
     11 C10        -0.0126    1.0758    0.0080 C.ar      1 <0>         0.1182
     12 N1          1.1265    1.7429    0.0007 N.ar      1 <0>        -0.4943
     13 C11         1.1625    3.0625    0.0070 C.ar      1 <0>         0.1181
     14 C12        -0.0015    3.8015    0.0211 C.ar      1 <0>        -0.1583
     15 C13        -3.9746    2.7489    2.5583 C.2       1 <0>         0.5562
     16 O1         -3.1198    3.6135    2.6261 O.2       1 <0>        -0.4734
     17 N2         -4.5035    2.1971    3.6748 N.am      1 <0>        -0.6703
     18 H1         -4.1904    2.5015    4.5744 H         1 <0>         0.4211
     19 C14        -5.4606    1.2287    3.5834 C.2       1 <0>         0.6412
     20 N3         -5.9177    0.7819    2.4406 N.2       1 <0>        -0.5889
     21 N4         -5.9672    0.6981    4.7430 N.pl3     1 <0>        -0.8240
     22 H2         -3.1213    2.2425   -2.7812 H         1 <0>         0.0759
     23 H3         -4.7656    2.7796   -3.2008 H         1 <0>         0.0754
     24 H4         -3.6710    3.8709   -2.3182 H         1 <0>         0.0838
     25 H5         -5.8379    0.9257   -2.0817 H         1 <0>         0.1414
     26 H6         -6.7053    0.0174    0.0235 H         1 <0>         0.1448
     27 H7         -2.1492    1.1881    0.0192 H         1 <0>         0.1280
     28 H8          0.0021   -0.0041    0.0020 H         1 <0>         0.1555
     29 H9          2.1160    3.5698    0.0006 H         1 <0>         0.1610
     30 H10         0.0352    4.8809    0.0255 H         1 <0>         0.1395
     31 H11        -6.6481    0.0084    4.7038 H         1 <0>         0.4290
     32 H12        -5.6444    1.0128    5.6019 H         1 <0>         0.4138
@<TRIPOS>BOND
     1    1    2 1
     2    1   22 1
     3    1   23 1
     4    1   24 1
     5    2    7 ar
     6    2    3 ar
     7    3    4 ar
     8    3   25 1
     9    4    5 ar
    10    4   26 1
    11    5   20 1
    12    5    6 ar
    13    6    7 ar
    14    6   15 1
    15    7    8 1
    16    8    9 1
    17    9   14 ar
    18    9   10 ar
    19   10   11 ar
    20   10   27 1
    21   11   12 ar
    22   11   28 1
    23   12   13 ar
    24   13   14 ar
    25   13   29 1
    26   14   30 1
    27   15   16 2
    28   15   17 am
    29   17   18 1
    30   17   19 1
    31   19   20 2
    32   19   21 1
    33   21   31 1
    34   21   32 1
@<TRIPOS>MOLECULE
ZINC01529323
   53    55     0     0     0
SMALL
USER_CHARGES

@<TRIPOS>ATOM
      1 C1         -0.0178    1.4608    0.0101 C.3       1 <0>         0.0943
      2 N1          0.0021   -0.0041    0.0020 N.pl3     1 <0>        -0.6229
      3 C2          0.0241   -0.7433    1.2666 C.3       1 <0>         0.1846
      4 C3         -1.3889   -1.0161    1.7137 C.ar      1 <0>         0.0299
      5 C4         -1.9892   -2.2351    1.3999 C.ar      1 <0>         0.1556
      6 N2         -3.2219   -2.4965    1.7797 N.ar      1 <0>        -0.4373
      7 C5         -3.9051   -1.5830    2.4739 C.ar      1 <0>         0.3718
      8 C6         -3.2902   -0.3458    2.7901 C.ar      1 <0>        -0.0918
      9 N3         -2.0425   -0.1038    2.4012 N.ar      1 <0>        -0.3728
     10 C7         -4.0706    0.6301    3.5527 C.ar      1 <0>         0.5432
     11 N4         -5.3055    0.2953    3.9004 N.ar      1 <0>        -0.6300
     12 C8         -5.8196   -0.8850    3.5693 C.ar      1 <0>         0.6362
     13 N5         -5.1609   -1.7987    2.8845 N.ar      1 <0>        -0.5990
     14 N6         -7.1130   -1.1692    3.9639 N.pl3     1 <0>        -0.8099
     15 N7         -3.5402    1.8539    3.8976 N.pl3     1 <0>        -0.7943
     16 C9          0.0000   -0.6928   -1.2059 C.ar      1 <0>         0.2179
     17 C10         0.0132   -2.0849   -1.2118 C.ar      1 <0>        -0.2113
     18 C11         0.0112   -2.7693   -2.4056 C.ar      1 <0>        -0.0159
     19 C12        -0.0041   -2.0653   -3.6133 C.ar      1 <0>        -0.1590
     20 C13        -0.0173   -0.6674   -3.6040 C.ar      1 <0>        -0.0366
     21 C14        -0.0210    0.0112   -2.4068 C.ar      1 <0>        -0.1985
     22 C15        -0.0058   -2.7960   -4.8948 C.2       1 <0>         0.5556
     23 O1          0.0061   -4.0119   -4.9015 O.2       1 <0>        -0.5600
     24 N8         -0.0205   -2.1158   -6.0583 N.am      1 <0>        -0.6793
     25 C16        -0.0222   -2.8414   -7.3310 C.3       1 <0>         0.0733
     26 H1         -0.6020   -3.7584   -7.2256 H         1 <0>         0.0773
     27 C17        -0.6480   -1.9644   -8.4172 C.3       1 <0>        -0.0801
     28 C18        -2.1222   -1.7198   -8.0888 C.3       1 <0>        -0.1777
     29 C19        -2.7386   -0.8559   -9.1588 C.2       1 <0>         0.4909
     30 O2         -2.0616   -0.4715  -10.0971 O.co2     1 <0>        -0.6975
     31 O3         -3.9143   -0.5414   -9.0862 O.co2     1 <0>        -0.7207
     32 C20         1.3940   -3.1839   -7.7158 C.2       1 <0>         0.4958
     33 O4          2.3190   -2.8526   -6.9939 O.co2     1 <0>        -0.6970
     34 O5          1.6147   -3.7923   -8.7491 O.co2     1 <0>        -0.7014
     35 H2          1.0048    1.8381    0.0023 H         1 <0>         0.0502
     36 H3         -0.5450    1.8219   -0.8730 H         1 <0>         0.0690
     37 H4         -0.5280    1.8123    0.9069 H         1 <0>         0.0657
     38 H5          0.5496   -1.6879    1.1262 H         1 <0>         0.1015
     39 H6          0.5371   -0.1514    2.0246 H         1 <0>         0.0948
     40 H7         -1.4361   -2.9733    0.8382 H         1 <0>         0.1815
     41 H8         -7.6209   -0.5150    4.4689 H         1 <0>         0.4148
     42 H9         -7.5132   -2.0229    3.7358 H         1 <0>         0.4190
     43 H10        -2.6346    2.0814    3.6347 H         1 <0>         0.4250
     44 H11        -4.0722    2.4880    4.4032 H         1 <0>         0.4139
     45 H12         0.0253   -2.6282   -0.2785 H         1 <0>         0.1208
     46 H13         0.0217   -3.8493   -2.4096 H         1 <0>         0.1351
     47 H14        -0.0287   -0.1208   -4.5353 H         1 <0>         0.1282
     48 H15        -0.0359    1.0910   -2.3989 H         1 <0>         0.1244
     49 H16        -0.0300   -1.1459   -6.0530 H         1 <0>         0.3877
     50 H17        -0.1225   -1.0104   -8.4615 H         1 <0>         0.0543
     51 H18        -0.5691   -2.4677   -9.3808 H         1 <0>         0.0783
     52 H19        -2.6477   -2.6737   -8.0445 H         1 <0>         0.0522
     53 H20        -2.2011   -1.2164   -7.1252 H         1 <0>         0.0501
@<TRIPOS>BOND
     1    1    2 1
     2    1   35 1
     3    1   36 1
     4    1   37 1
     5    2    3 1
     6    2   16 1
     7    3    4 1
     8    3   38 1
     9    3   39 1
    10    4    9 ar
    11    4    5 ar
    12    5    6 ar
    13    5   40 1
    14    6    7 ar
    15    7   13 ar
    16    7    8 ar
    17    8    9 ar
    18    8   10 ar
    19   10   11 ar
    20   10   15 1
    21   11   12 ar
    22   12   13 ar
    23   12   14 1
    24   14   41 1
    25   14   42 1
    26   15   43 1
    27   15   44 1
    28   16   21 ar
    29   16   17 ar
    30   17   18 ar
    31   17   45 1
    32   18   19 ar
    33   18   46 1
    34   19   20 ar
    35   19   22 1
    36   20   21 ar
    37   20   47 1
    38   21   48 1
    39   22   23 2
    40   22   24 am
    41   24   25 1
    42   24   49 1
    43   25   26 1
    44   25   27 1
    45   25   32 1
    46   27   28 1
    47   27   50 1
    48   27   51 1
    49   28   29 1
    50   28   52 1
    51   28   53 1
    52   29   30 2
    53   29   31 1
    54   32   33 2
    55   32   34 1
@<TRIPOS>MOLECULE
ZINC06920406
   53    55     0     0     0
SMALL
USER_CHARGES

@<TRIPOS>ATOM
      1 C1         -0.0178    1.4608    0.0101 C.3       1 <0>         0.0941
      2 N1          0.0021   -0.0041    0.0020 N.pl3     1 <0>        -0.6227
      3 C2          0.0241   -0.7433    1.2666 C.3       1 <0>         0.1846
      4 C3         -1.3889   -1.0161    1.7137 C.ar      1 <0>         0.0297
      5 C4         -1.9892   -2.2351    1.3999 C.ar      1 <0>         0.1557
      6 N2         -3.2219   -2.4965    1.7797 N.ar      1 <0>        -0.4368
      7 C5         -3.9051   -1.5830    2.4739 C.ar      1 <0>         0.3719
      8 C6         -3.2902   -0.3458    2.7901 C.ar      1 <0>        -0.0918
      9 N3         -2.0425   -0.1038    2.4012 N.ar      1 <0>        -0.3728
     10 C7         -4.0706    0.6301    3.5527 C.ar      1 <0>         0.5431
     11 N4         -5.3055    0.2953    3.9004 N.ar      1 <0>        -0.6300
     12 C8         -5.8196   -0.8850    3.5693 C.ar      1 <0>         0.6360
     13 N5         -5.1609   -1.7987    2.8845 N.ar      1 <0>        -0.5986
     14 N6         -7.1130   -1.1692    3.9639 N.pl3     1 <0>        -0.8100
     15 N7         -3.5402    1.8539    3.8976 N.pl3     1 <0>        -0.7944
     16 C9          0.0000   -0.6928   -1.2059 C.ar      1 <0>         0.2189
     17 C10         0.0132   -2.0849   -1.2118 C.ar      1 <0>        -0.2116
     18 C11         0.0112   -2.7693   -2.4056 C.ar      1 <0>        -0.0155
     19 C12        -0.0041   -2.0653   -3.6133 C.ar      1 <0>        -0.1616
     20 C13        -0.0173   -0.6674   -3.6040 C.ar      1 <0>        -0.0356
     21 C14        -0.0210    0.0112   -2.4068 C.ar      1 <0>        -0.1983
     22 C15        -0.0058   -2.7960   -4.8948 C.2       1 <0>         0.5487
     23 O1          0.0061   -4.0119   -4.9015 O.2       1 <0>        -0.5585
     24 N8         -0.0205   -2.1158   -6.0583 N.am      1 <0>        -0.6789
     25 C16        -0.0222   -2.8414   -7.3310 C.3       1 <0>         0.0745
     26 H1          0.5768   -3.7469   -7.2338 H         1 <0>         0.0773
     27 C17         0.5711   -1.9524   -8.4257 C.3       1 <0>        -0.0822
     28 C18         2.0446   -1.6789   -8.1177 C.3       1 <0>        -0.1766
     29 C19         2.6291   -0.8032   -9.1959 C.2       1 <0>         0.4909
     30 O2          1.9317   -0.4323  -10.1247 O.co2     1 <0>        -0.6980
     31 O3          3.7993   -0.4657   -9.1396 O.co2     1 <0>        -0.7201
     32 C20        -1.4367   -3.2117   -7.6962 C.2       1 <0>         0.4981
     33 O4         -2.3634   -2.5041   -7.3399 O.co2     1 <0>        -0.6991
     34 O5         -1.6542   -4.2188   -8.3480 O.co2     1 <0>        -0.7022
     35 H2          1.0048    1.8381    0.0023 H         1 <0>         0.0507
     36 H3         -0.5450    1.8219   -0.8730 H         1 <0>         0.0690
     37 H4         -0.5280    1.8123    0.9069 H         1 <0>         0.0658
     38 H5          0.5496   -1.6879    1.1262 H         1 <0>         0.1014
     39 H6          0.5371   -0.1514    2.0246 H         1 <0>         0.0950
     40 H7         -1.4361   -2.9733    0.8382 H         1 <0>         0.1814
     41 H8         -7.6209   -0.5150    4.4689 H         1 <0>         0.4147
     42 H9         -7.5132   -2.0229    3.7358 H         1 <0>         0.4190
     43 H10        -2.6346    2.0814    3.6347 H         1 <0>         0.4250
     44 H11        -4.0722    2.4880    4.4032 H         1 <0>         0.4139
     45 H12         0.0253   -2.6282   -0.2785 H         1 <0>         0.1211
     46 H13         0.0217   -3.8493   -2.4096 H         1 <0>         0.1354
     47 H14        -0.0287   -0.1208   -4.5353 H         1 <0>         0.1292
     48 H15        -0.0359    1.0910   -2.3989 H         1 <0>         0.1249
     49 H16        -0.0300   -1.1459   -6.0530 H         1 <0>         0.3899
     50 H17         0.4888   -2.4573   -9.3882 H         1 <0>         0.0717
     51 H18         0.0264   -1.0090   -8.4626 H         1 <0>         0.0594
     52 H19         2.1270   -1.1740   -7.1552 H         1 <0>         0.0514
     53 H20         2.5893   -2.6223   -8.0808 H         1 <0>         0.0527
@<TRIPOS>BOND
     1    1    2 1
     2    1   35 1
     3    1   36 1
     4    1   37 1
     5    2    3 1
     6    2   16 1
     7    3    4 1
     8    3   38 1
     9    3   39 1
    10    4    9 ar
    11    4    5 ar
    12    5    6 ar
    13    5   40 1
    14    6    7 ar
    15    7   13 ar
    16    7    8 ar
    17    8    9 ar
    18    8   10 ar
    19   10   11 ar
    20   10   15 1
    21   11   12 ar
    22   12   13 ar
    23   12   14 1
    24   14   41 1
    25   14   42 1
    26   15   43 1
    27   15   44 1
    28   16   21 ar
    29   16   17 ar
    30   17   18 ar
    31   17   45 1
    32   18   19 ar
    33   18   46 1
    34   19   20 ar
    35   19   22 1
    36   20   21 ar
    37   20   47 1
    38   21   48 1
    39   22   23 2
    40   22   24 am
    41   24   25 1
    42   24   49 1
    43   25   26 1
    44   25   27 1
    45   25   32 1
    46   27   28 1
    47   27   50 1
    48   27   51 1
    49   28   29 1
    50   28   52 1
    51   28   53 1
    52   29   30 2
    53   29   31 1
    54   32   33 2
    55   32   34 1
@<TRIPOS>MOLECULE
ZINC03831317
   38    41     0     0     0
SMALL
USER_CHARGES

@<TRIPOS>ATOM
      1 C1         -0.0166    1.3756    0.0096 C.ar      1 <0>        -0.1205
      2 C2          1.1685    2.0902    0.0021 C.ar      1 <0>        -0.0738
      3 C3          2.3837    1.4259   -0.0135 C.ar      1 <0>        -0.1060
      4 C4          2.4141    0.0511   -0.0211 C.ar      1 <0>        -0.0809
      5 C5          1.2226   -0.6799   -0.0132 C.ar      1 <0>        -0.1884
      6 C6          0.0021   -0.0041    0.0020 C.ar      1 <0>        -0.0296
      7 C7          1.5769   -2.1110   -0.0238 C.2       1 <0>         0.5250
      8 O1          0.7785   -3.0264   -0.0207 O.2       1 <0>        -0.4400
      9 O2          2.9126   -2.2536   -0.0376 O.3       1 <0>        -0.2998
     10 C8          3.5293   -0.9632   -0.0371 C.3       1 <0>         0.2449
     11 C9          4.3892   -0.8032    1.1901 C.ar      1 <0>        -0.1042
     12 C10         4.5259    0.4399    1.7799 C.ar      1 <0>        -0.0908
     13 C11         5.3140    0.5892    2.9046 C.ar      1 <0>        -0.1433
     14 C12         5.9683   -0.5095    3.4425 C.ar      1 <0>         0.1182
     15 C13         5.8292   -1.7558    2.8492 C.ar      1 <0>        -0.1434
     16 C14         5.0357   -1.9009    1.7276 C.ar      1 <0>        -0.0715
     17 O3          6.7445   -0.3651    4.5487 O.3       1 <0>        -0.4984
     18 C15         4.3652   -0.7908   -1.2790 C.ar      1 <0>        -0.1048
     19 C16         4.4996    0.4602   -1.8523 C.ar      1 <0>        -0.0905
     20 C17         5.2650    0.6208   -2.9911 C.ar      1 <0>        -0.1433
     21 C18         5.8994   -0.4744   -3.5593 C.ar      1 <0>         0.1186
     22 C19         5.7632   -1.7285   -2.9819 C.ar      1 <0>        -0.1434
     23 C20         5.0010   -1.8829   -1.8401 C.ar      1 <0>        -0.0713
     24 O4          6.6525   -0.3191   -4.6798 O.3       1 <0>        -0.4982
     25 H1         -0.9605    1.9002    0.0259 H         1 <0>         0.1415
     26 H2          1.1457    3.1699    0.0081 H         1 <0>         0.1421
     27 H3          3.3064    1.9871   -0.0200 H         1 <0>         0.1416
     28 H4         -0.9246   -0.5588    0.0082 H         1 <0>         0.1404
     29 H5          4.0163    1.2949    1.3607 H         1 <0>         0.1355
     30 H6          5.4210    1.5605    3.3645 H         1 <0>         0.1348
     31 H7          6.3375   -2.6127    3.2661 H         1 <0>         0.1350
     32 H8          4.9236   -2.8717    1.2679 H         1 <0>         0.1350
     33 H9          6.2692   -0.4890    5.3816 H         1 <0>         0.3945
     34 H10         4.0056    1.3125   -1.4097 H         1 <0>         0.1352
     35 H11         5.3691    1.5981   -3.4389 H         1 <0>         0.1349
     36 H12         6.2561   -2.5826   -3.4223 H         1 <0>         0.1351
     37 H13         4.8983   -2.8582   -1.3877 H         1 <0>         0.1349
     38 H14         7.5825   -0.1209   -4.5042 H         1 <0>         0.3945
@<TRIPOS>BOND
     1    1    6 ar
     2    1    2 ar
     3    1   25 1
     4    2    3 ar
     5    2   26 1
     6    3    4 ar
     7    3   27 1
     8    4   10 1
     9    4    5 ar
    10    5    6 ar
    11    5    7 1
    12    6   28 1
    13    7    8 2
    14    7    9 1
    15    9   10 1
    16   10   11 1
    17   10   18 1
    18   11   16 ar
    19   11   12 ar
    20   12   13 ar
    21   12   29 1
    22   13   14 ar
    23   13   30 1
    24   14   15 ar
    25   14   17 1
    26   15   16 ar
    27   15   31 1
    28   16   32 1
    29   17   33 1
    30   18   23 ar
    31   18   19 ar
    32   19   20 ar
    33   19   34 1
    34   20   21 ar
    35   20   35 1
    36   21   22 ar
    37   21   24 1
    38   22   23 ar
    39   22   36 1
    40   23   37 1
    41   24   38 1
@<TRIPOS>MOLECULE
ZINC05742707
   44    48     0     0     0
SMALL
USER_CHARGES
bis(4-hydroxyphenyl)BLAHone
@<TRIPOS>ATOM
      1 C1         -2.5092    4.6975    0.4178 C.ar      1 <0>        -0.1329
      2 C2         -2.3624    3.3617    0.6454 C.ar      1 <0>        -0.0610
      3 C3         -1.0956    2.7574    0.5906 C.ar      1 <0>        -0.0593
      4 C4         -0.9038    1.3799    0.7924 C.ar      1 <0>        -0.0825
      5 C5          0.3568    0.8651    0.7340 C.ar      1 <0>        -0.1181
      6 C6          1.4651    1.6714    0.4763 C.ar      1 <0>        -0.0790
      7 C7          1.3180    3.0103    0.2763 C.ar      1 <0>        -0.1100
      8 C8          0.0314    3.5620    0.3147 C.ar      1 <0>        -0.0077
      9 C9         -0.1565    4.9899    0.0553 C.ar      1 <0>        -0.1783
     10 C10        -1.4270    5.5223    0.1201 C.ar      1 <0>        -0.0214
     11 C11         1.0468    5.7794   -0.2726 C.2       1 <0>         0.5405
     12 O1          1.0821    6.9866   -0.1370 O.2       1 <0>        -0.4342
     13 O2          2.1149    5.0736   -0.7357 O.3       1 <0>        -0.3523
     14 C12         2.5056    3.9041    0.0351 C.3       1 <0>         0.2784
     15 C13         3.0713    4.3477    1.3595 C.ar      1 <0>        -0.1313
     16 C14         2.9557    3.5296    2.4682 C.ar      1 <0>        -0.0864
     17 C15         3.4785    3.9315    3.6821 C.ar      1 <0>        -0.1444
     18 C16         4.1094    5.1623    3.7910 C.ar      1 <0>         0.1194
     19 C17         4.2191    5.9837    2.6784 C.ar      1 <0>        -0.1413
     20 C18         3.7001    5.5746    1.4653 C.ar      1 <0>        -0.0728
     21 O3          4.6188    5.5627    4.9856 O.3       1 <0>        -0.4980
     22 C19         3.5587    3.1380   -0.7231 C.ar      1 <0>        -0.0906
     23 C20         4.4265    2.3021   -0.0448 C.ar      1 <0>        -0.0867
     24 C21         5.3892    1.5944   -0.7382 C.ar      1 <0>        -0.1430
     25 C22         5.4924    1.7318   -2.1148 C.ar      1 <0>         0.1175
     26 C23         4.6241    2.5754   -2.7924 C.ar      1 <0>        -0.1437
     27 C24         3.6592    3.2763   -2.0952 C.ar      1 <0>        -0.0691
     28 O4          6.4427    1.0415   -2.7984 O.3       1 <0>        -0.4987
     29 H1         -3.4971    5.1308    0.4703 H         1 <0>         0.1367
     30 H2         -3.2308    2.7606    0.8709 H         1 <0>         0.1375
     31 H3         -1.7468    0.7361    0.9957 H         1 <0>         0.1377
     32 H4          0.5006   -0.1943    0.8867 H         1 <0>         0.1337
     33 H5          2.4496    1.2296    0.4346 H         1 <0>         0.1361
     34 H6         -1.5824    6.5758   -0.0599 H         1 <0>         0.1425
     35 H7          2.4599    2.5739    2.3841 H         1 <0>         0.1324
     36 H8          3.3921    3.2901    4.5467 H         1 <0>         0.1345
     37 H9          4.7096    6.9424    2.7607 H         1 <0>         0.1347
     38 H10         3.7852    6.2137    0.5989 H         1 <0>         0.1357
     39 H11         3.9939    6.0563    5.5340 H         1 <0>         0.3944
     40 H12         4.3491    2.1994    1.0275 H         1 <0>         0.1321
     41 H13         6.0637    0.9380   -0.2085 H         1 <0>         0.1349
     42 H14         4.7026    2.6844   -3.8640 H         1 <0>         0.1341
     43 H15         2.9831    3.9332   -2.6222 H         1 <0>         0.1356
     44 H16         7.2831    1.5116   -2.8867 H         1 <0>         0.3943
@<TRIPOS>BOND
     1    1   10 ar
     2    1    2 ar
     3    1   29 1
     4    2    3 ar
     5    2   30 1
     6    3    8 ar
     7    3    4 ar
     8    4    5 ar
     9    4   31 1
    10    5    6 ar
    11    5   32 1
    12    6    7 ar
    13    6   33 1
    14    7   14 1
    15    7    8 ar
    16    8    9 ar
    17    9   10 ar
    18    9   11 1
    19   10   34 1
    20   11   12 2
    21   11   13 1
    22   13   14 1
    23   14   15 1
    24   14   22 1
    25   15   20 ar
    26   15   16 ar
    27   16   17 ar
    28   16   35 1
    29   17   18 ar
    30   17   36 1
    31   18   19 ar
    32   18   21 1
    33   19   20 ar
    34   19   37 1
    35   20   38 1
    36   21   39 1
    37   22   27 ar
    38   22   23 ar
    39   23   24 ar
    40   23   40 1
    41   24   25 ar
    42   24   41 1
    43   25   26 ar
    44   25   28 1
    45   26   27 ar
    46   26   42 1
    47   27   43 1
    48   28   44 1
