@<TRIPOS>MOLECULE
ZINC03991118
   62    65     0     0     0
SMALL
USER_CHARGES

@<TRIPOS>ATOM
      1 C1         -0.5721    3.9401   11.0033 C.ar      1 <0>        -0.1046
      2 C2          0.4886    3.0549   11.0491 C.ar      1 <0>        -0.1112
      3 C3          1.1026    2.6507    9.8784 C.ar      1 <0>        -0.0985
      4 C4          0.6561    3.1321    8.6619 C.ar      1 <0>        -0.0928
      5 C5         -0.4010    4.0217    8.6165 C.ar      1 <0>        -0.1111
      6 C6         -1.0183    4.4218    9.7869 C.ar      1 <0>        -0.1147
      7 C7          1.3257    2.6918    7.3857 C.3       1 <0>         0.1385
      8 C8          0.7113    3.4421    6.2023 C.3       1 <0>        -0.1060
      9 C9          1.4231    3.0300    4.9121 C.3       1 <0>        -0.1615
     10 C10         0.7604    3.7236    3.7202 C.3       1 <0>        -0.0024
     11 C11         0.6968    3.7802    1.3008 C.3       1 <0>         0.0030
     12 C12         1.5067    3.4803    0.0374 C.3       1 <0>        -0.1350
     13 C13         1.7706    1.9745   -0.0484 C.3       1 <0>         0.1755
     14 C14         2.5068    1.5205    1.2151 C.3       1 <0>        -0.1710
     15 C15         1.6679    1.8771    2.4444 C.3       1 <0>        -0.0056
     16 C16         2.6174    1.6798   -1.2596 C.ar      1 <0>        -0.1259
     17 C17         3.5119    2.6260   -1.7240 C.ar      1 <0>        -0.1006
     18 C18         4.2929    2.3541   -2.8315 C.ar      1 <0>        -0.1042
     19 C19         4.1713    1.1391   -3.4819 C.ar      1 <0>        -0.0247
     20 C20         3.2719    0.1947   -3.0200 C.ar      1 <0>        -0.1017
     21 C21         2.4955    0.4656   -1.9091 C.ar      1 <0>        -0.0932
     22 Cl1         5.1473    0.7994   -4.8768 Cl        1 <0>        -0.0502
     23 O1          0.5277    1.2771   -0.1535 O.3       1 <0>        -0.5472
     24 C22         2.7658    2.9875    7.4599 C.1       1 <0>         0.2071
     25 N1          3.8772    3.2157    7.5171 N.1       1 <0>        -0.4036
     26 C23         1.1261    1.2098    7.1991 C.ar      1 <0>        -0.0857
     27 C24         2.2191    0.3819    7.0231 C.ar      1 <0>        -0.1190
     28 C25         2.0363   -0.9782    6.8568 C.ar      1 <0>        -0.1121
     29 C26         0.7600   -1.5091    6.8564 C.ar      1 <0>        -0.1084
     30 C27        -0.3333   -0.6805    7.0267 C.ar      1 <0>        -0.1112
     31 C28        -0.1502    0.6789    7.1983 C.ar      1 <0>        -0.0968
     32 H1         -1.0521    4.2556   11.9179 H         1 <0>         0.1288
     33 H2          0.8374    2.6788   11.9995 H         1 <0>         0.1286
     34 H3          1.9313    1.9591    9.9142 H         1 <0>         0.1197
     35 H4         -0.7469    4.4012    7.6664 H         1 <0>         0.1291
     36 H5         -1.8468    5.1137    9.7511 H         1 <0>         0.1295
     37 H6          0.8259    4.5155    6.3536 H         1 <0>         0.0943
     38 H7         -0.3481    3.1969    6.1270 H         1 <0>         0.1039
     39 H8          1.3538    1.9493    4.7882 H         1 <0>         0.0997
     40 H9          2.4716    3.3231    4.9661 H         1 <0>         0.0861
     41 H10         0.8297    4.8043    3.8441 H         1 <0>         0.1319
     42 H11        -0.2881    3.4306    3.6662 H         1 <0>         0.1362
     43 H12         0.5194    4.8533    1.3724 H         1 <0>         0.1320
     44 H13        -0.2581    3.2567    1.2529 H         1 <0>         0.1404
     45 H14         2.4560    4.0144    0.0784 H         1 <0>         0.1037
     46 H15         0.9451    3.8019   -0.8397 H         1 <0>         0.1238
     47 H16         2.6597    0.4418    1.1794 H         1 <0>         0.1166
     48 H17         3.4718    2.0237    1.2747 H         1 <0>         0.0997
     49 H18         2.1958    1.5681    3.3465 H         1 <0>         0.1335
     50 H19         0.7084    1.3627    2.3908 H         1 <0>         0.1384
     51 H20         3.6036    3.5761   -1.2188 H         1 <0>         0.1331
     52 H21         4.9949    3.0917   -3.1916 H         1 <0>         0.1405
     53 H22         3.1768   -0.7540   -3.5272 H         1 <0>         0.1413
     54 H23         1.7936   -0.2717   -1.5482 H         1 <0>         0.1323
     55 H24         0.6196    0.3162   -0.2119 H         1 <0>         0.3906
     56 H25         3.2161    0.7973    7.0193 H         1 <0>         0.1181
     57 H26         2.8905   -1.6255    6.7234 H         1 <0>         0.1268
     58 H27         0.6170   -2.5712    6.7227 H         1 <0>         0.1279
     59 H28        -1.3305   -1.0952    7.0261 H         1 <0>         0.1296
     60 H29        -1.0044    1.3263    7.3313 H         1 <0>         0.1283
     61 N2          1.4704    3.3419    2.4819 N.4       1 <0>        -0.3944
     62 H30         2.3881    3.8021    2.4684 H         1 <0>         0.4249
@<TRIPOS>BOND
     1    1    6 ar
     2    1    2 ar
     3    1   32 1
     4    2    3 ar
     5    2   33 1
     6    3    4 ar
     7    3   34 1
     8    4    5 ar
     9    4    7 1
    10    5    6 ar
    11    5   35 1
    12    6   36 1
    13    7    8 1
    14    7   24 1
    15    7   26 1
    16    8    9 1
    17    8   37 1
    18    8   38 1
    19    9   10 1
    20    9   39 1
    21    9   40 1
    22   10   41 1
    23   10   42 1
    24   10   61 1
    25   11   12 1
    26   11   43 1
    27   11   44 1
    28   11   61 1
    29   12   13 1
    30   12   45 1
    31   12   46 1
    32   13   14 1
    33   13   16 1
    34   13   23 1
    35   14   15 1
    36   14   47 1
    37   14   48 1
    38   15   49 1
    39   15   50 1
    40   15   61 1
    41   16   21 ar
    42   16   17 ar
    43   17   18 ar
    44   17   51 1
    45   18   19 ar
    46   18   52 1
    47   19   20 ar
    48   19   22 1
    49   20   21 ar
    50   20   53 1
    51   21   54 1
    52   23   55 1
    53   24   25 3
    54   26   31 ar
    55   26   27 ar
    56   27   28 ar
    57   27   56 1
    58   28   29 ar
    59   28   57 1
    60   29   30 ar
    61   29   58 1
    62   30   31 ar
    63   30   59 1
    64   31   60 1
    65   61   62 1
