@<TRIPOS>MOLECULE
ZINC00620463
   46    48     0     0     0
SMALL
USER_CHARGES
N-[4-(3,4-dihydro-2H-quinolin-1-ylcarbonyl)phenyl]butanamide
@<TRIPOS>ATOM
      1 C1          3.6899   -1.7964    1.9092 C.3       1 <0>        -0.1543
      2 C2          2.3763   -1.0303    2.0771 C.3       1 <0>        -0.1115
      3 C3          1.9881   -0.3854    0.7451 C.3       1 <0>        -0.1398
      4 C4          0.6942    0.3692    0.9105 C.2       1 <0>         0.5116
      5 O1          0.1373    0.3892    1.9877 O.2       1 <0>        -0.5115
      6 N1          0.1558    1.0219   -0.1386 N.am      1 <0>        -0.6776
      7 C5         -1.0938    1.6285   -0.0157 C.ar      1 <0>         0.1782
      8 C6         -1.3646    2.8059   -0.7057 C.ar      1 <0>        -0.1558
      9 C7         -2.5988    3.4048   -0.5904 C.ar      1 <0>        -0.0773
     10 C8         -3.5768    2.8341    0.2289 C.ar      1 <0>        -0.1554
     11 C9         -3.2996    1.6542    0.9247 C.ar      1 <0>        -0.0340
     12 C10        -2.0649    1.0579    0.8011 C.ar      1 <0>        -0.1297
     13 C11        -4.8993    3.4758    0.3585 C.2       1 <0>         0.5632
     14 O2         -5.8748    2.8067    0.6403 O.2       1 <0>        -0.5108
     15 N2         -5.0261    4.8035    0.1647 N.am      1 <0>        -0.5481
     16 C12        -3.8385    5.6467   -0.0292 C.3       1 <0>         0.0848
     17 C13        -4.0083    6.9061    0.8232 C.3       1 <0>        -0.1382
     18 C14        -5.2250    7.6844    0.3231 C.3       1 <0>        -0.0788
     19 C15        -6.4262    6.7811    0.2279 C.ar      1 <0>        -0.1166
     20 C16        -6.2921    5.4034    0.1504 C.ar      1 <0>         0.1542
     21 C17        -7.4217    4.5986    0.0581 C.ar      1 <0>        -0.1498
     22 C18        -8.6784    5.1704    0.0452 C.ar      1 <0>        -0.1025
     23 C19        -8.8116    6.5443    0.1252 C.ar      1 <0>        -0.1384
     24 C20        -7.6901    7.3462    0.2164 C.ar      1 <0>        -0.1007
     25 H1          3.9665   -2.2559    2.8581 H         1 <0>         0.0603
     26 H2          3.5644   -2.5715    1.1532 H         1 <0>         0.0557
     27 H3          4.4748   -1.1077    1.5966 H         1 <0>         0.0555
     28 H4          2.5018   -0.2552    2.8332 H         1 <0>         0.0709
     29 H5          1.5914   -1.7190    2.3897 H         1 <0>         0.0710
     30 H6          1.8626   -1.1605   -0.0109 H         1 <0>         0.0997
     31 H7          2.7730    0.3034    0.4325 H         1 <0>         0.0983
     32 H8          0.6393    1.0731   -0.9779 H         1 <0>         0.4147
     33 H9         -0.6070    3.2486   -1.3353 H         1 <0>         0.1351
     34 H10        -2.8099    4.3164   -1.1297 H         1 <0>         0.1450
     35 H11        -4.0533    1.2104    1.5583 H         1 <0>         0.1393
     36 H12        -1.8501    0.1461    1.3385 H         1 <0>         0.1428
     37 H13        -2.9463    5.1058    0.2863 H         1 <0>         0.1094
     38 H14        -3.7506    5.9246   -1.0795 H         1 <0>         0.0816
     39 H15        -3.1171    7.5279    0.7389 H         1 <0>         0.0886
     40 H16        -4.1589    6.6229    1.8649 H         1 <0>         0.0740
     41 H17        -5.0076    8.0995   -0.6611 H         1 <0>         0.0784
     42 H18        -5.4408    8.4990    1.0145 H         1 <0>         0.0814
     43 H19        -7.3164    3.5256   -0.0039 H         1 <0>         0.1655
     44 H20        -9.5562    4.5454   -0.0273 H         1 <0>         0.1250
     45 H21        -9.7945    6.9918    0.1160 H         1 <0>         0.1220
     46 H22        -7.7999    8.4188    0.2787 H         1 <0>         0.1245
@<TRIPOS>BOND
     1    1    2 1
     2    1   25 1
     3    1   26 1
     4    1   27 1
     5    2    3 1
     6    2   28 1
     7    2   29 1
     8    3    4 1
     9    3   30 1
    10    3   31 1
    11    4    5 2
    12    4    6 am
    13    6    7 1
    14    6   32 1
    15    7   12 ar
    16    7    8 ar
    17    8    9 ar
    18    8   33 1
    19    9   10 ar
    20    9   34 1
    21   10   11 ar
    22   10   13 1
    23   11   12 ar
    24   11   35 1
    25   12   36 1
    26   13   14 2
    27   13   15 am
    28   15   20 1
    29   15   16 1
    30   16   17 1
    31   16   37 1
    32   16   38 1
    33   17   18 1
    34   17   39 1
    35   17   40 1
    36   18   19 1
    37   18   41 1
    38   18   42 1
    39   19   24 ar
    40   19   20 ar
    41   20   21 ar
    42   21   22 ar
    43   21   43 1
    44   22   23 ar
    45   22   44 1
    46   23   24 ar
    47   23   45 1
    48   24   46 1
@<TRIPOS>MOLECULE
ZINC13757952
   51    54     0     0     0
SMALL
USER_CHARGES

@<TRIPOS>ATOM
      1 C1          4.8432   -5.1081   -1.8915 C.ar      1 <0>        -0.0581
      2 C2          3.5840   -4.8073   -1.4070 C.ar      1 <0>        -0.1382
      3 C3          3.3293   -3.5581   -0.8726 C.ar      1 <0>        -0.0154
      4 C4          4.3339   -2.6099   -0.8223 C.ar      1 <0>        -0.6771
      5 C5          5.5933   -2.9110   -1.3060 C.ar      1 <0>        -0.0190
      6 C6          5.8477   -4.1597   -1.8417 C.ar      1 <0>        -0.1395
      7 S1          4.0089   -1.0173   -0.1422 S.o2      1 <0>         2.6888
      8 O1          5.0319   -0.1549   -0.6206 O.2       1 <0>        -0.9473
      9 O2          2.6291   -0.7565   -0.3600 O.2       1 <0>        -0.9438
     10 N1          4.2157   -1.1333    1.4968 N.pl3     1 <0>        -1.0555
     11 C7          3.4202   -1.9998    2.2383 C.ar      1 <0>         0.1695
     12 C8          2.0442   -2.0310    2.0284 C.ar      1 <0>        -0.1615
     13 C9          1.2543   -2.8874    2.7606 C.ar      1 <0>        -0.0585
     14 C10         1.8348   -3.7267    3.7161 C.ar      1 <0>        -0.1435
     15 C11         3.2169   -3.6930    3.9245 C.ar      1 <0>        -0.0434
     16 C12         4.0021   -2.8384    3.1850 C.ar      1 <0>        -0.1368
     17 C13         0.9910   -4.6455    4.5030 C.2       1 <0>         0.5701
     18 O3          1.4118   -5.7441    4.8112 O.2       1 <0>        -0.5225
     19 N2         -0.2464   -4.2676    4.8804 N.am      1 <0>        -0.5617
     20 C14        -1.0714   -5.1268    5.7457 C.3       1 <0>         0.1183
     21 C15        -2.0214   -5.9535    4.9117 C.3       1 <0>        -0.1396
     22 C16        -3.0440   -5.1235    4.1487 C.3       1 <0>        -0.1142
     23 C17        -2.3843   -4.3327    3.0236 C.3       1 <0>        -0.0810
     24 C18        -1.8521   -3.0232    3.5798 C.ar      1 <0>        -0.0910
     25 C19        -0.7838   -3.0452    4.4672 C.ar      1 <0>         0.1299
     26 C20        -0.2572   -1.8528    4.9495 C.ar      1 <0>        -0.1121
     27 C21        -0.8183   -0.6506    4.5637 C.ar      1 <0>        -0.1086
     28 C22        -1.8997   -0.6302    3.7023 C.ar      1 <0>        -0.1121
     29 C23        -2.4221   -1.8271    3.2012 C.ar      1 <0>        -0.1043
     30 H1          5.0435   -6.0855   -2.3050 H         1 <0>         0.1333
     31 H2          2.7991   -5.5481   -1.4463 H         1 <0>         0.1346
     32 H3          2.3453   -3.3229   -0.4947 H         1 <0>         0.1380
     33 H4          6.3781   -2.1701   -1.2671 H         1 <0>         0.1422
     34 H5          6.8316   -4.3948   -2.2200 H         1 <0>         0.1354
     35 H6          4.8917   -0.5968    1.9395 H         1 <0>         0.4302
     36 H7          1.5963   -1.3821    1.2903 H         1 <0>         0.1618
     37 H8          0.1869   -2.9108    2.5975 H         1 <0>         0.1419
     38 H9          3.6683   -4.3399    4.6622 H         1 <0>         0.1378
     39 H10         5.0703   -2.8151    3.3424 H         1 <0>         0.1370
     40 H11        -0.4235   -5.7902    6.3186 H         1 <0>         0.0932
     41 H12        -1.6435   -4.5036    6.4330 H         1 <0>         0.0791
     42 H13        -1.4409   -6.5354    4.1959 H         1 <0>         0.0674
     43 H14        -2.5521   -6.6430    5.5682 H         1 <0>         0.0775
     44 H15        -3.7977   -5.7870    3.7246 H         1 <0>         0.0709
     45 H16        -3.5267   -4.4301    4.8373 H         1 <0>         0.0658
     46 H17        -1.5613   -4.9120    2.6052 H         1 <0>         0.0732
     47 H18        -3.1183   -4.1260    2.2447 H         1 <0>         0.0769
     48 H19         0.5868   -1.8658    5.6232 H         1 <0>         0.1252
     49 H20        -0.4103    0.2773    4.9363 H         1 <0>         0.1276
     50 H21        -2.3421    0.3119    3.4140 H         1 <0>         0.1278
     51 H22        -3.2664   -1.8172    2.5278 H         1 <0>         0.1312
@<TRIPOS>BOND
     1    1    6 ar
     2    1    2 ar
     3    1   30 1
     4    2    3 ar
     5    2   31 1
     6    3    4 ar
     7    3   32 1
     8    4    5 ar
     9    4    7 1
    10    5    6 ar
    11    5   33 1
    12    6   34 1
    13    7    8 2
    14    7    9 2
    15    7   10 1
    16   10   11 1
    17   10   35 1
    18   11   16 ar
    19   11   12 ar
    20   12   13 ar
    21   12   36 1
    22   13   14 ar
    23   13   37 1
    24   14   15 ar
    25   14   17 1
    26   15   16 ar
    27   15   38 1
    28   16   39 1
    29   17   18 2
    30   17   19 am
    31   19   25 1
    32   19   20 1
    33   20   21 1
    34   20   40 1
    35   20   41 1
    36   21   22 1
    37   21   42 1
    38   21   43 1
    39   22   23 1
    40   22   44 1
    41   22   45 1
    42   23   24 1
    43   23   46 1
    44   23   47 1
    45   24   29 ar
    46   24   25 ar
    47   25   26 ar
    48   26   27 ar
    49   26   48 1
    50   27   28 ar
    51   27   49 1
    52   28   29 ar
    53   28   50 1
    54   29   51 1
@<TRIPOS>MOLECULE
ZINC13757952
   50    53     0     0     0
SMALL
USER_CHARGES

@<TRIPOS>ATOM
      1 C1         -0.3575    1.1113    0.8138 C.ar      1 <0>        -0.0837
      2 C2         -0.2126   -0.2236    0.4852 C.ar      1 <0>        -0.1472
      3 C3          0.8266   -0.9591    1.0236 C.ar      1 <0>        -0.0251
      4 C4          1.7213   -0.3596    1.8902 C.ar      1 <0>        -0.6164
      5 C5          1.5770    0.9755    2.2181 C.ar      1 <0>        -0.0249
      6 C6          0.5369    1.7107    1.6808 C.ar      1 <0>        -0.1475
      7 S1          3.0453   -1.2974    2.5774 S.o2      1 <0>         2.6037
      8 O1          3.4211   -0.6463    3.7833 O.2       1 <0>        -1.0252
      9 O2          2.6402   -2.6590    2.5411 O.2       1 <0>        -1.0264
     10 N1          4.3317   -1.1586    1.5438 N.2       1 <0>        -1.0813
     11 C7          5.5294   -1.8025    1.8341 C.ar      1 <0>         0.3093
     12 C8          5.6438   -2.5681    2.9913 C.ar      1 <0>        -0.2722
     13 C9          6.8277   -3.2066    3.2814 C.ar      1 <0>        -0.0209
     14 C10         7.9165   -3.0857    2.4127 C.ar      1 <0>        -0.2590
     15 C11         7.7984   -2.3161    1.2515 C.ar      1 <0>        -0.0176
     16 C12         6.6100   -1.6848    0.9642 C.ar      1 <0>        -0.1946
     17 C13         9.1871   -3.7683    2.7209 C.2       1 <0>         0.5857
     18 O3          9.8657   -4.2251    1.8211 O.2       1 <0>        -0.5488
     19 N2          9.5961   -3.8857    3.9997 N.am      1 <0>        -0.5731
     20 C14        10.9022   -4.4813    4.3271 C.3       1 <0>         0.1208
     21 C15        10.7404   -5.9426    4.6734 C.3       1 <0>        -0.1384
     22 C16         9.9105   -6.1847    5.9261 C.3       1 <0>        -0.1104
     23 C17         8.4425   -5.8440    5.6902 C.3       1 <0>        -0.0788
     24 C18         8.2301   -4.3593    5.9307 C.ar      1 <0>        -0.0976
     25 C19         8.7958   -3.4406    5.0558 C.ar      1 <0>         0.1495
     26 C20         8.5728   -2.0808    5.2372 C.ar      1 <0>        -0.1044
     27 C21         7.8103   -1.6484    6.3051 C.ar      1 <0>        -0.1058
     28 C22         7.2706   -2.5616    7.1920 C.ar      1 <0>        -0.1199
     29 C23         7.4784   -3.9319    7.0035 C.ar      1 <0>        -0.1101
     30 H1         -1.1668    1.6871    0.3897 H         1 <0>         0.1233
     31 H2         -0.9116   -0.6920   -0.1918 H         1 <0>         0.1260
     32 H3          0.9393   -2.0022    0.7675 H         1 <0>         0.1360
     33 H4          2.2758    1.4438    2.8955 H         1 <0>         0.1360
     34 H5          0.4240    2.7537    1.9373 H         1 <0>         0.1260
     35 H6          4.8025   -2.6608    3.6621 H         1 <0>         0.1002
     36 H7          6.9159   -3.8001    4.1794 H         1 <0>         0.1135
     37 H8          8.6378   -2.2205    0.5787 H         1 <0>         0.1129
     38 H9          6.5167   -1.0937    0.0651 H         1 <0>         0.1180
     39 H10        11.5676   -4.3853    3.4692 H         1 <0>         0.0885
     40 H11        11.3357   -3.9549    5.1774 H         1 <0>         0.0712
     41 H12        10.2617   -6.4486    3.8350 H         1 <0>         0.0668
     42 H13        11.7290   -6.3774    4.8208 H         1 <0>         0.0701
     43 H14         9.9923   -7.2335    6.2117 H         1 <0>         0.0651
     44 H15        10.2956   -5.5641    6.7352 H         1 <0>         0.0628
     45 H16         8.1723   -6.0890    4.6630 H         1 <0>         0.0742
     46 H17         7.8206   -6.4171    6.3779 H         1 <0>         0.0717
     47 H18         8.9940   -1.3653    4.5466 H         1 <0>         0.1259
     48 H19         7.6348   -0.5923    6.4477 H         1 <0>         0.1250
     49 H20         6.6858   -2.2169    8.0320 H         1 <0>         0.1224
     50 H21         7.0590   -4.6498    7.6928 H         1 <0>         0.1248
@<TRIPOS>BOND
     1    1    6 ar
     2    1    2 ar
     3    1   30 1
     4    2    3 ar
     5    2   31 1
     6    3    4 ar
     7    3   32 1
     8    4    5 ar
     9    4    7 1
    10    5    6 ar
    11    5   33 1
    12    6   34 1
    13    7    8 2
    14    7    9 2
    15    7   10 1
    16   10   11 1
    17   11   16 ar
    18   11   12 ar
    19   12   13 ar
    20   12   35 1
    21   13   14 ar
    22   13   36 1
    23   14   15 ar
    24   14   17 1
    25   15   16 ar
    26   15   37 1
    27   16   38 1
    28   17   18 2
    29   17   19 am
    30   19   25 1
    31   19   20 1
    32   20   21 1
    33   20   39 1
    34   20   40 1
    35   21   22 1
    36   21   41 1
    37   21   42 1
    38   22   23 1
    39   22   43 1
    40   22   44 1
    41   23   24 1
    42   23   45 1
    43   23   46 1
    44   24   29 ar
    45   24   25 ar
    46   25   26 ar
    47   26   27 ar
    48   26   47 1
    49   27   28 ar
    50   27   48 1
    51   28   29 ar
    52   28   49 1
    53   29   50 1
@<TRIPOS>MOLECULE
ZINC04811107
   47    50     0     0     0
SMALL
USER_CHARGES
2-chloro-N-[4-(3,4-dihydro-2H-quinolin-1-ylcarbonyl)phenyl]-benzamide
@<TRIPOS>ATOM
      1 C1        -10.9547   -6.1920    0.2924 C.ar      1 <0>        -0.1385
      2 C2         -9.7684   -6.8792    0.1099 C.ar      1 <0>        -0.1027
      3 C3         -8.5691   -6.1960    0.1165 C.ar      1 <0>        -0.1496
      4 C4         -8.5539   -4.8184    0.3055 C.ar      1 <0>         0.1543
      5 C5         -9.7432   -4.1300    0.4853 C.ar      1 <0>        -0.1165
      6 C6        -10.9421   -4.8235    0.4791 C.ar      1 <0>        -0.1006
      7 C7         -9.7659   -2.6377    0.6867 C.3       1 <0>        -0.0791
      8 C8         -8.4008   -2.1410    1.1621 C.3       1 <0>        -0.1376
      9 C9         -7.3206   -2.6776    0.2205 C.3       1 <0>         0.0843
     10 N1         -7.3260   -4.1440    0.3119 N.am      1 <0>        -0.5476
     11 C10        -6.1689   -4.8288    0.4060 C.2       1 <0>         0.5634
     12 O1         -6.1867   -6.0282    0.6050 O.2       1 <0>        -0.5116
     13 C11        -4.8805   -4.1229    0.2675 C.ar      1 <0>        -0.1546
     14 C12        -3.7322   -4.6350    0.8778 C.ar      1 <0>        -0.0339
     15 C13        -2.5317   -3.9743    0.7462 C.ar      1 <0>        -0.1530
     16 C14        -2.4607   -2.7980    0.0062 C.ar      1 <0>         0.1808
     17 C15        -3.6032   -2.2825   -0.5984 C.ar      1 <0>        -0.1290
     18 C16        -4.8058   -2.9409   -0.4748 C.ar      1 <0>        -0.0764
     19 N2         -1.2439   -2.1316   -0.1250 N.am      1 <0>        -0.6706
     20 C17        -0.9587   -1.4670   -1.2623 C.2       1 <0>         0.5559
     21 O2         -1.7183   -1.5292   -2.2094 O.2       1 <0>        -0.4860
     22 C18         0.2769   -0.6629   -1.3580 C.ar      1 <0>        -0.1369
     23 C19         1.1520   -0.5895   -0.2722 C.ar      1 <0>        -0.0736
     24 C20         2.3038    0.1624   -0.3683 C.ar      1 <0>        -0.1228
     25 C21         2.5947    0.8438   -1.5376 C.ar      1 <0>        -0.0749
     26 C22         1.7334    0.7768   -2.6172 C.ar      1 <0>        -0.1197
     27 C23         0.5757    0.0274   -2.5354 C.ar      1 <0>         0.0171
     28 Cl1        -0.5011   -0.0622   -3.8941 Cl        1 <0>        -0.0258
     29 H1        -11.8931   -6.7266    0.2886 H         1 <0>         0.1219
     30 H2         -9.7804   -7.9491   -0.0375 H         1 <0>         0.1249
     31 H3         -7.6420   -6.7315   -0.0257 H         1 <0>         0.1654
     32 H4        -11.8714   -4.2917    0.6204 H         1 <0>         0.1245
     33 H5        -10.0176   -2.1513   -0.2557 H         1 <0>         0.0786
     34 H6        -10.5198   -2.3869    1.4330 H         1 <0>         0.0815
     35 H7         -8.3854   -1.0511    1.1533 H         1 <0>         0.0886
     36 H8         -8.2132   -2.5008    2.1738 H         1 <0>         0.0738
     37 H9         -6.3460   -2.2926    0.5204 H         1 <0>         0.1095
     38 H10        -7.5410   -2.3707   -0.8019 H         1 <0>         0.0820
     39 H11        -3.7865   -5.5483    1.4517 H         1 <0>         0.1405
     40 H12        -1.6440   -4.3695    1.2176 H         1 <0>         0.1359
     41 H13        -3.5455   -1.3672   -1.1686 H         1 <0>         0.1437
     42 H14        -5.6912   -2.5427   -0.9479 H         1 <0>         0.1444
     43 H15        -0.6021   -2.1461    0.6022 H         1 <0>         0.4121
     44 H16         0.9272   -1.1209    0.6408 H         1 <0>         0.1348
     45 H17         2.9811    0.2197    0.4710 H         1 <0>         0.1389
     46 H18         3.4986    1.4308   -1.6069 H         1 <0>         0.1405
     47 H19         1.9663    1.3112   -3.5264 H         1 <0>         0.1434
@<TRIPOS>BOND
     1    1    6 ar
     2    1    2 ar
     3    1   29 1
     4    2    3 ar
     5    2   30 1
     6    3    4 ar
     7    3   31 1
     8    4   10 1
     9    4    5 ar
    10    5    6 ar
    11    5    7 1
    12    6   32 1
    13    7    8 1
    14    7   33 1
    15    7   34 1
    16    8    9 1
    17    8   35 1
    18    8   36 1
    19    9   10 1
    20    9   37 1
    21    9   38 1
    22   10   11 am
    23   11   12 2
    24   11   13 1
    25   13   18 ar
    26   13   14 ar
    27   14   15 ar
    28   14   39 1
    29   15   16 ar
    30   15   40 1
    31   16   17 ar
    32   16   19 1
    33   17   18 ar
    34   17   41 1
    35   18   42 1
    36   19   20 am
    37   19   43 1
    38   20   21 2
    39   20   22 1
    40   22   27 ar
    41   22   23 ar
    42   23   24 ar
    43   23   44 1
    44   24   25 ar
    45   24   45 1
    46   25   26 ar
    47   25   46 1
    48   26   27 ar
    49   26   47 1
    50   27   28 1
@<TRIPOS>MOLECULE
ZINC04821195
   44    47     0     0     0
SMALL
USER_CHARGES
N-[4-(3,4-dihydro-2H-quinolin-1-ylcarbonyl)phenyl]furan-2-carboxamide
@<TRIPOS>ATOM
      1 C1          4.9625   13.8336   -0.1980 C.ar      1 <0>        -0.1383
      2 C2          5.8917   12.8208   -0.0434 C.ar      1 <0>        -0.1026
      3 C3          5.4824   11.5028   -0.0601 C.ar      1 <0>        -0.1494
      4 C4          4.1375   11.1938   -0.2312 C.ar      1 <0>         0.1542
      5 C5          3.2065   12.2091   -0.3831 C.ar      1 <0>        -0.1165
      6 C6          3.6259   13.5290   -0.3669 C.ar      1 <0>        -0.1006
      7 C7          1.7412   11.9125   -0.5645 C.3       1 <0>        -0.0791
      8 C8          1.5421   10.4786   -1.0549 C.3       1 <0>        -0.1376
      9 C9          2.3138    9.5274   -0.1372 C.3       1 <0>         0.0839
     10 N1          3.7430    9.8496   -0.2483 N.am      1 <0>        -0.5475
     11 C10         4.6589    8.8684   -0.3702 C.2       1 <0>         0.5633
     12 O1          5.8230    9.1466   -0.5851 O.2       1 <0>        -0.5110
     13 C11         4.2491    7.4566   -0.2429 C.ar      1 <0>        -0.1528
     14 C12         4.9858    6.4534   -0.8791 C.ar      1 <0>        -0.0336
     15 C13         4.6010    5.1374   -0.7579 C.ar      1 <0>        -0.1496
     16 C14         3.4803    4.8051   -0.0028 C.ar      1 <0>         0.1766
     17 C15         2.7416    5.8020    0.6275 C.ar      1 <0>        -0.1298
     18 C16         3.1237    7.1196    0.5144 C.ar      1 <0>        -0.0763
     19 N2          3.0936    3.4721    0.1177 N.am      1 <0>        -0.6650
     20 C17         2.5257    3.0358    1.2595 C.2       1 <0>         0.6087
     21 O2          2.4392    3.7794    2.2190 O.2       1 <0>        -0.4935
     22 C18         2.0121    1.6654    1.3456 C.2       1 <0>        -0.0934
     23 C19         1.4167    1.0984    2.4362 C.2       1 <0>        -0.1043
     24 C20         1.0839   -0.2167    2.0762 C.2       1 <0>        -0.2256
     25 C21         1.4855   -0.3929    0.7979 C.2       1 <0>         0.0061
     26 O3          2.0442    0.7433    0.3612 O.3       1 <0>        -0.1656
     27 H1          5.2827   14.8649   -0.1863 H         1 <0>         0.1220
     28 H2          6.9362   13.0611    0.0901 H         1 <0>         0.1250
     29 H3          6.2070   10.7110    0.0599 H         1 <0>         0.1654
     30 H4          2.9044   14.3237   -0.4865 H         1 <0>         0.1246
     31 H5          1.2274   12.0415    0.3881 H         1 <0>         0.0787
     32 H6          1.3220   12.6041   -1.2953 H         1 <0>         0.0815
     33 H7          0.4814   10.2288   -1.0321 H         1 <0>         0.0887
     34 H8          1.9173   10.3858   -2.0741 H         1 <0>         0.0739
     35 H9          2.1426    8.4965   -0.4471 H         1 <0>         0.1095
     36 H10         1.9835    9.6638    0.8925 H         1 <0>         0.0824
     37 H11         5.8560    6.7106   -1.4646 H         1 <0>         0.1417
     38 H12         5.1698    4.3617   -1.2492 H         1 <0>         0.1375
     39 H13         1.8697    5.5413    1.2091 H         1 <0>         0.1435
     40 H14         2.5524    7.8924    1.0071 H         1 <0>         0.1457
     41 H15         3.2331    2.8580   -0.6200 H         1 <0>         0.4195
     42 H16         1.2333    1.5718    3.3894 H         1 <0>         0.1637
     43 H17         0.5987   -0.9502    2.7030 H         1 <0>         0.1612
     44 H18         1.3741   -1.3004    0.2231 H         1 <0>         0.2148
@<TRIPOS>BOND
     1    1    6 ar
     2    1    2 ar
     3    1   27 1
     4    2    3 ar
     5    2   28 1
     6    3    4 ar
     7    3   29 1
     8    4   10 1
     9    4    5 ar
    10    5    6 ar
    11    5    7 1
    12    6   30 1
    13    7    8 1
    14    7   31 1
    15    7   32 1
    16    8    9 1
    17    8   33 1
    18    8   34 1
    19    9   10 1
    20    9   35 1
    21    9   36 1
    22   10   11 am
    23   11   12 2
    24   11   13 1
    25   13   18 ar
    26   13   14 ar
    27   14   15 ar
    28   14   37 1
    29   15   16 ar
    30   15   38 1
    31   16   17 ar
    32   16   19 1
    33   17   18 ar
    34   17   39 1
    35   18   40 1
    36   19   20 am
    37   19   41 1
    38   20   21 2
    39   20   22 1
    40   22   26 1
    41   22   23 2
    42   23   24 1
    43   23   42 1
    44   24   25 2
    45   24   43 1
    46   25   26 1
    47   25   44 1
@<TRIPOS>MOLECULE
ZINC11096630
   50    53     0     0     0
SMALL
USER_CHARGES
N-[4-(3,4-dihydro-2H-quinolin-1-ylcarbonyl)phenyl]-2-phenyl-acetamide
@<TRIPOS>ATOM
      1 C1          9.6310    5.6849   -4.5387 C.ar      1 <0>        -0.1163
      2 C2          9.6115    5.9257   -3.1776 C.ar      1 <0>        -0.1186
      3 C3          9.7265    4.8740   -2.2879 C.ar      1 <0>        -0.1047
      4 C4          9.8614    3.5815   -2.7593 C.ar      1 <0>        -0.0748
      5 C5          9.8866    3.3413   -4.1204 C.ar      1 <0>        -0.1042
      6 C6          9.7659    4.3924   -5.0101 C.ar      1 <0>        -0.1181
      7 C7          9.9872    2.4350   -1.7894 C.3       1 <0>        -0.0996
      8 C8          8.6162    1.9030   -1.4599 C.2       1 <0>         0.5141
      9 O1          7.6338    2.4055   -1.9631 O.2       1 <0>        -0.5007
     10 N1          8.4819    0.8690   -0.6060 N.am      1 <0>        -0.6771
     11 C9          7.2113    0.4489   -0.2141 C.ar      1 <0>         0.1793
     12 C10         6.9735   -0.8981    0.0407 C.ar      1 <0>        -0.1541
     13 C11         5.7204   -1.3162    0.4282 C.ar      1 <0>        -0.0342
     14 C12         4.6865   -0.3858    0.5656 C.ar      1 <0>        -0.1555
     15 C13         4.9274    0.9656    0.3032 C.ar      1 <0>        -0.0768
     16 C14         6.1843    1.3777   -0.0784 C.ar      1 <0>        -0.1308
     17 C15         3.3421   -0.8303    0.9808 C.2       1 <0>         0.5633
     18 O2          2.9801   -1.9683    0.7513 O.2       1 <0>        -0.5119
     19 N2          2.5153    0.0250    1.6144 N.am      1 <0>        -0.5477
     20 C16         2.9876    1.3545    2.0247 C.3       1 <0>         0.0840
     21 C17         2.4955    1.6054    3.4561 C.3       1 <0>        -0.1371
     22 C18         0.9672    1.6305    3.4556 C.3       1 <0>        -0.0792
     23 C19         0.4199    0.4055    2.7716 C.ar      1 <0>        -0.1165
     24 C20         1.1912   -0.3386    1.8924 C.ar      1 <0>         0.1543
     25 C21         0.6536   -1.4618    1.2745 C.ar      1 <0>        -0.1498
     26 C22        -0.6485   -1.8384    1.5373 C.ar      1 <0>        -0.1025
     27 C23        -1.4165   -1.0972    2.4162 C.ar      1 <0>        -0.1384
     28 C24        -0.8845    0.0200    3.0309 C.ar      1 <0>        -0.1006
     29 H1          9.5404    6.5065   -5.2338 H         1 <0>         0.1226
     30 H2          9.5061    6.9355   -2.8093 H         1 <0>         0.1231
     31 H3          9.7113    5.0621   -1.2245 H         1 <0>         0.1199
     32 H4          9.9964    2.3320   -4.4887 H         1 <0>         0.1198
     33 H5          9.7808    4.2043   -6.0735 H         1 <0>         0.1232
     34 H6         10.4710    2.7826   -0.8767 H         1 <0>         0.1095
     35 H7         10.5859    1.6428   -2.2390 H         1 <0>         0.1082
     36 H8          9.2691    0.4170   -0.2640 H         1 <0>         0.4149
     37 H9          7.7728   -1.6165   -0.0660 H         1 <0>         0.1359
     38 H10         5.5366   -2.3618    0.6262 H         1 <0>         0.1402
     39 H11         4.1296    1.6865    0.4041 H         1 <0>         0.1439
     40 H12         6.3723    2.4225   -0.2769 H         1 <0>         0.1423
     41 H13         2.5810    2.1132    1.3561 H         1 <0>         0.0821
     42 H14         4.0769    1.3847    1.9982 H         1 <0>         0.1095
     43 H15         2.8763    2.5633    3.8105 H         1 <0>         0.0882
     44 H16         2.8474    0.8079    4.1104 H         1 <0>         0.0741
     45 H17         0.6075    1.6591    4.4842 H         1 <0>         0.0815
     46 H18         0.6221    2.5206    2.9296 H         1 <0>         0.0786
     47 H19         1.2545   -2.0399    0.5882 H         1 <0>         0.1654
     48 H20        -1.0667   -2.7105    1.0567 H         1 <0>         0.1250
     49 H21        -2.4348   -1.3920    2.6226 H         1 <0>         0.1220
     50 H22        -1.4889    0.5955    3.7164 H         1 <0>         0.1246
@<TRIPOS>BOND
     1    1    6 ar
     2    1    2 ar
     3    1   29 1
     4    2    3 ar
     5    2   30 1
     6    3    4 ar
     7    3   31 1
     8    4    5 ar
     9    4    7 1
    10    5    6 ar
    11    5   32 1
    12    6   33 1
    13    7    8 1
    14    7   34 1
    15    7   35 1
    16    8    9 2
    17    8   10 am
    18   10   11 1
    19   10   36 1
    20   11   16 ar
    21   11   12 ar
    22   12   13 ar
    23   12   37 1
    24   13   14 ar
    25   13   38 1
    26   14   15 ar
    27   14   17 1
    28   15   16 ar
    29   15   39 1
    30   16   40 1
    31   17   18 2
    32   17   19 am
    33   19   24 1
    34   19   20 1
    35   20   21 1
    36   20   41 1
    37   20   42 1
    38   21   22 1
    39   21   43 1
    40   21   44 1
    41   22   23 1
    42   22   45 1
    43   22   46 1
    44   23   28 ar
    45   23   24 ar
    46   24   25 ar
    47   25   26 ar
    48   25   47 1
    49   26   27 ar
    50   26   48 1
    51   27   28 ar
    52   27   49 1
    53   28   50 1
@<TRIPOS>MOLECULE
ZINC03923061
   80    83     0     0     0
SMALL
USER_CHARGES
2-amino-N-[7,7-dimethyl-1-[[4-(o-tolyl)piperazin-1-yl]sulfonylmethyl]norbornan-2-yl]-4-methylsulfonyl-butanamide
@<TRIPOS>ATOM
      1 C1          2.0446   -0.7328   -9.4461 C.3       1 <0>        -0.1083
      2 C2          3.3521   -0.1264   -9.0058 C.ar      1 <0>        -0.0556
      3 C3          4.3297    0.1609   -9.9382 C.ar      1 <0>        -0.1153
      4 C4          5.5292    0.7182   -9.5353 C.ar      1 <0>        -0.1120
      5 C5          5.7547    0.9894   -8.1979 C.ar      1 <0>        -0.1172
      6 C6          4.7797    0.7091   -7.2611 C.ar      1 <0>        -0.1448
      7 C7          3.5752    0.1447   -7.6620 C.ar      1 <0>         0.0755
      8 N1          2.5885   -0.1441   -6.7165 N.pl3     1 <0>        -0.4920
      9 C8          3.0803   -1.1034   -5.7186 C.3       1 <0>         0.0429
     10 C9          1.9216   -1.5311   -4.8116 C.3       1 <0>         0.1235
     11 N2          1.2928   -0.3232   -4.2560 N.pl3     1 <0>        -0.9966
     12 C10         0.8913    0.7430   -5.1861 C.3       1 <0>         0.1245
     13 C11         2.0959    1.0837   -6.0778 C.3       1 <0>         0.0442
     14 S1          1.0375   -0.1706   -2.6269 S.o2      1 <0>         2.5985
     15 O1          0.9397   -1.5051   -2.1486 O.2       1 <0>        -0.9478
     16 O2         -0.0626    0.7218   -2.5143 O.2       1 <0>        -0.9576
     17 C12         2.5449    0.6125   -1.9902 C.3       1 <0>        -0.6068
     18 C13         2.4198    0.8046   -0.4774 C.3       1 <0>        -0.0661
     19 C14         2.2685   -0.4981    0.3703 C.3       1 <0>        -0.1327
     20 C15         2.6552   -0.0789    1.8071 C.3       1 <0>        -0.1190
     21 C16         3.0043    1.4366    1.6951 C.3       1 <0>        -0.0930
     22 H1          3.6031    1.8489    2.5072 H         1 <0>         0.1129
     23 C17         3.6307    1.4846    0.2569 C.3       1 <0>        -0.0416
     24 C18         3.8574    2.9196   -0.2228 C.3       1 <0>        -0.1480
     25 C19         4.9063    0.6454    0.1583 C.3       1 <0>        -0.1450
     26 C20         1.6342    2.1347    1.4361 C.3       1 <0>        -0.1219
     27 C21         1.2475    1.7155   -0.0006 C.3       1 <0>         0.1366
     28 H2          1.1625    2.5925   -0.6424 H         1 <0>         0.1093
     29 N3         -0.0111    0.9658    0.0074 N.am      1 <0>        -0.6989
     30 C22        -1.1793    1.6122    0.1915 C.2       1 <0>         0.5172
     31 O3         -1.1882    2.8138    0.3555 O.2       1 <0>        -0.5135
     32 C23        -2.4745    0.8419    0.1935 C.3       1 <0>         0.0184
     33 H3         -2.3358   -0.1008    0.7228 H         1 <0>         0.1665
     34 C24        -2.9021    0.5592   -1.2481 C.3       1 <0>        -0.1321
     35 C25        -4.1483   -0.3283   -1.2457 C.3       1 <0>        -0.6563
     36 S2         -4.6552   -0.6634   -2.9549 S.o2      1 <0>         2.4221
     37 O4         -5.0608    0.5608   -3.5517 O.2       1 <0>        -0.9225
     38 O5         -3.6398   -1.4348   -3.5819 O.2       1 <0>        -0.9160
     39 C26        -6.1209   -1.7104   -2.7403 C.3       1 <0>        -0.6529
     40 H4          1.3349    0.0618   -9.6765 H         1 <0>         0.0685
     41 H5          2.2080   -1.3429  -10.3344 H         1 <0>         0.0617
     42 H6          1.6453   -1.3558   -8.6458 H         1 <0>         0.0779
     43 H7          4.1569   -0.0496  -10.9833 H         1 <0>         0.1274
     44 H8          6.2917    0.9425  -10.2665 H         1 <0>         0.1251
     45 H9          6.6926    1.4250   -7.8865 H         1 <0>         0.1219
     46 H10         4.9547    0.9252   -6.2175 H         1 <0>         0.1147
     47 H11         3.8594   -0.6353   -5.1171 H         1 <0>         0.0423
     48 H12         3.4881   -1.9784   -6.2248 H         1 <0>         0.0950
     49 H13         2.3015   -2.1523   -4.0005 H         1 <0>         0.0952
     50 H14         1.1880   -2.0927   -5.3901 H         1 <0>         0.0910
     51 H15         0.0615    0.3976   -5.8028 H         1 <0>         0.0904
     52 H16         0.5897    1.6260   -4.6228 H         1 <0>         0.0950
     53 H17         2.8887    1.5214   -5.4712 H         1 <0>         0.0422
     54 H18         1.7899    1.7951   -6.8448 H         1 <0>         0.0934
     55 H19         2.6810    1.5819   -2.4695 H         1 <0>         0.1398
     56 H20         3.4035   -0.0233   -2.2059 H         1 <0>         0.1424
     57 H21         2.9458   -1.2697    0.0043 H         1 <0>         0.0895
     58 H22         1.2384   -0.8533    0.3424 H         1 <0>         0.0637
     59 H23         3.5226   -0.6445    2.1474 H         1 <0>         0.0786
     60 H24         1.8159   -0.2263    2.4867 H         1 <0>         0.0692
     61 H25         4.5569    3.4203    0.4467 H         1 <0>         0.0682
     62 H26         4.2681    2.9047   -1.2323 H         1 <0>         0.0604
     63 H27         2.9086    3.4563   -0.2244 H         1 <0>         0.0612
     64 H28         4.6820   -0.3887    0.4200 H         1 <0>         0.0657
     65 H29         5.2909    0.6872   -0.8607 H         1 <0>         0.0592
     66 H30         5.6547    1.0400    0.8456 H         1 <0>         0.0671
     67 H31         1.7414    3.2175    1.5002 H         1 <0>         0.0843
     68 H32         0.8879    1.7829    2.1484 H         1 <0>         0.0731
     69 H33        -0.0040    0.0048   -0.1239 H         1 <0>         0.3999
     70 H34        -3.1266    1.4996   -1.7515 H         1 <0>         0.1201
     71 H35        -2.0942    0.0498   -1.7734 H         1 <0>         0.1423
     72 H36        -3.9238   -1.2687   -0.7424 H         1 <0>         0.1530
     73 H37        -4.9562    0.1811   -0.7204 H         1 <0>         0.1317
     74 H38        -6.8775   -1.1651   -2.1761 H         1 <0>         0.1311
     75 H39        -6.5209   -1.9804   -3.7177 H         1 <0>         0.1412
     76 H40        -5.8451   -2.6149   -2.1981 H         1 <0>         0.1335
     77 H41        -3.6610    2.5123    0.3942 H         1 <0>         0.4473
     78 H42        -4.3749    1.1120    0.9379 H         1 <0>         0.4413
     79 N4         -3.5027    1.6360    0.8889 N.4       1 <0>        -0.6310
     80 H43        -3.1820    1.8427    1.8422 H         1 <0>         0.4468
@<TRIPOS>BOND
     1    1    2 1
     2    1   40 1
     3    1   41 1
     4    1   42 1
     5    2    7 ar
     6    2    3 ar
     7    3    4 ar
     8    3   43 1
     9    4    5 ar
    10    4   44 1
    11    5    6 ar
    12    5   45 1
    13    6    7 ar
    14    6   46 1
    15    7    8 1
    16    8   13 1
    17    8    9 1
    18    9   10 1
    19    9   47 1
    20    9   48 1
    21   10   11 1
    22   10   49 1
    23   10   50 1
    24   11   12 1
    25   11   14 1
    26   12   13 1
    27   12   51 1
    28   12   52 1
    29   13   53 1
    30   13   54 1
    31   14   15 2
    32   14   16 2
    33   14   17 1
    34   17   18 1
    35   17   55 1
    36   17   56 1
    37   18   23 1
    38   18   27 1
    39   18   19 1
    40   19   20 1
    41   19   57 1
    42   19   58 1
    43   20   21 1
    44   20   59 1
    45   20   60 1
    46   21   22 1
    47   21   23 1
    48   21   26 1
    49   23   24 1
    50   23   25 1
    51   24   61 1
    52   24   62 1
    53   24   63 1
    54   25   64 1
    55   25   65 1
    56   25   66 1
    57   26   27 1
    58   26   67 1
    59   26   68 1
    60   27   28 1
    61   27   29 1
    62   29   30 am
    63   29   69 1
    64   30   31 2
    65   30   32 1
    66   32   33 1
    67   32   34 1
    68   32   79 1
    69   34   35 1
    70   34   70 1
    71   34   71 1
    72   35   36 1
    73   35   72 1
    74   35   73 1
    75   36   37 2
    76   36   38 2
    77   36   39 1
    78   39   74 1
    79   39   75 1
    80   39   76 1
    81   77   79 1
    82   78   79 1
    83   79   80 1
@<TRIPOS>MOLECULE
ZINC06199057
   80    83     0     0     0
SMALL
USER_CHARGES
2-amino-N-[7,7-dimethyl-1-[[4-(o-tolyl)piperazin-1-yl]sulfonylmethyl]norbornan-2-yl]-4-methylsulfonyl-butanamide
@<TRIPOS>ATOM
      1 C1          3.2344    2.8501    7.4427 C.3       1 <0>        -0.1090
      2 C2          3.0932    1.3497    7.4560 C.ar      1 <0>        -0.0553
      3 C3          4.2173    0.5501    7.5269 C.ar      1 <0>        -0.1153
      4 C4          4.0889   -0.8265    7.5335 C.ar      1 <0>        -0.1130
      5 C5          2.8352   -1.4076    7.4744 C.ar      1 <0>        -0.1181
      6 C6          1.7071   -0.6141    7.4082 C.ar      1 <0>        -0.1440
      7 C7          1.8325    0.7695    7.4015 C.ar      1 <0>         0.0787
      8 N1          0.6935    1.5752    7.3341 N.pl3     1 <0>        -0.4933
      9 C8         -0.0690    1.3074    6.1074 C.3       1 <0>         0.0452
     10 C9         -1.2036    2.3297    5.9817 C.3       1 <0>         0.1282
     11 N2         -1.9931    2.3063    7.2224 N.pl3     1 <0>        -1.0011
     12 C10        -1.2813    2.4375    8.5028 C.3       1 <0>         0.1231
     13 C11        -0.1431    1.4050    8.5295 C.3       1 <0>         0.0450
     14 S1         -3.6405    2.1435    7.1786 S.o2      1 <0>         2.6037
     15 O1         -4.0220    2.6576    5.9099 O.2       1 <0>        -0.9507
     16 O2         -4.0975    2.7570    8.3760 O.2       1 <0>        -0.9377
     17 C12        -3.9340    0.3545    7.2417 C.3       1 <0>        -0.6103
     18 C13        -5.4393    0.0831    7.2066 C.3       1 <0>        -0.0670
     19 C14        -6.2636    0.6581    8.3987 C.3       1 <0>        -0.1292
     20 C15        -7.5833   -0.1468    8.3856 C.3       1 <0>        -0.1236
     21 C16        -7.4320   -1.1324    7.1869 C.3       1 <0>        -0.0912
     22 H1         -8.0950   -1.9976    7.1948 H         1 <0>         0.1119
     23 C17        -5.8900   -1.4200    7.2406 C.3       1 <0>        -0.0486
     24 C18        -5.4070   -2.1918    6.0110 C.3       1 <0>        -0.1572
     25 C19        -5.4804   -2.1125    8.5420 C.3       1 <0>        -0.1451
     26 C20        -7.5118   -0.2240    5.9221 C.3       1 <0>        -0.1270
     27 C21        -6.1922    0.5810    5.9352 C.3       1 <0>         0.1358
     28 H2         -6.3972    1.6490    6.0088 H         1 <0>         0.1107
     29 N3         -5.4073    0.2944    4.7318 N.am      1 <0>        -0.6988
     30 C22        -5.5801    1.0386    3.6215 C.2       1 <0>         0.5080
     31 O3         -6.3853    1.9455    3.6186 O.2       1 <0>        -0.5024
     32 C23        -4.7726    0.7439    2.3837 C.3       1 <0>         0.0191
     33 H3         -4.6868   -0.3350    2.2542 H         1 <0>         0.1671
     34 C24        -3.3765    1.3529    2.5284 C.3       1 <0>        -0.1357
     35 C25        -2.5170    0.9488    1.3289 C.3       1 <0>        -0.6584
     36 S2         -0.8618    1.6708    1.5005 S.o2      1 <0>         2.4193
     37 O4         -0.2324    1.0879    2.6333 O.2       1 <0>        -0.9155
     38 O5         -0.9784    3.0851    1.4261 O.2       1 <0>        -0.9176
     39 C26        -0.0127    1.0858    0.0080 C.3       1 <0>        -0.6521
     40 H4          3.2176    3.2257    8.4658 H         1 <0>         0.0694
     41 H5          4.1788    3.1220    6.9713 H         1 <0>         0.0612
     42 H6          2.4088    3.2877    6.8814 H         1 <0>         0.0778
     43 H7          5.1977    1.0007    7.5731 H         1 <0>         0.1270
     44 H8          4.9697   -1.4495    7.5844 H         1 <0>         0.1243
     45 H9          2.7385   -2.4833    7.4797 H         1 <0>         0.1208
     46 H10         0.7285   -1.0685    7.3621 H         1 <0>         0.1139
     47 H11        -0.4884    0.3023    6.1520 H         1 <0>         0.0398
     48 H12         0.5911    1.3885    5.2438 H         1 <0>         0.1020
     49 H13        -1.8408    2.0675    5.1372 H         1 <0>         0.0806
     50 H14        -0.7876    3.3259    5.8312 H         1 <0>         0.0886
     51 H15        -0.8699    3.4429    8.5917 H         1 <0>         0.0903
     52 H16        -1.9700    2.2466    9.3258 H         1 <0>         0.0968
     53 H17        -0.5615    0.3985    8.5404 H         1 <0>         0.0424
     54 H18         0.4632    1.5570    9.4225 H         1 <0>         0.0941
     55 H19        -3.5131   -0.0505    8.1621 H         1 <0>         0.1444
     56 H20        -3.4587   -0.1221    6.3844 H         1 <0>         0.1266
     57 H21        -5.7328    0.5024    9.3379 H         1 <0>         0.0879
     58 H22        -6.4621    1.7191    8.2466 H         1 <0>         0.0773
     59 H23        -7.7012   -0.6982    9.3184 H         1 <0>         0.0783
     60 H24        -8.4323    0.5179    8.2262 H         1 <0>         0.0755
     61 H25        -4.3182   -2.1641    5.9692 H         1 <0>         0.0580
     62 H26        -5.7419   -3.2270    6.0771 H         1 <0>         0.0709
     63 H27        -5.8170   -1.7342    5.1106 H         1 <0>         0.0628
     64 H28        -5.9409   -1.6002    9.3867 H         1 <0>         0.0691
     65 H29        -5.8128   -3.1504    8.5214 H         1 <0>         0.0640
     66 H30        -4.3958   -2.0803    8.6449 H         1 <0>         0.0577
     67 H31        -8.3674    0.4479    5.9903 H         1 <0>         0.0840
     68 H32        -7.5766   -0.8329    5.0204 H         1 <0>         0.0751
     69 H33        -4.7633   -0.4309    4.7341 H         1 <0>         0.4077
     70 H34        -2.9144    0.9882    3.4458 H         1 <0>         0.1290
     71 H35        -3.4564    2.4392    2.5687 H         1 <0>         0.1252
     72 H36        -2.9791    1.3135    0.4115 H         1 <0>         0.1326
     73 H37        -2.4372   -0.1375    1.2886 H         1 <0>         0.1545
     74 H38         0.0021   -0.0041    0.0020 H         1 <0>         0.1334
     75 H39         1.0099    1.4631    0.0003 H         1 <0>         0.1421
     76 H40        -0.5399    1.4469   -0.8751 H         1 <0>         0.1315
     77 H41        -6.3402    0.8937    1.0574 H         1 <0>         0.4457
     78 H42        -5.5334    2.3261    1.3084 H         1 <0>         0.4487
     79 N4         -5.4251    1.3197    1.1945 N.4       1 <0>        -0.6314
     80 H43        -4.8433    1.1367    0.3685 H         1 <0>         0.4420
@<TRIPOS>BOND
     1    1    2 1
     2    1   40 1
     3    1   41 1
     4    1   42 1
     5    2    7 ar
     6    2    3 ar
     7    3    4 ar
     8    3   43 1
     9    4    5 ar
    10    4   44 1
    11    5    6 ar
    12    5   45 1
    13    6    7 ar
    14    6   46 1
    15    7    8 1
    16    8   13 1
    17    8    9 1
    18    9   10 1
    19    9   47 1
    20    9   48 1
    21   10   11 1
    22   10   49 1
    23   10   50 1
    24   11   12 1
    25   11   14 1
    26   12   13 1
    27   12   51 1
    28   12   52 1
    29   13   53 1
    30   13   54 1
    31   14   15 2
    32   14   16 2
    33   14   17 1
    34   17   18 1
    35   17   55 1
    36   17   56 1
    37   18   23 1
    38   18   27 1
    39   18   19 1
    40   19   20 1
    41   19   57 1
    42   19   58 1
    43   20   21 1
    44   20   59 1
    45   20   60 1
    46   21   22 1
    47   21   23 1
    48   21   26 1
    49   23   24 1
    50   23   25 1
    51   24   61 1
    52   24   62 1
    53   24   63 1
    54   25   64 1
    55   25   65 1
    56   25   66 1
    57   26   27 1
    58   26   67 1
    59   26   68 1
    60   27   28 1
    61   27   29 1
    62   29   30 am
    63   29   69 1
    64   30   31 2
    65   30   32 1
    66   32   33 1
    67   32   34 1
    68   32   79 1
    69   34   35 1
    70   34   70 1
    71   34   71 1
    72   35   36 1
    73   35   72 1
    74   35   73 1
    75   36   37 2
    76   36   38 2
    77   36   39 1
    78   39   74 1
    79   39   75 1
    80   39   76 1
    81   77   79 1
    82   78   79 1
    83   79   80 1
@<TRIPOS>MOLECULE
ZINC03824080
   70    74     0     0     0
SMALL
USER_CHARGES

@<TRIPOS>ATOM
      1 C1         -0.8555   -1.3236    1.6511 C.3       1 <0>        -0.1770
      2 C2         -0.6345   -0.4699    0.4290 C.2       1 <0>         0.5151
      3 O1         -0.6921    0.7385    0.5150 O.2       1 <0>        -0.5412
      4 N1         -0.3729   -1.0493   -0.7594 N.am      1 <0>        -0.6201
      5 C3         -0.0166   -0.2330   -1.9279 C.3       1 <0>         0.1141
      6 C4         -0.9548   -0.5918   -3.0846 C.3       1 <0>        -0.1296
      7 C5         -0.8992   -2.1011   -3.3317 C.3       1 <0>         0.0853
      8 C6         -1.3714   -2.8426   -2.0790 C.3       1 <0>        -0.1634
      9 C7         -0.4325   -2.5096   -0.9095 C.3       1 <0>         0.1093
     10 O2         -1.7488   -2.4351   -4.4312 O.3       1 <0>        -0.3016
     11 C8         -1.4943   -3.6030   -5.0738 C.ar      1 <0>         0.1963
     12 C9         -0.4273   -4.3992   -4.6679 C.ar      1 <0>        -0.2545
     13 C10        -0.1623   -5.5844   -5.3137 C.ar      1 <0>        -0.0091
     14 C11        -0.9669   -5.9925   -6.3824 C.ar      1 <0>        -0.2054
     15 C12        -2.0420   -5.1889   -6.7905 C.ar      1 <0>         0.2203
     16 C13        -2.3019   -4.0009   -6.1287 C.ar      1 <0>        -0.2524
     17 O3         -2.8275   -5.5772   -7.8261 O.3       1 <0>        -0.2917
     18 C14        -3.9035   -4.7083   -8.1856 C.3       1 <0>         0.0222
     19 C15        -0.6862   -7.2608   -7.0770 C.2       1 <0>         0.5773
     20 O4         -0.6315   -7.2897   -8.2916 O.2       1 <0>        -0.5208
     21 N2         -0.4902   -8.3892   -6.3665 N.am      1 <0>        -0.6117
     22 C16        -0.0913   -9.6351   -7.0353 C.3       1 <0>         0.1203
     23 C17        -1.0736  -10.7426   -6.6412 C.3       1 <0>        -0.1535
     24 C18        -1.1393  -10.8415   -5.1155 C.3       1 <0>         0.1558
     25 C19        -1.6465   -9.5180   -4.5382 C.3       1 <0>        -0.1547
     26 C20        -0.6653   -8.3953   -4.9077 C.3       1 <0>         0.1104
     27 N3         -2.0528  -11.9218   -4.7353 N.am      1 <0>        -0.5595
     28 C21        -1.5930  -13.0024   -3.9731 C.ar      1 <0>         0.1662
     29 C22        -0.3829  -12.9426   -3.3007 C.ar      1 <0>        -0.1511
     30 C23         0.0413  -14.0274   -2.5566 C.ar      1 <0>        -0.0771
     31 C24        -0.7382  -15.1674   -2.4831 C.ar      1 <0>        -0.1406
     32 C25        -1.9470  -15.2294   -3.1541 C.ar      1 <0>        -0.0671
     33 C26        -2.3741  -14.1507   -3.8980 C.ar      1 <0>        -0.1782
     34 C27        -3.6840  -14.1895   -4.6436 C.3       1 <0>         0.1149
     35 O5         -4.1989  -12.8586   -4.7432 O.3       1 <0>        -0.3394
     36 C28        -3.3482  -11.8840   -5.1110 C.2       1 <0>         0.6584
     37 O6         -3.7494  -10.9621   -5.7934 O.2       1 <0>        -0.4904
     38 H1         -1.9171   -1.5507    1.7485 H         1 <0>         0.0952
     39 H2         -0.2929   -2.2519    1.5524 H         1 <0>         0.0827
     40 H3         -0.5163   -0.7856    2.5363 H         1 <0>         0.0956
     41 H4         -0.1263    0.8234   -1.6828 H         1 <0>         0.1035
     42 H5          1.0143   -0.4382   -2.2164 H         1 <0>         0.0729
     43 H6         -1.9742   -0.3022   -2.8294 H         1 <0>         0.0810
     44 H7         -0.6406   -0.0639   -3.9850 H         1 <0>         0.0889
     45 H8          0.1250   -2.3938   -3.5625 H         1 <0>         0.0812
     46 H9         -2.3869   -2.5318   -1.8333 H         1 <0>         0.0826
     47 H10        -1.3538   -3.9167   -2.2636 H         1 <0>         0.0871
     48 H11         0.5651   -2.8967   -1.1167 H         1 <0>         0.0750
     49 H12        -0.8167   -2.9559    0.0078 H         1 <0>         0.0972
     50 H13         0.1951   -4.0852   -3.8430 H         1 <0>         0.1377
     51 H14         0.6667   -6.1992   -4.9959 H         1 <0>         0.1381
     52 H15        -3.1312   -3.3816   -6.4370 H         1 <0>         0.1437
     53 H16        -4.5759   -4.5917   -7.3357 H         1 <0>         0.0598
     54 H17        -3.5047   -3.7344   -8.4696 H         1 <0>         0.0609
     55 H18        -4.4506   -5.1359   -9.0258 H         1 <0>         0.1056
     56 H19        -0.1146   -9.4935   -8.1158 H         1 <0>         0.1010
     57 H20         0.9157   -9.9115   -6.7226 H         1 <0>         0.0706
     58 H21        -2.0631  -10.5078   -7.0335 H         1 <0>         0.0951
     59 H22        -0.7345  -11.6931   -7.0532 H         1 <0>         0.0783
     60 H23        -0.1448  -11.0518   -4.7220 H         1 <0>         0.1028
     61 H24        -2.6306   -9.2948   -4.9503 H         1 <0>         0.0947
     62 H25        -1.7153   -9.5970   -3.4532 H         1 <0>         0.0793
     63 H26         0.2958   -8.5726   -4.4251 H         1 <0>         0.0727
     64 H27        -1.0675   -7.4353   -4.5840 H         1 <0>         0.0968
     65 H28         0.2261  -12.0525   -3.3581 H         1 <0>         0.1333
     66 H29         0.9842  -13.9848   -2.0315 H         1 <0>         0.1326
     67 H30        -0.4024  -16.0123   -1.9003 H         1 <0>         0.1309
     68 H31        -2.5538  -16.1209   -3.0953 H         1 <0>         0.1349
     69 H32        -3.5236  -14.5947   -5.6427 H         1 <0>         0.0856
     70 H33        -4.3935  -14.8160   -4.1030 H         1 <0>         0.1272
@<TRIPOS>BOND
     1    1    2 1
     2    1   38 1
     3    1   39 1
     4    1   40 1
     5    2    3 2
     6    2    4 am
     7    4    9 1
     8    4    5 1
     9    5    6 1
    10    5   41 1
    11    5   42 1
    12    6    7 1
    13    6   43 1
    14    6   44 1
    15    7    8 1
    16    7   10 1
    17    7   45 1
    18    8    9 1
    19    8   46 1
    20    8   47 1
    21    9   48 1
    22    9   49 1
    23   10   11 1
    24   11   16 ar
    25   11   12 ar
    26   12   13 ar
    27   12   50 1
    28   13   14 ar
    29   13   51 1
    30   14   15 ar
    31   14   19 1
    32   15   16 ar
    33   15   17 1
    34   16   52 1
    35   17   18 1
    36   18   53 1
    37   18   54 1
    38   18   55 1
    39   19   20 2
    40   19   21 am
    41   21   26 1
    42   21   22 1
    43   22   23 1
    44   22   56 1
    45   22   57 1
    46   23   24 1
    47   23   58 1
    48   23   59 1
    49   24   25 1
    50   24   27 1
    51   24   60 1
    52   25   26 1
    53   25   61 1
    54   25   62 1
    55   26   63 1
    56   26   64 1
    57   27   36 am
    58   27   28 1
    59   28   33 ar
    60   28   29 ar
    61   29   30 ar
    62   29   65 1
    63   30   31 ar
    64   30   66 1
    65   31   32 ar
    66   31   67 1
    67   32   33 ar
    68   32   68 1
    69   33   34 1
    70   34   35 1
    71   34   69 1
    72   34   70 1
    73   35   36 1
    74   36   37 2
@<TRIPOS>MOLECULE
ZINC03796262
   64    67     0     0     0
SMALL
USER_CHARGES
N-[3-[4-[[4-(2-oxo-3,4-dihydroquinolin-1-yl)-1-piperidyl]carbonyl]phenoxy]propyl]acetamide
@<TRIPOS>ATOM
      1 C1        -10.4432   11.2489  -10.7431 C.3       1 <0>        -0.1752
      2 C2         -9.0870   11.0631  -10.1130 C.2       1 <0>         0.5102
      3 O1         -8.0833   11.2540  -10.7666 O.2       1 <0>        -0.5437
      4 N1         -8.9894   10.6849   -8.8231 N.am      1 <0>        -0.7336
      5 C3         -7.6709   10.5042   -8.2105 C.3       1 <0>         0.1202
      6 C4         -7.8408   10.0766   -6.7513 C.3       1 <0>        -0.1310
      7 C5         -6.4639    9.8879   -6.1115 C.3       1 <0>         0.0602
      8 O2         -6.6225    9.4885   -4.7487 O.3       1 <0>        -0.3099
      9 C6         -5.4892    9.2776   -4.0325 C.ar      1 <0>         0.1531
     10 C7         -5.5732    8.8874   -2.7011 C.ar      1 <0>        -0.1552
     11 C8         -4.4256    8.6729   -1.9709 C.ar      1 <0>        -0.0522
     12 C9         -3.1755    8.8476   -2.5702 C.ar      1 <0>        -0.1661
     13 C10        -3.0953    9.2452   -3.9074 C.ar      1 <0>        -0.0248
     14 C11        -4.2476    9.4521   -4.6325 C.ar      1 <0>        -0.2114
     15 C12        -1.9428    8.6187   -1.7912 C.2       1 <0>         0.5687
     16 O3         -1.0691    9.4640   -1.7735 O.2       1 <0>        -0.5320
     17 N2         -1.7859    7.4727   -1.0994 N.am      1 <0>        -0.6064
     18 C13        -0.5315    7.1942   -0.3869 C.3       1 <0>         0.1181
     19 C14        -0.0014    5.8292   -0.8371 C.3       1 <0>        -0.1510
     20 C15        -1.0885    4.7716   -0.6328 C.3       1 <0>         0.1418
     21 C16        -2.3095    5.1211   -1.4867 C.3       1 <0>        -0.1527
     22 C17        -2.8658    6.4780   -1.0439 C.3       1 <0>         0.1030
     23 N3         -0.5736    3.4592   -1.0313 N.am      1 <0>        -0.5492
     24 C18        -0.5197    2.4213   -0.0960 C.ar      1 <0>         0.1633
     25 C19        -1.2795    2.4868    1.0644 C.ar      1 <0>        -0.1549
     26 C20        -1.2214    1.4587    1.9842 C.ar      1 <0>        -0.0879
     27 C21        -0.4085    0.3644    1.7505 C.ar      1 <0>        -0.1406
     28 C22         0.3488    0.2959    0.5955 C.ar      1 <0>        -0.0821
     29 C23         0.2953    1.3214   -0.3277 C.ar      1 <0>        -0.1245
     30 C24         1.1197    1.2508   -1.5868 C.3       1 <0>        -0.0774
     31 C25         0.3586    1.9165   -2.7338 C.3       1 <0>        -0.1392
     32 C26        -0.1563    3.2608   -2.2951 C.2       1 <0>         0.5195
     33 O4         -0.1960    4.1760   -3.0901 O.2       1 <0>        -0.5145
     34 H1        -10.9936   12.0178  -10.2009 H         1 <0>         0.0894
     35 H2        -10.3222   11.5536  -11.7827 H         1 <0>         0.0940
     36 H3        -10.9949   10.3098  -10.7016 H         1 <0>         0.0893
     37 H4         -9.7921   10.5322   -8.3003 H         1 <0>         0.4035
     38 H5         -7.1193   11.4434   -8.2519 H         1 <0>         0.0723
     39 H6         -7.1206    9.7354   -8.7527 H         1 <0>         0.0721
     40 H7         -8.3925    9.1374   -6.7098 H         1 <0>         0.0834
     41 H8         -8.3911   10.8455   -6.2090 H         1 <0>         0.0836
     42 H9         -5.9122   10.8271   -6.1530 H         1 <0>         0.0704
     43 H10        -5.9135    9.1190   -6.6538 H         1 <0>         0.0701
     44 H11        -6.5398    8.7525   -2.2386 H         1 <0>         0.1389
     45 H12        -4.4916    8.3696   -0.9364 H         1 <0>         0.1367
     46 H13        -2.1310    9.3856   -4.3729 H         1 <0>         0.1335
     47 H14        -4.1865    9.7547   -5.6674 H         1 <0>         0.1361
     48 H15        -0.7172    7.1780    0.6871 H         1 <0>         0.0707
     49 H16         0.2023    7.9659   -0.6193 H         1 <0>         0.0993
     50 H17         0.8766    5.5672   -0.2467 H         1 <0>         0.0774
     51 H18         0.2695    5.8735   -1.8919 H         1 <0>         0.0939
     52 H19        -1.3762    4.7449    0.4182 H         1 <0>         0.0975
     53 H20        -2.0173    5.1724   -2.5355 H         1 <0>         0.0939
     54 H21        -3.0743    4.3550   -1.3587 H         1 <0>         0.0780
     55 H22        -3.2418    6.4034   -0.0235 H         1 <0>         0.0737
     56 H23        -3.6732    6.7775   -1.7120 H         1 <0>         0.1008
     57 H24        -1.9146    3.3410    1.2476 H         1 <0>         0.1283
     58 H25        -1.8112    1.5092    2.8875 H         1 <0>         0.1282
     59 H26        -0.3654   -0.4385    2.4714 H         1 <0>         0.1263
     60 H27         0.9826   -0.5599    0.4156 H         1 <0>         0.1294
     61 H28         1.3129    0.2075   -1.8363 H         1 <0>         0.0919
     62 H29         2.0663    1.7682   -1.4305 H         1 <0>         0.0828
     63 H30         1.0269    2.0450   -3.5852 H         1 <0>         0.1093
     64 H31        -0.4805    1.2851   -3.0260 H         1 <0>         0.1027
@<TRIPOS>BOND
     1    1    2 1
     2    1   34 1
     3    1   35 1
     4    1   36 1
     5    2    3 2
     6    2    4 am
     7    4    5 1
     8    4   37 1
     9    5    6 1
    10    5   38 1
    11    5   39 1
    12    6    7 1
    13    6   40 1
    14    6   41 1
    15    7    8 1
    16    7   42 1
    17    7   43 1
    18    8    9 1
    19    9   14 ar
    20    9   10 ar
    21   10   11 ar
    22   10   44 1
    23   11   12 ar
    24   11   45 1
    25   12   13 ar
    26   12   15 1
    27   13   14 ar
    28   13   46 1
    29   14   47 1
    30   15   16 2
    31   15   17 am
    32   17   22 1
    33   17   18 1
    34   18   19 1
    35   18   48 1
    36   18   49 1
    37   19   20 1
    38   19   50 1
    39   19   51 1
    40   20   21 1
    41   20   23 1
    42   20   52 1
    43   21   22 1
    44   21   53 1
    45   21   54 1
    46   22   55 1
    47   22   56 1
    48   23   32 am
    49   23   24 1
    50   24   29 ar
    51   24   25 ar
    52   25   26 ar
    53   25   57 1
    54   26   27 ar
    55   26   58 1
    56   27   28 ar
    57   27   59 1
    58   28   29 ar
    59   28   60 1
    60   29   30 1
    61   30   31 1
    62   30   61 1
    63   30   62 1
    64   31   32 1
    65   31   63 1
    66   31   64 1
    67   32   33 2
@<TRIPOS>MOLECULE
ZINC04694491
   46    48     0     0     0
SMALL
USER_CHARGES
N-[4-(3,4-dihydro-2H-quinolin-1-ylcarbonyl)phenyl]-2-methyl-propanamide
@<TRIPOS>ATOM
      1 C1         -2.1174   -0.5034   -1.1134 C.3       1 <0>        -0.1484
      2 C2         -0.7269    0.0893   -1.3500 C.3       1 <0>        -0.1128
      3 C3         -0.2343   -0.3063   -2.7435 C.3       1 <0>        -0.1361
      4 C4         -0.7974    1.5913   -1.2498 C.2       1 <0>         0.5168
      5 O1         -0.4845    2.2777   -2.1994 O.2       1 <0>        -0.5106
      6 N1         -1.2136    2.1717   -0.1068 N.am      1 <0>        -0.6756
      7 C5         -1.1767    3.5594    0.0241 C.ar      1 <0>         0.1787
      8 C6         -0.1661    4.2884   -0.5949 C.ar      1 <0>        -0.1313
      9 C7         -0.1294    5.6590   -0.4717 C.ar      1 <0>        -0.0765
     10 C8         -1.1031    6.3173    0.2846 C.ar      1 <0>        -0.1559
     11 C9         -2.1138    5.5815    0.9095 C.ar      1 <0>        -0.0339
     12 C10        -2.1472    4.2115    0.7782 C.ar      1 <0>        -0.1545
     13 C11        -1.0643    7.7860    0.4228 C.2       1 <0>         0.5635
     14 O2         -2.0896    8.4039    0.6362 O.2       1 <0>        -0.5117
     15 N2          0.1076    8.4425    0.3125 N.am      1 <0>        -0.5477
     16 C12         1.3715    7.7013    0.2032 C.3       1 <0>         0.0843
     17 C13         2.3912    8.3654    1.1309 C.3       1 <0>        -0.1375
     18 C14         2.6411    9.7954    0.6523 C.3       1 <0>        -0.0791
     19 C15         1.3368   10.5256    0.4693 C.ar      1 <0>        -0.1165
     20 C16         0.1413    9.8431    0.3058 C.ar      1 <0>         0.1544
     21 C17        -1.0443   10.5481    0.1336 C.ar      1 <0>        -0.1498
     22 C18        -1.0326   11.9288    0.1272 C.ar      1 <0>        -0.1025
     23 C19         0.1598   12.6089    0.2927 C.ar      1 <0>        -0.1385
     24 C20         1.3395   11.9102    0.4633 C.ar      1 <0>        -0.1006
     25 H1         -2.8081   -0.1212   -1.8650 H         1 <0>         0.0638
     26 H2         -2.0665   -1.5898   -1.1858 H         1 <0>         0.0739
     27 H3         -2.4684   -0.2216   -0.1207 H         1 <0>         0.0597
     28 H4         -0.0363   -0.2929   -0.5984 H         1 <0>         0.1034
     29 H5          0.7564    0.1160   -2.9120 H         1 <0>         0.0638
     30 H6         -0.1833   -1.3927   -2.8159 H         1 <0>         0.0663
     31 H7         -0.9249    0.0759   -3.4951 H         1 <0>         0.0642
     32 H8         -1.5388    1.6240    0.6247 H         1 <0>         0.4142
     33 H9          0.5883    3.7787   -1.1758 H         1 <0>         0.1420
     34 H10         0.6529    6.2246   -0.9558 H         1 <0>         0.1441
     35 H11        -2.8679    6.0871    1.4944 H         1 <0>         0.1402
     36 H12        -2.9280    3.6423    1.2607 H         1 <0>         0.1356
     37 H13         1.2190    6.6650    0.5049 H         1 <0>         0.1093
     38 H14         1.7333    7.7380   -0.8243 H         1 <0>         0.0820
     39 H15         3.3255    7.8044    1.1091 H         1 <0>         0.0886
     40 H16         1.9999    8.3838    2.1481 H         1 <0>         0.0738
     41 H17         3.1757    9.7692   -0.2972 H         1 <0>         0.0786
     42 H18         3.2479   10.3211    1.3896 H         1 <0>         0.0815
     43 H19        -1.9750   10.0157    0.0043 H         1 <0>         0.1654
     44 H20        -1.9535   12.4767   -0.0073 H         1 <0>         0.1250
     45 H21         0.1691   13.6888    0.2883 H         1 <0>         0.1220
     46 H22         2.2680   12.4465    0.5921 H         1 <0>         0.1246
@<TRIPOS>BOND
     1    1    2 1
     2    1   25 1
     3    1   26 1
     4    1   27 1
     5    2    3 1
     6    2    4 1
     7    2   28 1
     8    3   29 1
     9    3   30 1
    10    3   31 1
    11    4    5 2
    12    4    6 am
    13    6    7 1
    14    6   32 1
    15    7   12 ar
    16    7    8 ar
    17    8    9 ar
    18    8   33 1
    19    9   10 ar
    20    9   34 1
    21   10   11 ar
    22   10   13 1
    23   11   12 ar
    24   11   35 1
    25   12   36 1
    26   13   14 2
    27   13   15 am
    28   15   20 1
    29   15   16 1
    30   16   17 1
    31   16   37 1
    32   16   38 1
    33   17   18 1
    34   17   39 1
    35   17   40 1
    36   18   19 1
    37   18   41 1
    38   18   42 1
    39   19   24 ar
    40   19   20 ar
    41   20   21 ar
    42   21   22 ar
    43   21   43 1
    44   22   23 ar
    45   22   44 1
    46   23   24 ar
    47   23   45 1
    48   24   46 1
@<TRIPOS>MOLECULE
ZINC10461620
   47    50     0     0     0
SMALL
USER_CHARGES
N-[4-(3,4-dihydro-2H-quinolin-1-ylcarbonyl)phenyl]benzamide
@<TRIPOS>ATOM
      1 C1          0.3597    1.8815   -1.5100 C.ar      1 <0>        -0.0876
      2 C2          1.1059    1.9513   -0.3470 C.ar      1 <0>        -0.1262
      3 C3          2.3340    1.3271   -0.2732 C.ar      1 <0>        -0.0852
      4 C4          2.8236    0.6245   -1.3756 C.ar      1 <0>        -0.1419
      5 C5          2.0657    0.5581   -2.5460 C.ar      1 <0>        -0.0552
      6 C6          0.8390    1.1863   -2.6062 C.ar      1 <0>        -0.1260
      7 C7          4.1390   -0.0458   -1.3040 C.2       1 <0>         0.5620
      8 O1          4.5630   -0.6565   -2.2657 O.2       1 <0>        -0.5089
      9 N1          4.8683    0.0202   -0.1726 N.am      1 <0>        -0.6708
     10 C8          6.0548   -0.7028   -0.0652 C.ar      1 <0>         0.1790
     11 C9          6.1732   -1.9396   -0.6919 C.ar      1 <0>        -0.1299
     12 C10         7.3458   -2.6538   -0.5925 C.ar      1 <0>        -0.0764
     13 C11         8.4142   -2.1405    0.1481 C.ar      1 <0>        -0.1546
     14 C12         8.2899   -0.9006    0.7811 C.ar      1 <0>        -0.0337
     15 C13         7.1164   -0.1891    0.6733 C.ar      1 <0>        -0.1530
     16 C14         9.6708   -2.9057    0.2610 C.2       1 <0>         0.5635
     17 O2         10.7206   -2.3249    0.4594 O.2       1 <0>        -0.5115
     18 N2          9.6551   -4.2483    0.1443 N.am      1 <0>        -0.5475
     19 C15         8.3814   -4.9751    0.0533 C.3       1 <0>         0.0841
     20 C16         8.4661   -6.1945    0.9746 C.3       1 <0>        -0.1375
     21 C17         9.5733   -7.1206    0.4719 C.3       1 <0>        -0.0791
     22 C18        10.8524   -6.3519    0.2701 C.ar      1 <0>        -0.1163
     23 C19        10.8527   -4.9745    0.1135 C.ar      1 <0>         0.1542
     24 C20        12.0512   -4.2963   -0.0766 C.ar      1 <0>        -0.1496
     25 C21        13.2425   -4.9935   -0.1075 C.ar      1 <0>        -0.1026
     26 C22        13.2417   -6.3670    0.0513 C.ar      1 <0>        -0.1384
     27 C23        12.0517   -7.0433    0.2395 C.ar      1 <0>        -0.1007
     28 H1         -0.5991    2.3756   -1.5641 H         1 <0>         0.1307
     29 H2          0.7262    2.4958    0.5049 H         1 <0>         0.1321
     30 H3          2.9154    1.3823    0.6353 H         1 <0>         0.1260
     31 H4          2.4390    0.0164   -3.4025 H         1 <0>         0.1384
     32 H5          0.2516    1.1358   -3.5111 H         1 <0>         0.1334
     33 H6          4.5674    0.5711    0.5670 H         1 <0>         0.4135
     34 H7          5.3456   -2.3377   -1.2604 H         1 <0>         0.1430
     35 H8          7.4387   -3.6114   -1.0831 H         1 <0>         0.1447
     36 H9          9.1138   -0.5010    1.3538 H         1 <0>         0.1408
     37 H10         7.0197    0.7691    1.1622 H         1 <0>         0.1363
     38 H11         7.5638   -4.3285    0.3719 H         1 <0>         0.1095
     39 H12         8.2156   -5.3025   -0.9730 H         1 <0>         0.0822
     40 H13         7.5142   -6.7256    0.9670 H         1 <0>         0.0886
     41 H14         8.6947   -5.8694    1.9896 H         1 <0>         0.0738
     42 H15         9.2678   -7.5666   -0.4746 H         1 <0>         0.0786
     43 H16         9.7401   -7.9123    1.2024 H         1 <0>         0.0814
     44 H17        12.0503   -3.2234   -0.2010 H         1 <0>         0.1654
     45 H18        14.1736   -4.4669   -0.2557 H         1 <0>         0.1250
     46 H19        14.1735   -6.9126    0.0277 H         1 <0>         0.1220
     47 H20        12.0568   -8.1162    0.3630 H         1 <0>         0.1245
@<TRIPOS>BOND
     1    1    6 ar
     2    1    2 ar
     3    1   28 1
     4    2    3 ar
     5    2   29 1
     6    3    4 ar
     7    3   30 1
     8    4    5 ar
     9    4    7 1
    10    5    6 ar
    11    5   31 1
    12    6   32 1
    13    7    8 2
    14    7    9 am
    15    9   10 1
    16    9   33 1
    17   10   15 ar
    18   10   11 ar
    19   11   12 ar
    20   11   34 1
    21   12   13 ar
    22   12   35 1
    23   13   14 ar
    24   13   16 1
    25   14   15 ar
    26   14   36 1
    27   15   37 1
    28   16   17 2
    29   16   18 am
    30   18   23 1
    31   18   19 1
    32   19   20 1
    33   19   38 1
    34   19   39 1
    35   20   21 1
    36   20   40 1
    37   20   41 1
    38   21   22 1
    39   21   42 1
    40   21   43 1
    41   22   27 ar
    42   22   23 ar
    43   23   24 ar
    44   24   25 ar
    45   24   44 1
    46   25   26 ar
    47   25   45 1
    48   26   27 ar
    49   26   46 1
    50   27   47 1
@<TRIPOS>MOLECULE
ZINC03931527
   68    72     0     0     0
SMALL
USER_CHARGES

@<TRIPOS>ATOM
      1 C1          1.2218   -0.4724    2.9458 C.3       1 <0>         0.0198
      2 O1          1.9409   -1.7073    2.9428 O.3       1 <0>        -0.2973
      3 C2          2.0671   -2.3454    1.7485 C.ar      1 <0>         0.1633
      4 C3          1.5160   -1.7920    0.6040 C.ar      1 <0>        -0.1941
      5 C4          1.6457   -2.4417   -0.6094 C.ar      1 <0>        -0.0074
      6 C5          2.3242   -3.6439   -0.6842 C.ar      1 <0>        -0.6830
      7 C6          2.8760   -4.2017    0.4540 C.ar      1 <0>        -0.0756
      8 C7          2.7550   -3.5526    1.6722 C.ar      1 <0>         0.0851
      9 O2          3.3024   -4.0970    2.7918 O.3       1 <0>        -0.3009
     10 C8          3.9941   -5.3380    2.6382 C.3       1 <0>         0.0196
     11 S1          2.4854   -4.4673   -2.2336 S.o2      1 <0>         2.6798
     12 O3          2.6922   -5.8428   -1.9429 O.2       1 <0>        -0.8908
     13 O4          1.4131   -4.0137   -3.0481 O.2       1 <0>        -0.9327
     14 N1          3.8799   -3.9175   -2.9375 N.pl3     1 <0>        -0.9151
     15 C9          3.9669   -2.8077   -3.7807 C.ar      1 <0>         0.1879
     16 C10         2.9589   -1.9417   -4.2103 C.ar      1 <0>        -0.1405
     17 C11         3.2562   -0.8921   -5.0528 C.ar      1 <0>        -0.0605
     18 C12         4.5568   -0.6887   -5.4800 C.ar      1 <0>        -0.0605
     19 C13         5.5603   -1.5424   -5.0586 C.ar      1 <0>        -0.0468
     20 C14         5.2662   -2.5954   -4.2136 C.ar      1 <0>        -0.1506
     21 C15         6.1543   -3.6603   -3.6102 C.3       1 <0>         0.2438
     22 C16         5.2037   -4.5206   -2.7615 C.3       1 <0>         0.1494
     23 H1          5.4971   -4.4892   -1.7122 H         1 <0>         0.1215
     24 C17         5.2016   -5.9418   -3.2627 C.2       1 <0>         0.5471
     25 O5          4.5410   -6.2410   -4.2348 O.2       1 <0>        -0.4970
     26 N2          5.9337   -6.8803   -2.6305 N.am      1 <0>        -0.5873
     27 C18         6.7731   -6.6571   -1.4393 C.3       1 <0>         0.0850
     28 C19         6.8762   -8.0459   -0.7609 C.3       1 <0>        -0.1334
     29 C20         6.9518   -8.9886   -1.9909 C.3       1 <0>        -0.1235
     30 C21         6.0225   -8.2977   -3.0109 C.3       1 <0>         0.1233
     31 H2          6.4430   -8.3871   -4.0125 H         1 <0>         0.0996
     32 C22         4.6535   -8.9264   -2.9687 C.2       1 <0>         0.4930
     33 O6          3.6902   -8.2611   -2.6521 O.2       1 <0>        -0.4803
     34 N3          4.4998  -10.2280   -3.2828 N.am      1 <0>        -0.8617
     35 C23         6.7938   -4.4882   -4.6949 C.ar      1 <0>        -0.1310
     36 C24         6.1215   -4.7106   -5.8820 C.ar      1 <0>        -0.0523
     37 C25         6.7080   -5.4699   -6.8770 C.ar      1 <0>        -0.1138
     38 C26         7.9674   -6.0074   -6.6855 C.ar      1 <0>        -0.0924
     39 C27         8.6405   -5.7858   -5.4992 C.ar      1 <0>        -0.1183
     40 C28         8.0563   -5.0210   -4.5050 C.ar      1 <0>        -0.0158
     41 Cl1         8.9040   -4.7365   -3.0170 Cl        1 <0>        -0.0437
     42 O7          7.1541   -3.0646   -2.7810 O.3       1 <0>        -0.5256
     43 Cl2         4.9276    0.6335   -6.5420 Cl        1 <0>        -0.0598
     44 H3          1.7179    0.2385    2.2849 H         1 <0>         0.0613
     45 H4          0.2037   -0.6439    2.5964 H         1 <0>         0.0613
     46 H5          1.1954   -0.0697    3.9584 H         1 <0>         0.1077
     47 H6          0.9849   -0.8533    0.6598 H         1 <0>         0.1496
     48 H7          1.2157   -2.0093   -1.5007 H         1 <0>         0.1451
     49 H8          3.4052   -5.1412    0.3929 H         1 <0>         0.1502
     50 H9          4.3808   -5.6604    3.6050 H         1 <0>         0.1074
     51 H10         3.3074   -6.0912    2.2520 H         1 <0>         0.0599
     52 H11         4.8216   -5.2088    1.9407 H         1 <0>         0.0564
     53 H12         1.9418   -2.0954   -3.8812 H         1 <0>         0.1555
     54 H13         2.4716   -0.2265   -5.3810 H         1 <0>         0.1470
     55 H14         6.5759   -1.3857   -5.3910 H         1 <0>         0.1376
     56 H15         7.7616   -6.3038   -1.7326 H         1 <0>         0.0880
     57 H16         6.2972   -5.9417   -0.7686 H         1 <0>         0.0741
     58 H17         7.7801   -8.1192   -0.1563 H         1 <0>         0.0922
     59 H18         5.9896   -8.2551   -0.1623 H         1 <0>         0.0803
     60 H19         7.9720   -9.0462   -2.3705 H         1 <0>         0.0911
     61 H20         6.5759   -9.9805   -1.7403 H         1 <0>         0.0889
     62 H21         5.2703  -10.7601   -3.5360 H         1 <0>         0.3965
     63 H22         3.6187  -10.6327   -3.2557 H         1 <0>         0.4021
     64 H23         5.1376   -4.2913   -6.0320 H         1 <0>         0.1324
     65 H24         6.1821   -5.6437   -7.8042 H         1 <0>         0.1313
     66 H25         8.4250   -6.6009   -7.4632 H         1 <0>         0.1336
     67 H26         9.6241   -6.2059   -5.3496 H         1 <0>         0.1357
     68 H27         7.7937   -2.5231   -3.2634 H         1 <0>         0.3879
@<TRIPOS>BOND
     1    1    2 1
     2    1   44 1
     3    1   45 1
     4    1   46 1
     5    2    3 1
     6    3    8 ar
     7    3    4 ar
     8    4    5 ar
     9    4   47 1
    10    5    6 ar
    11    5   48 1
    12    6    7 ar
    13    6   11 1
    14    7    8 ar
    15    7   49 1
    16    8    9 1
    17    9   10 1
    18   10   50 1
    19   10   51 1
    20   10   52 1
    21   11   12 2
    22   11   13 2
    23   11   14 1
    24   14   22 1
    25   14   15 1
    26   15   20 ar
    27   15   16 ar
    28   16   17 ar
    29   16   53 1
    30   17   18 ar
    31   17   54 1
    32   18   19 ar
    33   18   43 1
    34   19   20 ar
    35   19   55 1
    36   20   21 1
    37   21   22 1
    38   21   35 1
    39   21   42 1
    40   22   23 1
    41   22   24 1
    42   24   25 2
    43   24   26 am
    44   26   30 1
    45   26   27 1
    46   27   28 1
    47   27   56 1
    48   27   57 1
    49   28   29 1
    50   28   58 1
    51   28   59 1
    52   29   30 1
    53   29   60 1
    54   29   61 1
    55   30   31 1
    56   30   32 1
    57   32   33 2
    58   32   34 am
    59   34   62 1
    60   34   63 1
    61   35   40 ar
    62   35   36 ar
    63   36   37 ar
    64   36   64 1
    65   37   38 ar
    66   37   65 1
    67   38   39 ar
    68   38   66 1
    69   39   40 ar
    70   39   67 1
    71   40   41 1
    72   42   68 1
@<TRIPOS>MOLECULE
ZINC03804565
   62    65     0     0     0
SMALL
USER_CHARGES
N-[4-[(2-dimethylamino-6-azabicyclo[5.4.0]undeca-7,9,11-trien-6-yl)carbonyl]phenyl]-2-methyl-benzamide
@<TRIPOS>ATOM
      1 C1         13.0155    2.6092    3.0163 C.3       1 <0>        -0.1295
      2 C2         13.1960    3.6861    1.9777 C.ar      1 <0>        -0.0152
      3 C3         14.1618    4.6565    2.1486 C.ar      1 <0>        -0.1304
      4 C4         14.3294    5.6454    1.1958 C.ar      1 <0>        -0.0782
      5 C5         13.5308    5.6686    0.0658 C.ar      1 <0>        -0.1327
      6 C6         12.5645    4.7019   -0.1194 C.ar      1 <0>        -0.0800
      7 C7         12.3868    3.7040    0.8406 C.ar      1 <0>        -0.1538
      8 C8         11.3505    2.6673    0.6507 C.2       1 <0>         0.5670
      9 O1         11.1940    1.8033    1.4912 O.2       1 <0>        -0.5073
     10 N1         10.5753    2.6834   -0.4517 N.am      1 <0>        -0.6731
     11 C9          9.6535    1.6614   -0.6703 C.ar      1 <0>         0.1893
     12 C10         9.9414    0.3657   -0.2522 C.ar      1 <0>        -0.1303
     13 C11         9.0306   -0.6450   -0.4615 C.ar      1 <0>        -0.1237
     14 C12         7.8203   -0.3708   -1.1045 C.ar      1 <0>        -0.1643
     15 C13         7.5367    0.9305   -1.5282 C.ar      1 <0>        -0.0308
     16 C14         8.4496    1.9377   -1.3112 C.ar      1 <0>        -0.1521
     17 C15         6.8442   -1.4530   -1.3360 C.2       1 <0>         0.5691
     18 O2          5.6672   -1.1880   -1.4873 O.2       1 <0>        -0.5061
     19 N2          7.2574   -2.7351   -1.3797 N.am      1 <0>        -0.5685
     20 C16         8.6242   -3.0818   -0.9792 C.3       1 <0>         0.0622
     21 C17         8.6331   -3.2686    0.5396 C.3       1 <0>        -0.1611
     22 C18         7.2536   -3.8152    0.9508 C.3       1 <0>        -0.1370
     23 C19         6.9896   -5.1343    0.2257 C.3       1 <0>         0.0901
     24 H1          7.9408   -5.6219    0.0123 H         1 <0>         0.1424
     25 C20         6.2512   -4.9022   -1.0678 C.ar      1 <0>        -0.1551
     26 C21         6.3843   -3.7380   -1.8005 C.ar      1 <0>         0.1924
     27 C22         5.6591   -3.5616   -2.9770 C.ar      1 <0>        -0.1001
     28 C23         4.8109   -4.5570   -3.4200 C.ar      1 <0>        -0.0759
     29 C24         4.6885   -5.7279   -2.6949 C.ar      1 <0>        -0.1072
     30 C25         5.4030   -5.8993   -1.5259 C.ar      1 <0>        -0.1215
     31 C26         6.9758   -6.5014    2.2241 C.3       1 <0>        -0.0460
     32 C27         4.9738   -5.3153    1.5548 C.3       1 <0>        -0.0497
     33 H2         13.5598    1.7154    2.7113 H         1 <0>         0.0754
     34 H3         13.4002    2.9598    3.9740 H         1 <0>         0.0625
     35 H4         11.9559    2.3733    3.1148 H         1 <0>         0.0992
     36 H5         14.7886    4.6439    3.0280 H         1 <0>         0.1337
     37 H6         15.0871    6.4024    1.3342 H         1 <0>         0.1324
     38 H7         13.6670    6.4431   -0.6744 H         1 <0>         0.1329
     39 H8         11.9446    4.7188   -1.0037 H         1 <0>         0.1251
     40 H9         10.6590    3.4064   -1.0929 H         1 <0>         0.4152
     41 H10        10.8787    0.1537    0.2407 H         1 <0>         0.1455
     42 H11         9.2526   -1.6495   -0.1325 H         1 <0>         0.1785
     43 H12         6.6025    1.1456   -2.0257 H         1 <0>         0.1404
     44 H13         8.2311    2.9435   -1.6383 H         1 <0>         0.1385
     45 H14         8.9281   -4.0080   -1.4669 H         1 <0>         0.0948
     46 H15         9.3053   -2.2771   -1.2562 H         1 <0>         0.1329
     47 H16         9.4108   -3.9791    0.8201 H         1 <0>         0.0983
     48 H17         8.8122   -2.3112    1.0288 H         1 <0>         0.1090
     49 H18         7.2357   -3.9828    2.0276 H         1 <0>         0.0919
     50 H19         6.4824   -3.0930    0.6830 H         1 <0>         0.0984
     51 H20         5.7579   -2.6461   -3.5412 H         1 <0>         0.1380
     52 H21         4.2449   -4.4214   -4.3298 H         1 <0>         0.1418
     53 H22         4.0315   -6.5109   -3.0438 H         1 <0>         0.1387
     54 H23         5.3010   -6.8163   -0.9645 H         1 <0>         0.1185
     55 H24         7.2372   -5.6677    2.8758 H         1 <0>         0.1246
     56 H25         6.3916   -7.2313    2.7845 H         1 <0>         0.1260
     57 H26         7.8863   -6.9722    1.8534 H         1 <0>         0.1230
     58 H27         4.3312   -5.0950    0.7024 H         1 <0>         0.1224
     59 H28         4.4384   -5.9529    2.2583 H         1 <0>         0.1251
     60 H29         5.2541   -4.3848    2.0485 H         1 <0>         0.1245
     61 N3          6.1755   -6.0295    1.0745 N.4       1 <0>        -0.3972
     62 H30         5.8812   -6.8404    0.5177 H         1 <0>         0.4273
@<TRIPOS>BOND
     1    1    2 1
     2    1   33 1
     3    1   34 1
     4    1   35 1
     5    2    7 ar
     6    2    3 ar
     7    3    4 ar
     8    3   36 1
     9    4    5 ar
    10    4   37 1
    11    5    6 ar
    12    5   38 1
    13    6    7 ar
    14    6   39 1
    15    7    8 1
    16    8    9 2
    17    8   10 am
    18   10   11 1
    19   10   40 1
    20   11   16 ar
    21   11   12 ar
    22   12   13 ar
    23   12   41 1
    24   13   14 ar
    25   13   42 1
    26   14   15 ar
    27   14   17 1
    28   15   16 ar
    29   15   43 1
    30   16   44 1
    31   17   18 2
    32   17   19 am
    33   19   26 1
    34   19   20 1
    35   20   21 1
    36   20   45 1
    37   20   46 1
    38   21   22 1
    39   21   47 1
    40   21   48 1
    41   22   23 1
    42   22   49 1
    43   22   50 1
    44   23   24 1
    45   23   25 1
    46   23   61 1
    47   25   30 ar
    48   25   26 ar
    49   26   27 ar
    50   27   28 ar
    51   27   51 1
    52   28   29 ar
    53   28   52 1
    54   29   30 ar
    55   29   53 1
    56   30   54 1
    57   31   55 1
    58   31   56 1
    59   31   57 1
    60   31   61 1
    61   32   58 1
    62   32   59 1
    63   32   60 1
    64   32   61 1
    65   61   62 1
@<TRIPOS>MOLECULE
ZINC06071859
   62    65     0     0     0
SMALL
USER_CHARGES
N-[4-[(2-dimethylamino-6-azabicyclo[5.4.0]undeca-7,9,11-trien-6-yl)carbonyl]phenyl]-2-methyl-benzamide
@<TRIPOS>ATOM
      1 C1          7.9033    4.3738   -5.9848 C.3       1 <0>        -0.1316
      2 C2          6.5430    4.7768   -6.4929 C.ar      1 <0>        -0.0129
      3 C3          6.4005    5.9158   -7.2586 C.ar      1 <0>        -0.1294
      4 C4          5.1525    6.2869   -7.7263 C.ar      1 <0>        -0.0782
      5 C5          4.0396    5.5195   -7.4305 C.ar      1 <0>        -0.1342
      6 C6          4.1688    4.3759   -6.6701 C.ar      1 <0>        -0.0809
      7 C7          5.4245    3.9986   -6.1905 C.ar      1 <0>        -0.1534
      8 C8          5.5698    2.7769   -5.3713 C.2       1 <0>         0.5648
      9 O1          6.6569    2.4737   -4.9198 O.2       1 <0>        -0.5011
     10 N1          4.4969    1.9993   -5.1249 N.am      1 <0>        -0.6734
     11 C9          4.6109    0.9059   -4.2685 C.ar      1 <0>         0.1907
     12 C10         5.7996    0.1842   -4.2184 C.ar      1 <0>        -0.1308
     13 C11         5.9155   -0.8964   -3.3735 C.ar      1 <0>        -0.0286
     14 C12         4.8375   -1.2685   -2.5654 C.ar      1 <0>        -0.1739
     15 C13         3.6431   -0.5447   -2.6221 C.ar      1 <0>        -0.0741
     16 C14         3.5355    0.5378   -3.4656 C.ar      1 <0>        -0.1588
     17 C15         4.9580   -2.4266   -1.6590 C.2       1 <0>         0.5677
     18 O2          5.7925   -3.2840   -1.8757 O.2       1 <0>        -0.4966
     19 N2          4.1430   -2.5340   -0.5909 N.am      1 <0>        -0.5712
     20 C16         4.1761   -3.7412    0.2401 C.3       1 <0>         0.1037
     21 C17         3.2530   -4.7761   -0.4071 C.3       1 <0>        -0.1373
     22 C18         2.1083   -4.0135   -1.0989 C.3       1 <0>        -0.1372
     23 C19         1.3653   -3.1662   -0.0667 C.3       1 <0>         0.0892
     24 H1          1.4525   -3.6373    0.9124 H         1 <0>         0.1433
     25 C20         1.9355   -1.7726    0.0025 C.ar      1 <0>        -0.1623
     26 C21         3.2658   -1.4970   -0.2737 C.ar      1 <0>         0.1866
     27 C22         3.7343   -0.1897   -0.2289 C.ar      1 <0>        -0.1068
     28 C23         2.8770    0.8410    0.1019 C.ar      1 <0>        -0.0768
     29 C24         1.5523    0.5672    0.3885 C.ar      1 <0>        -0.1044
     30 C25         1.0845   -0.7311    0.3395 C.ar      1 <0>        -0.1201
     31 C26        -0.2098   -2.6528   -1.8324 C.3       1 <0>        -0.0500
     32 C27        -0.7290   -4.3728   -0.2093 C.3       1 <0>        -0.0463
     33 H2          8.3266    3.6146   -6.6425 H         1 <0>         0.0772
     34 H3          8.5576    5.2454   -5.9675 H         1 <0>         0.0637
     35 H4          7.8095    3.9699   -4.9767 H         1 <0>         0.0998
     36 H5          7.2651    6.5187   -7.4936 H         1 <0>         0.1344
     37 H6          5.0464    7.1793   -8.3252 H         1 <0>         0.1324
     38 H7          3.0682    5.8146   -7.7989 H         1 <0>         0.1320
     39 H8          3.3000    3.7759   -6.4431 H         1 <0>         0.1234
     40 H9          3.6455    2.2007   -5.5436 H         1 <0>         0.4137
     41 H10         6.6321    0.4720   -4.8433 H         1 <0>         0.1540
     42 H11         6.8383   -1.4563   -3.3353 H         1 <0>         0.1412
     43 H12         2.8068   -0.8323   -2.0023 H         1 <0>         0.1358
     44 H13         2.6142    1.0998   -3.5071 H         1 <0>         0.1320
     45 H14         5.1931   -4.1306    0.2860 H         1 <0>         0.1062
     46 H15         3.8231   -3.5082    1.2447 H         1 <0>         0.0897
     47 H16         3.8081   -5.3571   -1.1436 H         1 <0>         0.0947
     48 H17         2.8477   -5.4391    0.3572 H         1 <0>         0.0898
     49 H18         2.5190   -3.3656   -1.8732 H         1 <0>         0.0942
     50 H19         1.4174   -4.7258   -1.5498 H         1 <0>         0.0897
     51 H20         4.7696    0.0206   -0.4533 H         1 <0>         0.1418
     52 H21         3.2398    1.8576    0.1362 H         1 <0>         0.1427
     53 H22         0.8802    1.3720    0.6472 H         1 <0>         0.1400
     54 H23         0.0485   -0.9366    0.5650 H         1 <0>         0.1203
     55 H24         0.1998   -3.4122   -2.4984 H         1 <0>         0.1252
     56 H25        -1.2678   -2.5094   -2.0520 H         1 <0>         0.1252
     57 H26         0.3227   -1.7134   -1.9813 H         1 <0>         0.1207
     58 H27        -0.6579   -4.6377    0.8456 H         1 <0>         0.1234
     59 H28        -1.7781   -4.2874   -0.4926 H         1 <0>         0.1264
     60 H29        -0.2520   -5.1464   -0.8111 H         1 <0>         0.1249
     61 N3         -0.0662   -3.0688   -0.4214 N.4       1 <0>        -0.3974
     62 H30        -0.5119   -2.3664    0.1804 H         1 <0>         0.4271
@<TRIPOS>BOND
     1    1    2 1
     2    1   33 1
     3    1   34 1
     4    1   35 1
     5    2    7 ar
     6    2    3 ar
     7    3    4 ar
     8    3   36 1
     9    4    5 ar
    10    4   37 1
    11    5    6 ar
    12    5   38 1
    13    6    7 ar
    14    6   39 1
    15    7    8 1
    16    8    9 2
    17    8   10 am
    18   10   11 1
    19   10   40 1
    20   11   16 ar
    21   11   12 ar
    22   12   13 ar
    23   12   41 1
    24   13   14 ar
    25   13   42 1
    26   14   15 ar
    27   14   17 1
    28   15   16 ar
    29   15   43 1
    30   16   44 1
    31   17   18 2
    32   17   19 am
    33   19   26 1
    34   19   20 1
    35   20   21 1
    36   20   45 1
    37   20   46 1
    38   21   22 1
    39   21   47 1
    40   21   48 1
    41   22   23 1
    42   22   49 1
    43   22   50 1
    44   23   24 1
    45   23   25 1
    46   23   61 1
    47   25   30 ar
    48   25   26 ar
    49   26   27 ar
    50   27   28 ar
    51   27   51 1
    52   28   29 ar
    53   28   52 1
    54   29   30 ar
    55   29   53 1
    56   30   54 1
    57   31   55 1
    58   31   56 1
    59   31   57 1
    60   31   61 1
    61   32   58 1
    62   32   59 1
    63   32   60 1
    64   32   61 1
    65   61   62 1
@<TRIPOS>MOLECULE
ZINC00600399
   55    59     0     0     0
SMALL
USER_CHARGES
N-(3-chloro-4-BLAHylcarbonyl-phenyl)-5-fluoro-2-methyl-benzamide
@<TRIPOS>ATOM
      1 C1          1.5555    0.8403    2.5692 C.3       1 <0>        -0.1239
      2 C2          1.8904    1.9652    1.6240 C.ar      1 <0>        -0.0252
      3 C3          2.9911    2.7626    1.8613 C.ar      1 <0>        -0.0994
      4 C4          3.3012    3.7953    0.9953 C.ar      1 <0>        -0.1158
      5 C5          2.5094    4.0363   -0.1165 C.ar      1 <0>         0.0883
      6 C6          1.4076    3.2415   -0.3678 C.ar      1 <0>        -0.1171
      7 C7          1.0878    2.2016    0.5068 C.ar      1 <0>        -0.1188
      8 C8         -0.0927    1.3506    0.2477 C.2       1 <0>         0.5656
      9 O1         -0.2939    0.3659    0.9314 O.2       1 <0>        -0.4971
     10 N1         -0.9429    1.6634   -0.7503 N.am      1 <0>        -0.6689
     11 C9         -2.1025    0.9138   -0.9383 C.ar      1 <0>         0.1847
     12 C10        -2.0850   -0.4602   -0.7144 C.ar      1 <0>        -0.1168
     13 C11        -3.2292   -1.2033   -0.8933 C.ar      1 <0>        -0.0502
     14 C12        -4.4083   -0.5792   -1.3117 C.ar      1 <0>        -0.1371
     15 C13        -4.4216    0.8006   -1.5414 C.ar      1 <0>         0.0287
     16 C14        -3.2728    1.5392   -1.3545 C.ar      1 <0>        -0.1421
     17 Cl1        -5.8822    1.5814   -2.0616 Cl        1 <0>        -0.0366
     18 C15        -5.6351   -1.3735   -1.5099 C.2       1 <0>         0.5672
     19 O2         -6.2818   -1.2486   -2.5320 O.2       1 <0>        -0.4952
     20 N2         -6.0393   -2.2379   -0.5580 N.am      1 <0>        -0.5631
     21 C16        -7.1888   -3.0899   -0.8094 C.3       1 <0>         0.1840
     22 C17        -6.7974   -4.5506   -0.8257 C.2       1 <0>         0.0092
     23 C18        -7.6481   -5.5326   -1.2184 C.2       1 <0>        -0.1974
     24 C19        -6.9821   -6.7592   -1.0543 C.2       1 <0>        -0.1838
     25 C20        -5.7547   -6.4858   -0.5799 C.2       1 <0>        -0.0265
     26 N3         -5.6271   -5.1210   -0.4542 N.pl3     1 <0>        -0.4333
     27 C21        -4.3851   -4.4990   -0.0007 C.3       1 <0>         0.1483
     28 C22        -4.6186   -3.4101    1.0089 C.ar      1 <0>        -0.1166
     29 C23        -5.3530   -2.2945    0.6485 C.ar      1 <0>         0.1481
     30 C24        -5.4182   -1.2098    1.5210 C.ar      1 <0>        -0.1138
     31 C25        -4.8011   -1.2765    2.7534 C.ar      1 <0>        -0.0928
     32 C26        -4.1208   -2.4199    3.1299 C.ar      1 <0>        -0.1096
     33 C27        -4.0309   -3.4885    2.2561 C.ar      1 <0>        -0.0861
     34 F1          2.8182    5.0469   -0.9582 F         1 <0>        -0.1331
     35 H1          1.9599   -0.0940    2.1799 H         1 <0>         0.0809
     36 H2          1.9914    1.0454    3.5470 H         1 <0>         0.0643
     37 H3          0.4729    0.7559    2.6645 H         1 <0>         0.0960
     38 H4          3.6125    2.5795    2.7255 H         1 <0>         0.1445
     39 H5          4.1639    4.4164    1.1859 H         1 <0>         0.1445
     40 H6          0.7933    3.4265   -1.2366 H         1 <0>         0.1391
     41 H7         -0.7476    2.4102   -1.3376 H         1 <0>         0.4149
     42 H8         -1.1730   -0.9429   -0.3958 H         1 <0>         0.1521
     43 H9         -3.2153   -2.2684   -0.7150 H         1 <0>         0.1350
     44 H10        -3.2814    2.6045   -1.5319 H         1 <0>         0.1459
     45 H11        -7.9307   -2.9262   -0.0279 H         1 <0>         0.0904
     46 H12        -7.6242   -2.8250   -1.7729 H         1 <0>         0.1204
     47 H13        -8.6533   -5.3962   -1.5891 H         1 <0>         0.1384
     48 H14        -7.3821   -7.7391   -1.2692 H         1 <0>         0.1383
     49 H15        -4.9956   -7.2148   -0.3378 H         1 <0>         0.1622
     50 H16        -3.8682   -4.0758   -0.8619 H         1 <0>         0.0831
     51 H17        -3.7525   -5.2651    0.4476 H         1 <0>         0.1037
     52 H18        -5.9517   -0.3163    1.2323 H         1 <0>         0.1268
     53 H19        -4.8497   -0.4329    3.4261 H         1 <0>         0.1307
     54 H20        -3.6605   -2.4787    4.1052 H         1 <0>         0.1321
     55 H21        -3.5012   -4.3830    2.5488 H         1 <0>         0.1327
@<TRIPOS>BOND
     1    1    2 1
     2    1   35 1
     3    1   36 1
     4    1   37 1
     5    2    7 ar
     6    2    3 ar
     7    3    4 ar
     8    3   38 1
     9    4    5 ar
    10    4   39 1
    11    5    6 ar
    12    5   34 1
    13    6    7 ar
    14    6   40 1
    15    7    8 1
    16    8    9 2
    17    8   10 am
    18   10   11 1
    19   10   41 1
    20   11   16 ar
    21   11   12 ar
    22   12   13 ar
    23   12   42 1
    24   13   14 ar
    25   13   43 1
    26   14   15 ar
    27   14   18 1
    28   15   16 ar
    29   15   17 1
    30   16   44 1
    31   18   19 2
    32   18   20 am
    33   20   29 1
    34   20   21 1
    35   21   22 1
    36   21   45 1
    37   21   46 1
    38   22   26 1
    39   22   23 2
    40   23   24 1
    41   23   47 1
    42   24   25 2
    43   24   48 1
    44   25   26 1
    45   25   49 1
    46   26   27 1
    47   27   28 1
    48   27   50 1
    49   27   51 1
    50   28   33 ar
    51   28   29 ar
    52   29   30 ar
    53   30   31 ar
    54   30   52 1
    55   31   32 ar
    56   31   53 1
    57   32   33 ar
    58   32   54 1
    59   33   55 1
