@<TRIPOS>MOLECULE
ZINC03804565
   62    65     0     0     0
SMALL
USER_CHARGES
N-[4-[(2-dimethylamino-6-azabicyclo[5.4.0]undeca-7,9,11-trien-6-yl)carbonyl]phenyl]-2-methyl-benzamide
@<TRIPOS>ATOM
      1 C1         13.0155    2.6092    3.0163 C.3       1 <0>        -0.1295
      2 C2         13.1960    3.6861    1.9777 C.ar      1 <0>        -0.0152
      3 C3         14.1618    4.6565    2.1486 C.ar      1 <0>        -0.1304
      4 C4         14.3294    5.6454    1.1958 C.ar      1 <0>        -0.0782
      5 C5         13.5308    5.6686    0.0658 C.ar      1 <0>        -0.1327
      6 C6         12.5645    4.7019   -0.1194 C.ar      1 <0>        -0.0800
      7 C7         12.3868    3.7040    0.8406 C.ar      1 <0>        -0.1538
      8 C8         11.3505    2.6673    0.6507 C.2       1 <0>         0.5670
      9 O1         11.1940    1.8033    1.4912 O.2       1 <0>        -0.5073
     10 N1         10.5753    2.6834   -0.4517 N.am      1 <0>        -0.6731
     11 C9          9.6535    1.6614   -0.6703 C.ar      1 <0>         0.1893
     12 C10         9.9414    0.3657   -0.2522 C.ar      1 <0>        -0.1303
     13 C11         9.0306   -0.6450   -0.4615 C.ar      1 <0>        -0.1237
     14 C12         7.8203   -0.3708   -1.1045 C.ar      1 <0>        -0.1643
     15 C13         7.5367    0.9305   -1.5282 C.ar      1 <0>        -0.0308
     16 C14         8.4496    1.9377   -1.3112 C.ar      1 <0>        -0.1521
     17 C15         6.8442   -1.4530   -1.3360 C.2       1 <0>         0.5691
     18 O2          5.6672   -1.1880   -1.4873 O.2       1 <0>        -0.5061
     19 N2          7.2574   -2.7351   -1.3797 N.am      1 <0>        -0.5685
     20 C16         8.6242   -3.0818   -0.9792 C.3       1 <0>         0.0622
     21 C17         8.6331   -3.2686    0.5396 C.3       1 <0>        -0.1611
     22 C18         7.2536   -3.8152    0.9508 C.3       1 <0>        -0.1370
     23 C19         6.9896   -5.1343    0.2257 C.3       1 <0>         0.0901
     24 H1          7.9408   -5.6219    0.0123 H         1 <0>         0.1424
     25 C20         6.2512   -4.9022   -1.0678 C.ar      1 <0>        -0.1551
     26 C21         6.3843   -3.7380   -1.8005 C.ar      1 <0>         0.1924
     27 C22         5.6591   -3.5616   -2.9770 C.ar      1 <0>        -0.1001
     28 C23         4.8109   -4.5570   -3.4200 C.ar      1 <0>        -0.0759
     29 C24         4.6885   -5.7279   -2.6949 C.ar      1 <0>        -0.1072
     30 C25         5.4030   -5.8993   -1.5259 C.ar      1 <0>        -0.1215
     31 C26         6.9758   -6.5014    2.2241 C.3       1 <0>        -0.0460
     32 C27         4.9738   -5.3153    1.5548 C.3       1 <0>        -0.0497
     33 H2         13.5598    1.7154    2.7113 H         1 <0>         0.0754
     34 H3         13.4002    2.9598    3.9740 H         1 <0>         0.0625
     35 H4         11.9559    2.3733    3.1148 H         1 <0>         0.0992
     36 H5         14.7886    4.6439    3.0280 H         1 <0>         0.1337
     37 H6         15.0871    6.4024    1.3342 H         1 <0>         0.1324
     38 H7         13.6670    6.4431   -0.6744 H         1 <0>         0.1329
     39 H8         11.9446    4.7188   -1.0037 H         1 <0>         0.1251
     40 H9         10.6590    3.4064   -1.0929 H         1 <0>         0.4152
     41 H10        10.8787    0.1537    0.2407 H         1 <0>         0.1455
     42 H11         9.2526   -1.6495   -0.1325 H         1 <0>         0.1785
     43 H12         6.6025    1.1456   -2.0257 H         1 <0>         0.1404
     44 H13         8.2311    2.9435   -1.6383 H         1 <0>         0.1385
     45 H14         8.9281   -4.0080   -1.4669 H         1 <0>         0.0948
     46 H15         9.3053   -2.2771   -1.2562 H         1 <0>         0.1329
     47 H16         9.4108   -3.9791    0.8201 H         1 <0>         0.0983
     48 H17         8.8122   -2.3112    1.0288 H         1 <0>         0.1090
     49 H18         7.2357   -3.9828    2.0276 H         1 <0>         0.0919
     50 H19         6.4824   -3.0930    0.6830 H         1 <0>         0.0984
     51 H20         5.7579   -2.6461   -3.5412 H         1 <0>         0.1380
     52 H21         4.2449   -4.4214   -4.3298 H         1 <0>         0.1418
     53 H22         4.0315   -6.5109   -3.0438 H         1 <0>         0.1387
     54 H23         5.3010   -6.8163   -0.9645 H         1 <0>         0.1185
     55 H24         7.2372   -5.6677    2.8758 H         1 <0>         0.1246
     56 H25         6.3916   -7.2313    2.7845 H         1 <0>         0.1260
     57 H26         7.8863   -6.9722    1.8534 H         1 <0>         0.1230
     58 H27         4.3312   -5.0950    0.7024 H         1 <0>         0.1224
     59 H28         4.4384   -5.9529    2.2583 H         1 <0>         0.1251
     60 H29         5.2541   -4.3848    2.0485 H         1 <0>         0.1245
     61 N3          6.1755   -6.0295    1.0745 N.4       1 <0>        -0.3972
     62 H30         5.8812   -6.8404    0.5177 H         1 <0>         0.4273
@<TRIPOS>BOND
     1    1    2 1
     2    1   33 1
     3    1   34 1
     4    1   35 1
     5    2    7 ar
     6    2    3 ar
     7    3    4 ar
     8    3   36 1
     9    4    5 ar
    10    4   37 1
    11    5    6 ar
    12    5   38 1
    13    6    7 ar
    14    6   39 1
    15    7    8 1
    16    8    9 2
    17    8   10 am
    18   10   11 1
    19   10   40 1
    20   11   16 ar
    21   11   12 ar
    22   12   13 ar
    23   12   41 1
    24   13   14 ar
    25   13   42 1
    26   14   15 ar
    27   14   17 1
    28   15   16 ar
    29   15   43 1
    30   16   44 1
    31   17   18 2
    32   17   19 am
    33   19   26 1
    34   19   20 1
    35   20   21 1
    36   20   45 1
    37   20   46 1
    38   21   22 1
    39   21   47 1
    40   21   48 1
    41   22   23 1
    42   22   49 1
    43   22   50 1
    44   23   24 1
    45   23   25 1
    46   23   61 1
    47   25   30 ar
    48   25   26 ar
    49   26   27 ar
    50   27   28 ar
    51   27   51 1
    52   28   29 ar
    53   28   52 1
    54   29   30 ar
    55   29   53 1
    56   30   54 1
    57   31   55 1
    58   31   56 1
    59   31   57 1
    60   31   61 1
    61   32   58 1
    62   32   59 1
    63   32   60 1
    64   32   61 1
    65   61   62 1
@<TRIPOS>MOLECULE
ZINC06071859
   62    65     0     0     0
SMALL
USER_CHARGES
N-[4-[(2-dimethylamino-6-azabicyclo[5.4.0]undeca-7,9,11-trien-6-yl)carbonyl]phenyl]-2-methyl-benzamide
@<TRIPOS>ATOM
      1 C1          7.9033    4.3738   -5.9848 C.3       1 <0>        -0.1316
      2 C2          6.5430    4.7768   -6.4929 C.ar      1 <0>        -0.0129
      3 C3          6.4005    5.9158   -7.2586 C.ar      1 <0>        -0.1294
      4 C4          5.1525    6.2869   -7.7263 C.ar      1 <0>        -0.0782
      5 C5          4.0396    5.5195   -7.4305 C.ar      1 <0>        -0.1342
      6 C6          4.1688    4.3759   -6.6701 C.ar      1 <0>        -0.0809
      7 C7          5.4245    3.9986   -6.1905 C.ar      1 <0>        -0.1534
      8 C8          5.5698    2.7769   -5.3713 C.2       1 <0>         0.5648
      9 O1          6.6569    2.4737   -4.9198 O.2       1 <0>        -0.5011
     10 N1          4.4969    1.9993   -5.1249 N.am      1 <0>        -0.6734
     11 C9          4.6109    0.9059   -4.2685 C.ar      1 <0>         0.1907
     12 C10         5.7996    0.1842   -4.2184 C.ar      1 <0>        -0.1308
     13 C11         5.9155   -0.8964   -3.3735 C.ar      1 <0>        -0.0286
     14 C12         4.8375   -1.2685   -2.5654 C.ar      1 <0>        -0.1739
     15 C13         3.6431   -0.5447   -2.6221 C.ar      1 <0>        -0.0741
     16 C14         3.5355    0.5378   -3.4656 C.ar      1 <0>        -0.1588
     17 C15         4.9580   -2.4266   -1.6590 C.2       1 <0>         0.5677
     18 O2          5.7925   -3.2840   -1.8757 O.2       1 <0>        -0.4966
     19 N2          4.1430   -2.5340   -0.5909 N.am      1 <0>        -0.5712
     20 C16         4.1761   -3.7412    0.2401 C.3       1 <0>         0.1037
     21 C17         3.2530   -4.7761   -0.4071 C.3       1 <0>        -0.1373
     22 C18         2.1083   -4.0135   -1.0989 C.3       1 <0>        -0.1372
     23 C19         1.3653   -3.1662   -0.0667 C.3       1 <0>         0.0892
     24 H1          1.4525   -3.6373    0.9124 H         1 <0>         0.1433
     25 C20         1.9355   -1.7726    0.0025 C.ar      1 <0>        -0.1623
     26 C21         3.2658   -1.4970   -0.2737 C.ar      1 <0>         0.1866
     27 C22         3.7343   -0.1897   -0.2289 C.ar      1 <0>        -0.1068
     28 C23         2.8770    0.8410    0.1019 C.ar      1 <0>        -0.0768
     29 C24         1.5523    0.5672    0.3885 C.ar      1 <0>        -0.1044
     30 C25         1.0845   -0.7311    0.3395 C.ar      1 <0>        -0.1201
     31 C26        -0.2098   -2.6528   -1.8324 C.3       1 <0>        -0.0500
     32 C27        -0.7290   -4.3728   -0.2093 C.3       1 <0>        -0.0463
     33 H2          8.3266    3.6146   -6.6425 H         1 <0>         0.0772
     34 H3          8.5576    5.2454   -5.9675 H         1 <0>         0.0637
     35 H4          7.8095    3.9699   -4.9767 H         1 <0>         0.0998
     36 H5          7.2651    6.5187   -7.4936 H         1 <0>         0.1344
     37 H6          5.0464    7.1793   -8.3252 H         1 <0>         0.1324
     38 H7          3.0682    5.8146   -7.7989 H         1 <0>         0.1320
     39 H8          3.3000    3.7759   -6.4431 H         1 <0>         0.1234
     40 H9          3.6455    2.2007   -5.5436 H         1 <0>         0.4137
     41 H10         6.6321    0.4720   -4.8433 H         1 <0>         0.1540
     42 H11         6.8383   -1.4563   -3.3353 H         1 <0>         0.1412
     43 H12         2.8068   -0.8323   -2.0023 H         1 <0>         0.1358
     44 H13         2.6142    1.0998   -3.5071 H         1 <0>         0.1320
     45 H14         5.1931   -4.1306    0.2860 H         1 <0>         0.1062
     46 H15         3.8231   -3.5082    1.2447 H         1 <0>         0.0897
     47 H16         3.8081   -5.3571   -1.1436 H         1 <0>         0.0947
     48 H17         2.8477   -5.4391    0.3572 H         1 <0>         0.0898
     49 H18         2.5190   -3.3656   -1.8732 H         1 <0>         0.0942
     50 H19         1.4174   -4.7258   -1.5498 H         1 <0>         0.0897
     51 H20         4.7696    0.0206   -0.4533 H         1 <0>         0.1418
     52 H21         3.2398    1.8576    0.1362 H         1 <0>         0.1427
     53 H22         0.8802    1.3720    0.6472 H         1 <0>         0.1400
     54 H23         0.0485   -0.9366    0.5650 H         1 <0>         0.1203
     55 H24         0.1998   -3.4122   -2.4984 H         1 <0>         0.1252
     56 H25        -1.2678   -2.5094   -2.0520 H         1 <0>         0.1252
     57 H26         0.3227   -1.7134   -1.9813 H         1 <0>         0.1207
     58 H27        -0.6579   -4.6377    0.8456 H         1 <0>         0.1234
     59 H28        -1.7781   -4.2874   -0.4926 H         1 <0>         0.1264
     60 H29        -0.2520   -5.1464   -0.8111 H         1 <0>         0.1249
     61 N3         -0.0662   -3.0688   -0.4214 N.4       1 <0>        -0.3974
     62 H30        -0.5119   -2.3664    0.1804 H         1 <0>         0.4271
@<TRIPOS>BOND
     1    1    2 1
     2    1   33 1
     3    1   34 1
     4    1   35 1
     5    2    7 ar
     6    2    3 ar
     7    3    4 ar
     8    3   36 1
     9    4    5 ar
    10    4   37 1
    11    5    6 ar
    12    5   38 1
    13    6    7 ar
    14    6   39 1
    15    7    8 1
    16    8    9 2
    17    8   10 am
    18   10   11 1
    19   10   40 1
    20   11   16 ar
    21   11   12 ar
    22   12   13 ar
    23   12   41 1
    24   13   14 ar
    25   13   42 1
    26   14   15 ar
    27   14   17 1
    28   15   16 ar
    29   15   43 1
    30   16   44 1
    31   17   18 2
    32   17   19 am
    33   19   26 1
    34   19   20 1
    35   20   21 1
    36   20   45 1
    37   20   46 1
    38   21   22 1
    39   21   47 1
    40   21   48 1
    41   22   23 1
    42   22   49 1
    43   22   50 1
    44   23   24 1
    45   23   25 1
    46   23   61 1
    47   25   30 ar
    48   25   26 ar
    49   26   27 ar
    50   27   28 ar
    51   27   51 1
    52   28   29 ar
    53   28   52 1
    54   29   30 ar
    55   29   53 1
    56   30   54 1
    57   31   55 1
    58   31   56 1
    59   31   57 1
    60   31   61 1
    61   32   58 1
    62   32   59 1
    63   32   60 1
    64   32   61 1
    65   61   62 1
@<TRIPOS>MOLECULE
ZINC40849222
   58    61     0     0     0
SMALL
USER_CHARGES

@<TRIPOS>ATOM
      1 C1          0.7442    0.1383    0.0777 C.3       1 <0>        -0.1217
      2 C2          0.8801   -1.3367    0.3546 C.ar      1 <0>        -0.0669
      3 C3          1.0635   -2.2221   -0.6885 C.ar      1 <0>        -0.1169
      4 C4          1.1889   -3.5760   -0.4357 C.ar      1 <0>        -0.1089
      5 C5          1.1314   -4.0508    0.8624 C.ar      1 <0>        -0.1237
      6 C6          0.9479   -3.1746    1.9127 C.ar      1 <0>        -0.1010
      7 C7          0.8267   -1.8088    1.6643 C.ar      1 <0>        -0.0526
      8 C8          0.6354   -0.8612    2.7902 C.ar      1 <0>        -0.0878
      9 C9         -0.3427   -1.0987    3.7598 C.ar      1 <0>        -0.0641
     10 C10        -0.4815   -0.1847    4.7899 C.ar      1 <0>        -0.1656
     11 C11         0.3445    0.9241    4.8264 C.ar      1 <0>         0.1045
     12 N1          1.2586    1.1217    3.8965 N.ar      1 <0>        -0.4545
     13 C12         1.4316    0.2764    2.9009 C.ar      1 <0>         0.1185
     14 C13         0.1973    1.9222    5.9459 C.3       1 <0>         0.1571
     15 N2          1.1526    1.6061    7.0107 N.pl3     1 <0>        -0.9284
     16 C14         2.4662    2.0841    6.9371 C.ar      1 <0>         0.0664
     17 C15         3.5408    1.1966    6.9263 C.ar      1 <0>        -0.0426
     18 C16         4.8216    1.7141    6.8520 C.ar      1 <0>        -0.1681
     19 C17         4.9933    3.0910    6.7912 C.ar      1 <0>         0.3209
     20 N3          3.9511    3.9041    6.8040 N.ar      1 <0>        -0.5245
     21 C18         2.7149    3.4467    6.8682 C.ar      1 <0>         0.1539
     22 O1          6.2466    3.6081    6.7182 O.3       1 <0>        -0.3068
     23 C19         6.3587    5.0315    6.6581 C.3       1 <0>         0.0393
     24 S1          0.6784    0.6832    8.3013 S.o2      1 <0>         2.7151
     25 O2          1.4633    1.1012    9.4097 O.2       1 <0>        -0.9239
     26 O3         -0.7422    0.7109    8.3202 O.2       1 <0>        -0.9458
     27 C20         1.1451   -0.9796    7.9522 C.2       1 <0>        -0.5619
     28 C21         0.3919   -1.8956    7.3141 C.2       1 <0>         0.0725
     29 N4          1.1319   -3.0457    7.2558 N.pl3     1 <0>        -0.4479
     30 C22         2.3123   -2.7923    7.8608 C.2       1 <0>         0.2150
     31 N5          2.3150   -1.5532    8.2704 N.2       1 <0>        -0.4108
     32 C23         3.4416   -3.7757    8.0298 C.3       1 <0>        -0.0729
     33 C24         0.7201   -4.3145    6.6502 C.3       1 <0>         0.0615
     34 H1          1.7301    0.6030    0.0918 H         1 <0>         0.0750
     35 H2          0.2880    0.2837   -0.9015 H         1 <0>         0.0704
     36 H3          0.1162    0.5952    0.8426 H         1 <0>         0.0681
     37 H4          1.1088   -1.8568   -1.7038 H         1 <0>         0.1266
     38 H5          1.3319   -4.2652   -1.2548 H         1 <0>         0.1251
     39 H6          1.2299   -5.1090    1.0542 H         1 <0>         0.1245
     40 H7          0.9029   -3.5464    2.9257 H         1 <0>         0.1181
     41 H8         -0.9745   -1.9730    3.7065 H         1 <0>         0.1360
     42 H9         -1.2270   -0.3354    5.5567 H         1 <0>         0.1404
     43 H10         2.1943    0.4699    2.1610 H         1 <0>         0.1575
     44 H11         0.3945    2.9250    5.5668 H         1 <0>         0.1119
     45 H12        -0.8170    1.8765    6.3424 H         1 <0>         0.1216
     46 H13         3.3775    0.1301    6.9750 H         1 <0>         0.1452
     47 H14         5.6775    1.0556    6.8419 H         1 <0>         0.1456
     48 H15         1.8879    4.1413    6.8716 H         1 <0>         0.1640
     49 H16         7.4108    5.3111    6.6028 H         1 <0>         0.0964
     50 H17         5.8379    5.3999    5.7743 H         1 <0>         0.0596
     51 H18         5.9129    5.4691    7.5513 H         1 <0>         0.0605
     52 H19        -0.6046   -1.7507    6.9237 H         1 <0>         0.1902
     53 H20         4.1102   -3.7122    7.1713 H         1 <0>         0.0861
     54 H21         3.9947   -3.5410    8.9393 H         1 <0>         0.0977
     55 H22         3.0367   -4.7852    8.1011 H         1 <0>         0.0776
     56 H23         1.0148   -4.3288    5.6009 H         1 <0>         0.0847
     57 H24         1.2016   -5.1403    7.1741 H         1 <0>         0.0962
     58 H25        -0.3623   -4.4185    6.7251 H         1 <0>         0.0939
@<TRIPOS>BOND
     1    1    2 1
     2    1   34 1
     3    1   35 1
     4    1   36 1
     5    2    7 ar
     6    2    3 ar
     7    3    4 ar
     8    3   37 1
     9    4    5 ar
    10    4   38 1
    11    5    6 ar
    12    5   39 1
    13    6    7 ar
    14    6   40 1
    15    7    8 1
    16    8   13 ar
    17    8    9 ar
    18    9   10 ar
    19    9   41 1
    20   10   11 ar
    21   10   42 1
    22   11   12 ar
    23   11   14 1
    24   12   13 ar
    25   13   43 1
    26   14   15 1
    27   14   44 1
    28   14   45 1
    29   15   16 1
    30   15   24 1
    31   16   21 ar
    32   16   17 ar
    33   17   18 ar
    34   17   46 1
    35   18   19 ar
    36   18   47 1
    37   19   20 ar
    38   19   22 1
    39   20   21 ar
    40   21   48 1
    41   22   23 1
    42   23   49 1
    43   23   50 1
    44   23   51 1
    45   24   25 2
    46   24   26 2
    47   24   27 1
    48   27   31 1
    49   27   28 2
    50   28   29 1
    51   28   52 1
    52   29   30 1
    53   29   33 1
    54   30   31 2
    55   30   32 1
    56   32   53 1
    57   32   54 1
    58   32   55 1
    59   33   56 1
    60   33   57 1
    61   33   58 1
