@<TRIPOS>MOLECULE
ZINC19594549
   40    42     0     0     0
SMALL
USER_CHARGES

@<TRIPOS>ATOM
      1 C1          0.1516    1.8107   -0.1429 C.3       1 <0>        -0.1677
      2 C2          0.0601    0.2844   -0.0912 C.3       1 <0>         0.0983
      3 N1          0.7263   -0.2848   -1.2653 N.pl3     1 <0>        -0.4782
      4 C3          0.0046   -0.4877   -2.3746 C.2       1 <0>         0.1495
      5 C4          0.5550   -1.0198   -3.5243 C.2       1 <0>        -0.2752
      6 C5          1.9854   -1.3751   -3.5265 C.2       1 <0>         0.4138
      7 O1          2.5216   -1.8473   -4.5139 O.2       1 <0>        -0.4294
      8 C6          2.7382   -1.1347   -2.2857 C.ar      1 <0>        -0.2035
      9 C7          2.0674   -0.5821   -1.1805 C.ar      1 <0>         0.3959
     10 N2          2.7336   -0.3547   -0.0551 N.ar      1 <0>        -0.5129
     11 C8          4.0225   -0.6311    0.0545 C.ar      1 <0>         0.3849
     12 C9          4.7443   -1.1760   -1.0119 C.ar      1 <0>         0.0025
     13 C10         4.1011   -1.4409   -2.1922 C.ar      1 <0>        -0.0140
     14 F1          6.0604   -1.4490   -0.8760 F         1 <0>        -0.1276
     15 N3          4.6713   -0.3747    1.2515 N.pl3     1 <0>        -0.6584
     16 C11         5.3059    0.9282    1.5039 C.3       1 <0>         0.1212
     17 C12         4.8234    1.4485    2.8620 C.3       1 <0>        -0.0231
     18 N4          5.0850    0.4370    3.8936 N.4       1 <0>        -0.5016
     19 C13         4.2887   -0.7674    3.6264 C.3       1 <0>        -0.0226
     20 C14         4.7399   -1.3956    2.3085 C.3       1 <0>         0.1205
     21 C15        -0.2685   -1.2277   -4.7201 C.2       1 <0>         0.5344
     22 O2         -1.4554   -0.9289   -4.7053 O.co2     1 <0>        -0.6939
     23 O3          0.2312   -1.7000   -5.7328 O.co2     1 <0>        -0.6570
     24 H1          1.1992    2.1120   -0.1479 H         1 <0>         0.0565
     25 H2         -0.3350    2.1735   -1.0483 H         1 <0>         0.0670
     26 H3         -0.3440    2.2343    0.7306 H         1 <0>         0.0721
     27 H4          0.5468   -0.0783    0.8142 H         1 <0>         0.0931
     28 H5         -0.9874   -0.0168   -0.0863 H         1 <0>         0.0941
     29 H6         -1.0434   -0.2268   -2.3702 H         1 <0>         0.1795
     30 H7          4.6340   -1.8619   -3.0319 H         1 <0>         0.1658
     31 H8          6.3894    0.8108    1.5206 H         1 <0>         0.0874
     32 H9          5.0228    1.6314    0.7207 H         1 <0>         0.1163
     33 H10         5.3563    2.3665    3.1097 H         1 <0>         0.1401
     34 H11         3.7534    1.6508    2.8144 H         1 <0>         0.1354
     35 H12         6.0654    0.1985    3.8882 H         1 <0>         0.4269
     36 H13         4.4277   -1.4823    4.4374 H         1 <0>         0.1406
     37 H14         3.2349   -0.4981    3.5557 H         1 <0>         0.1351
     38 H15         4.0827   -2.2280    2.0569 H         1 <0>         0.1166
     39 H16         5.7653   -1.7517    2.4078 H         1 <0>         0.0870
     40 H17         4.8369    0.8089    4.7982 H         1 <0>         0.4304
@<TRIPOS>BOND
     1    1    2 1
     2    1   24 1
     3    1   25 1
     4    1   26 1
     5    2    3 1
     6    2   27 1
     7    2   28 1
     8    3    9 1
     9    3    4 1
    10    4    5 2
    11    4   29 1
    12    5    6 1
    13    5   21 1
    14    6    7 2
    15    6    8 1
    16    8   13 ar
    17    8    9 ar
    18    9   10 ar
    19   10   11 ar
    20   11   12 ar
    21   11   15 1
    22   12   13 ar
    23   12   14 1
    24   13   30 1
    25   15   20 1
    26   15   16 1
    27   16   17 1
    28   16   31 1
    29   16   32 1
    30   17   18 1
    31   17   33 1
    32   17   34 1
    33   18   19 1
    34   18   35 1
    35   18   40 1
    36   19   20 1
    37   19   36 1
    38   19   37 1
    39   20   38 1
    40   20   39 1
    41   21   22 2
    42   21   23 1
