@<TRIPOS>MOLECULE
ZINC03989259
   57    59     0     0     0
SMALL
USER_CHARGES

@<TRIPOS>ATOM
      1 C1          4.7940    1.4748   -1.9580 C.3       1 <0>        -0.1866
      2 C2          5.1782    0.4845   -0.8568 C.3       1 <0>        -0.0173
      3 C3          6.5990    2.1351    0.2012 C.3       1 <0>        -0.0111
      4 C4          7.8882    1.3271    0.0399 C.3       1 <0>        -0.1890
      5 C5          4.2763    1.9385    0.8563 C.3       1 <0>        -0.0230
      6 C6          3.2014    0.9315    1.2703 C.3       1 <0>         0.0949
      7 N1          2.0151    1.6500    1.7424 N.am      1 <0>        -0.7291
      8 C7          0.9338    0.9632    2.1616 C.2       1 <0>         0.6111
      9 O1          0.9429   -0.2527    2.1478 O.2       1 <0>        -0.5184
     10 C8         -0.2621    1.6862    2.6309 C.2       1 <0>        -0.2417
     11 C9         -1.3491    2.1107    1.8372 C.2       1 <0>        -0.0585
     12 C10        -2.2403    2.7399    2.6838 C.2       1 <0>        -0.0067
     13 N2         -1.7112    2.7111    3.9576 N.pl3     1 <0>        -0.4914
     14 H1         -2.1295    3.0867    4.7480 H         1 <0>         0.4268
     15 C11        -0.5253    2.0803    3.9303 C.2       1 <0>         0.1152
     16 C12         0.3697    1.8413    5.1189 C.3       1 <0>        -0.0999
     17 C13        -3.4736    3.3170    2.3103 C.2       1 <0>         0.0707
     18 C14        -3.9268    4.4526    2.9516 C.2       1 <0>        -0.1866
     19 C15        -5.2445    5.1082    2.7974 C.ar      1 <0>        -0.0906
     20 C16        -6.3711    4.8169    2.0348 C.ar      1 <0>        -0.0550
     21 C17        -7.4810    5.6350    2.1130 C.ar      1 <0>        -0.0537
     22 C18        -7.4734    6.7373    2.9534 C.ar      1 <0>        -0.0704
     23 C19        -6.3632    7.0298    3.7190 C.ar      1 <0>        -0.1195
     24 C20        -5.2361    6.2179    3.6532 C.ar      1 <0>         0.1435
     25 N3         -4.0089    6.2840    4.3026 N.am      1 <0>        -0.6473
     26 C21        -3.2028    5.2754    3.9301 C.2       1 <0>         0.5595
     27 O2         -2.0702    5.0781    4.3329 O.2       1 <0>        -0.5145
     28 Cl1        -8.8870    5.2828    1.1575 Cl        1 <0>        -0.0549
     29 C22        -1.5083    1.9123    0.3518 C.3       1 <0>        -0.0928
     30 H2          3.9159    2.0409   -1.6474 H         1 <0>         0.0796
     31 H3          5.6233    2.1594   -2.1365 H         1 <0>         0.0812
     32 H4          4.5692    0.9296   -2.8747 H         1 <0>         0.1075
     33 H5          6.0634   -0.0734   -1.1625 H         1 <0>         0.1329
     34 H6          4.3535   -0.2075   -0.6865 H         1 <0>         0.1314
     35 H7          6.4364    2.7416   -0.6898 H         1 <0>         0.1338
     36 H8          6.6840    2.7848    1.0723 H         1 <0>         0.1297
     37 H9          8.0650    0.7412    0.9418 H         1 <0>         0.0813
     38 H10         7.7929    0.6579   -0.8152 H         1 <0>         0.0804
     39 H11         8.7250    2.0065   -0.1219 H         1 <0>         0.1070
     40 H12         3.8925    2.5714    0.0562 H         1 <0>         0.1399
     41 H13         4.5434    2.5576    1.7128 H         1 <0>         0.1368
     42 H14         3.5853    0.2986    2.0704 H         1 <0>         0.0887
     43 H15         2.9343    0.3125    0.4138 H         1 <0>         0.0889
     44 H16         2.0079    2.6199    1.7534 H         1 <0>         0.4098
     45 H17         1.0581    2.6790    5.2297 H         1 <0>         0.0839
     46 H18        -0.2383    1.7492    6.0189 H         1 <0>         0.0780
     47 H19         0.9366    0.9226    4.9679 H         1 <0>         0.0839
     48 H20        -4.0625    2.8701    1.5230 H         1 <0>         0.1587
     49 H21        -6.3755    3.9579    1.3801 H         1 <0>         0.1412
     50 H22        -8.3447    7.3730    3.0099 H         1 <0>         0.1461
     51 H23        -6.3695    7.8913    4.3703 H         1 <0>         0.1406
     52 H24        -3.7653    6.9709    4.9427 H         1 <0>         0.4218
     53 H25        -2.0209    0.9688    0.1641 H         1 <0>         0.0783
     54 H26        -2.0935    2.7326   -0.0637 H         1 <0>         0.0725
     55 H27        -0.5256    1.8919   -0.1194 H         1 <0>         0.0632
     56 N4          5.4731    1.1989    0.4030 N.4       1 <0>        -0.3919
     57 H28         5.7338    0.5137    1.1218 H         1 <0>         0.4310
@<TRIPOS>BOND
     1    1    2 1
     2    1   30 1
     3    1   31 1
     4    1   32 1
     5    2   33 1
     6    2   34 1
     7    2   56 1
     8    3    4 1
     9    3   35 1
    10    3   36 1
    11    3   56 1
    12    4   37 1
    13    4   38 1
    14    4   39 1
    15    5    6 1
    16    5   40 1
    17    5   41 1
    18    5   56 1
    19    6    7 1
    20    6   42 1
    21    6   43 1
    22    7    8 am
    23    7   44 1
    24    8    9 2
    25    8   10 1
    26   10   15 2
    27   10   11 1
    28   11   12 2
    29   11   29 1
    30   12   13 1
    31   12   17 1
    32   13   14 1
    33   13   15 1
    34   15   16 1
    35   16   45 1
    36   16   46 1
    37   16   47 1
    38   17   18 2
    39   17   48 1
    40   18   26 1
    41   18   19 1
    42   19   24 ar
    43   19   20 ar
    44   20   21 ar
    45   20   49 1
    46   21   22 ar
    47   21   28 1
    48   22   23 ar
    49   22   50 1
    50   23   24 ar
    51   23   51 1
    52   24   25 1
    53   25   26 am
    54   25   52 1
    55   26   27 2
    56   29   53 1
    57   29   54 1
    58   29   55 1
    59   56   57 1
@<TRIPOS>MOLECULE
ZINC03989258
   55    58     0     0     0
SMALL
USER_CHARGES

@<TRIPOS>ATOM
      1 C1         -0.3067    1.0920    0.1581 C.3       1 <0>        -0.0934
      2 C2         -0.8831    1.4012    1.5157 C.2       1 <0>        -0.0571
      3 C3         -0.1735    1.6789    2.6674 C.2       1 <0>        -0.0079
      4 N1         -1.0799    1.9046    3.6827 N.pl3     1 <0>        -0.4909
      5 H1         -0.8527    2.1216    4.6004 H         1 <0>         0.4272
      6 C4         -2.3269    1.7762    3.1996 C.2       1 <0>         0.1158
      7 C5         -2.2518    1.4687    1.8531 C.2       1 <0>        -0.2424
      8 C6         -3.3892    1.2494    0.9413 C.2       1 <0>         0.6114
      9 O1         -3.8505    0.1329    0.8022 O.2       1 <0>        -0.5184
     10 N2         -3.9178    2.2864    0.2618 N.am      1 <0>        -0.7297
     11 C7         -5.0481    2.0685   -0.6443 C.3       1 <0>         0.0951
     12 C8         -5.4523    3.3981   -1.2844 C.3       1 <0>        -0.0120
     13 C9         -7.6910    2.4660   -1.5034 C.3       1 <0>        -0.0137
     14 C10        -8.9249    2.7895   -2.3827 C.3       1 <0>        -0.1471
     15 C11        -8.6747    4.2559   -2.8035 C.3       1 <0>        -0.1471
     16 C12        -7.1573    4.4661   -2.6464 C.3       1 <0>        -0.0091
     17 C13        -3.5975    1.9461    3.9920 C.3       1 <0>        -0.0997
     18 C14         1.2328    1.7236    2.7853 C.2       1 <0>         0.0735
     19 C15         1.8245    2.6161    3.6568 C.2       1 <0>        -0.1898
     20 C16         3.2552    2.6996    4.0258 C.ar      1 <0>        -0.0734
     21 C17         4.3824    1.9800    3.6416 C.ar      1 <0>        -0.1002
     22 C18         5.6168    2.3074    4.1699 C.ar      1 <0>         0.0862
     23 C19         5.7298    3.3529    5.0743 C.ar      1 <0>        -0.1140
     24 C20         4.6177    4.0755    5.4555 C.ar      1 <0>        -0.1020
     25 C21         3.3675    3.7601    4.9347 C.ar      1 <0>         0.1280
     26 N3          2.1101    4.3150    5.1462 N.am      1 <0>        -0.6464
     27 C22         1.1689    3.6844    4.4233 C.2       1 <0>         0.5597
     28 O2         -0.0194    3.9517    4.4065 O.2       1 <0>        -0.5162
     29 F1          6.7139    1.6084    3.8055 F         1 <0>        -0.1317
     30 H2         -0.1553    0.0167    0.0639 H         1 <0>         0.0787
     31 H3          0.6483    1.6048    0.0434 H         1 <0>         0.0727
     32 H4         -0.9962    1.4309   -0.6151 H         1 <0>         0.0637
     33 H5         -3.5499    3.1770    0.3728 H         1 <0>         0.4097
     34 H6         -4.7585    1.3634   -1.4234 H         1 <0>         0.0889
     35 H7         -5.8908    1.6642   -0.0834 H         1 <0>         0.0894
     36 H8         -5.7420    4.1032   -0.5053 H         1 <0>         0.1343
     37 H9         -4.6097    3.8023   -1.8453 H         1 <0>         0.1385
     38 H10        -7.5030    1.3925   -1.4842 H         1 <0>         0.1407
     39 H11        -7.8267    2.8520   -0.4931 H         1 <0>         0.1352
     40 H12        -9.8442    2.7061   -1.8030 H         1 <0>         0.1167
     41 H13        -8.9578    2.1379   -3.2559 H         1 <0>         0.0994
     42 H14        -9.2206    4.9356   -2.1493 H         1 <0>         0.1035
     43 H15        -8.9722    4.4078   -3.8411 H         1 <0>         0.1056
     44 H16        -6.9647    5.2403   -1.9037 H         1 <0>         0.1315
     45 H17        -6.7206    4.7496   -3.6040 H         1 <0>         0.1349
     46 H18        -3.9158    2.9877    3.9492 H         1 <0>         0.0838
     47 H19        -4.3763    1.3106    3.5705 H         1 <0>         0.0838
     48 H20        -3.4193    1.6629    5.0294 H         1 <0>         0.0782
     49 H21         1.8457    1.0596    2.1938 H         1 <0>         0.1590
     50 H22         4.2923    1.1660    2.9375 H         1 <0>         0.1437
     51 H23         6.6971    3.6040    5.4837 H         1 <0>         0.1485
     52 H24         4.7184    4.8877    6.1602 H         1 <0>         0.1415
     53 H25         1.9347    5.0620    5.7397 H         1 <0>         0.4217
     54 N4         -6.6121    3.1829   -2.2012 N.4       1 <0>        -0.3913
     55 H26        -6.3020    2.6373   -3.0138 H         1 <0>         0.4332
@<TRIPOS>BOND
     1    1    2 1
     2    1   30 1
     3    1   31 1
     4    1   32 1
     5    2    7 1
     6    2    3 2
     7    3    4 1
     8    3   18 1
     9    4    5 1
    10    4    6 1
    11    6    7 2
    12    6   17 1
    13    7    8 1
    14    8    9 2
    15    8   10 am
    16   10   11 1
    17   10   33 1
    18   11   12 1
    19   11   34 1
    20   11   35 1
    21   12   36 1
    22   12   37 1
    23   12   54 1
    24   13   14 1
    25   13   38 1
    26   13   39 1
    27   13   54 1
    28   14   15 1
    29   14   40 1
    30   14   41 1
    31   15   16 1
    32   15   42 1
    33   15   43 1
    34   16   44 1
    35   16   45 1
    36   16   54 1
    37   17   46 1
    38   17   47 1
    39   17   48 1
    40   18   19 2
    41   18   49 1
    42   19   27 1
    43   19   20 1
    44   20   25 ar
    45   20   21 ar
    46   21   22 ar
    47   21   50 1
    48   22   23 ar
    49   22   29 1
    50   23   24 ar
    51   23   51 1
    52   24   25 ar
    53   24   52 1
    54   25   26 1
    55   26   27 am
    56   26   53 1
    57   27   28 2
    58   54   55 1
@<TRIPOS>MOLECULE
ZINC13493833
   51    53     0     0     0
SMALL
USER_CHARGES
N-(2-dimethylaminoethyl)-5-[(Z)-(5-fluoro-2-oxo-indolin-3-ylidene)methyl]-2,4-dimethyl-1H-pyrrole-3-carboxamide
@<TRIPOS>ATOM
      1 C1         -1.4553    2.4940   -2.4659 C.3       1 <0>        -0.0932
      2 C2         -1.9834    2.4657   -1.0547 C.2       1 <0>        -0.0579
      3 C3         -3.2047    2.9443   -0.6230 C.2       1 <0>        -0.0071
      4 N1         -3.2905    2.7289    0.7369 N.pl3     1 <0>        -0.4911
      5 H1         -4.0437    2.9723    1.2976 H         1 <0>         0.4270
      6 C4         -2.1665    2.1282    1.1619 C.2       1 <0>         0.1155
      7 C5         -1.3262    1.9420    0.0792 C.2       1 <0>        -0.2422
      8 C6          0.0094    1.3186    0.1057 C.2       1 <0>         0.6113
      9 O1          0.1241    0.1194   -0.0604 O.2       1 <0>        -0.5183
     10 N2          1.1039    2.0786    0.3085 N.am      1 <0>        -0.7296
     11 C7          2.4317    1.4599    0.3288 C.3       1 <0>         0.0929
     12 C8          3.4917    2.5354    0.5749 C.3       1 <0>        -0.0185
     13 C9          5.8796    2.9358    0.5916 C.3       1 <0>        -0.0418
     14 C10         4.9663    1.0135    1.7462 C.3       1 <0>        -0.0499
     15 C11        -1.8705    1.7234    2.5830 C.3       1 <0>        -0.0998
     16 C12        -4.1899    3.5533   -1.4306 C.2       1 <0>         0.0727
     17 C13        -4.9714    4.5694   -0.9180 C.2       1 <0>        -0.1886
     18 C14        -6.1373    5.2184   -1.5579 C.ar      1 <0>        -0.0738
     19 C15        -6.7856    5.0283   -2.7742 C.ar      1 <0>        -0.1000
     20 C16        -7.8825    5.8056   -3.0945 C.ar      1 <0>         0.0862
     21 C17        -8.3367    6.7664   -2.2032 C.ar      1 <0>        -0.1138
     22 C18        -7.7031    6.9568   -0.9922 C.ar      1 <0>        -0.1021
     23 C19        -6.5980    6.1839   -0.6529 C.ar      1 <0>         0.1282
     24 N3         -5.7903    6.1706    0.4791 N.am      1 <0>        -0.6466
     25 C20        -4.8216    5.2447    0.3783 C.2       1 <0>         0.5595
     26 O2         -3.9685    5.0073    1.2147 O.2       1 <0>        -0.5156
     27 F1         -8.5124    5.6299   -4.2767 F         1 <0>        -0.1317
     28 H2         -1.7536    1.5823   -2.9837 H         1 <0>         0.0785
     29 H3         -1.8630    3.3589   -2.9891 H         1 <0>         0.0727
     30 H4         -0.3676    2.5610   -2.4455 H         1 <0>         0.0635
     31 H5          1.0124    3.0351    0.4409 H         1 <0>         0.4101
     32 H6          2.4748    0.7181    1.1263 H         1 <0>         0.0892
     33 H7          2.6214    0.9752   -0.6289 H         1 <0>         0.0889
     34 H8          3.4487    3.2772   -0.2226 H         1 <0>         0.1369
     35 H9          3.3020    3.0201    1.5326 H         1 <0>         0.1386
     36 H10         5.7757    3.5694    1.4724 H         1 <0>         0.1243
     37 H11         6.8549    2.4493    0.6070 H         1 <0>         0.1259
     38 H12         5.7921    3.5460   -0.3073 H         1 <0>         0.1230
     39 H13         4.2148    0.2262    1.6867 H         1 <0>         0.1243
     40 H14         5.9610    0.5677    1.7371 H         1 <0>         0.1264
     41 H15         4.8293    1.5775    2.6688 H         1 <0>         0.1253
     42 H16        -1.3727    2.5447    3.0986 H         1 <0>         0.0839
     43 H17        -2.8030    1.4852    3.0947 H         1 <0>         0.0782
     44 H18        -1.2217    0.8476    2.5837 H         1 <0>         0.0838
     45 H19        -4.3321    3.2242   -2.4494 H         1 <0>         0.1589
     46 H20        -6.4300    4.2802   -3.4673 H         1 <0>         0.1437
     47 H21        -9.1944    7.3708   -2.4591 H         1 <0>         0.1485
     48 H22        -8.0661    7.7080   -0.3064 H         1 <0>         0.1415
     49 H23        -5.9107    6.7552    1.2437 H         1 <0>         0.4217
     50 N4          4.8260    1.8994    0.5714 N.4       1 <0>        -0.3942
     51 H24         4.9260    1.3387   -0.2829 H         1 <0>         0.4344
@<TRIPOS>BOND
     1    1    2 1
     2    1   28 1
     3    1   29 1
     4    1   30 1
     5    2    7 1
     6    2    3 2
     7    3    4 1
     8    3   16 1
     9    4    5 1
    10    4    6 1
    11    6    7 2
    12    6   15 1
    13    7    8 1
    14    8    9 2
    15    8   10 am
    16   10   11 1
    17   10   31 1
    18   11   12 1
    19   11   32 1
    20   11   33 1
    21   12   34 1
    22   12   35 1
    23   12   50 1
    24   13   36 1
    25   13   37 1
    26   13   38 1
    27   13   50 1
    28   14   39 1
    29   14   40 1
    30   14   41 1
    31   14   50 1
    32   15   42 1
    33   15   43 1
    34   15   44 1
    35   16   17 2
    36   16   45 1
    37   17   25 1
    38   17   18 1
    39   18   23 ar
    40   18   19 ar
    41   19   20 ar
    42   19   46 1
    43   20   21 ar
    44   20   27 1
    45   21   22 ar
    46   21   47 1
    47   22   23 ar
    48   22   48 1
    49   23   24 1
    50   24   25 am
    51   24   49 1
    52   25   26 2
    53   50   51 1
@<TRIPOS>MOLECULE
ZINC03814434
   62    69     0     0     0
SMALL
USER_CHARGES

@<TRIPOS>ATOM
      1 C1         -0.1295    1.5952   -0.2973 C.3       1 <0>        -0.1687
      2 C2         -0.0862    0.0696   -0.1900 C.3       1 <0>         0.3342
      3 C3          0.5692   -0.4501   -1.4637 C.3       1 <0>         0.0405
      4 H1          1.4796    0.1159   -1.6612 H         1 <0>         0.1372
      5 C4          0.9167   -1.9328   -1.2889 C.3       1 <0>        -0.0061
      6 H2          1.3963   -2.3075   -2.1932 H         1 <0>         0.1555
      7 C5          1.8785   -2.0596   -0.1021 C.3       1 <0>        -0.1827
      8 C6          1.2061   -1.5198    1.1541 C.3       1 <0>         0.2999
      9 H3          1.9797   -1.4243    1.9161 H         1 <0>         0.1550
     10 O1          0.6555   -0.2442    0.9666 O.3       1 <0>        -0.3234
     11 N1          0.2189   -2.4746    1.6600 N.pl3     1 <0>        -0.5366
     12 C7          0.4705   -3.5508    2.4739 C.ar      1 <0>         0.1469
     13 C8          1.6649   -4.0152    3.0240 C.ar      1 <0>        -0.1522
     14 C9          1.5948   -5.1456    3.8201 C.ar      1 <0>        -0.0582
     15 C10         0.4006   -5.7997    4.0696 C.ar      1 <0>        -0.1457
     16 C11        -0.7984   -5.3597    3.5358 C.ar      1 <0>        -0.0280
     17 C12        -0.7487   -4.2198    2.7307 C.ar      1 <0>        -0.1131
     18 C13        -1.7893   -3.4830    2.0197 C.ar      1 <0>         0.0276
     19 C14        -1.1442   -2.4197    1.3841 C.ar      1 <0>         0.0376
     20 C15        -1.8806   -1.5095    0.6175 C.ar      1 <0>         0.0894
     21 N2         -1.4718   -0.3951   -0.1095 N.pl3     1 <0>        -0.5183
     22 C16        -2.5611    0.1913   -0.7090 C.ar      1 <0>         0.1618
     23 C17        -2.6521    1.3277   -1.5118 C.ar      1 <0>        -0.1305
     24 C18        -3.9109    1.6745   -1.9733 C.ar      1 <0>        -0.0737
     25 C19        -5.0393    0.9368   -1.6616 C.ar      1 <0>        -0.1358
     26 C20        -4.9745   -0.1955   -0.8662 C.ar      1 <0>        -0.0503
     27 C21        -3.7147   -0.5596   -0.3919 C.ar      1 <0>        -0.1042
     28 C22        -3.2693   -1.6660    0.4845 C.ar      1 <0>        -0.0360
     29 C23        -3.9084   -2.7313    1.1102 C.ar      1 <0>        -0.0288
     30 C24        -3.1873   -3.6421    1.8754 C.ar      1 <0>        -0.1255
     31 C25        -4.1221   -4.6480    2.4030 C.2       1 <0>         0.5632
     32 O2         -3.8062   -5.5851    3.1110 O.2       1 <0>        -0.5106
     33 N3         -5.3744   -4.3851    1.9926 N.am      1 <0>        -0.7162
     34 C26        -5.3495   -3.1771    1.1601 C.3       1 <0>         0.1358
     35 N4         -0.3067   -2.7008   -1.0216 N.4       1 <0>        -0.5252
     36 C27         0.0145   -4.1336   -0.9773 C.3       1 <0>        -0.0497
     37 O3         -0.3340   -0.2979   -2.5607 O.3       1 <0>        -0.3614
     38 C28         0.3101   -0.0933   -3.8198 C.3       1 <0>         0.0162
     39 H4          0.8261    2.0094    0.0240 H         1 <0>         0.0984
     40 H5         -0.3202    1.8814   -1.3317 H         1 <0>         0.1036
     41 H6         -0.9255    1.9818    0.3392 H         1 <0>         0.0921
     42 H7          2.1370   -3.1081    0.0458 H         1 <0>         0.1233
     43 H8          2.7835   -1.4869   -0.3048 H         1 <0>         0.1455
     44 H9          2.6036   -3.5149    2.8368 H         1 <0>         0.1365
     45 H10         2.5026   -5.5304    4.2610 H         1 <0>         0.1359
     46 H11         0.4045   -6.6780    4.6980 H         1 <0>         0.1352
     47 H12        -1.7278   -5.8736    3.7323 H         1 <0>         0.1600
     48 H13        -1.7792    1.9122   -1.7624 H         1 <0>         0.1440
     49 H14        -4.0153    2.5500   -2.5970 H         1 <0>         0.1336
     50 H15        -5.9967    1.2527   -2.0488 H         1 <0>         0.1332
     51 H16        -5.8575   -0.7687   -0.6249 H         1 <0>         0.1415
     52 H17        -6.1628   -4.9065    2.2103 H         1 <0>         0.4348
     53 H18        -5.9671   -2.3994    1.6094 H         1 <0>         0.1115
     54 H19        -5.7060   -3.4063    0.1559 H         1 <0>         0.1103
     55 H20        -0.6958   -2.4158   -0.1353 H         1 <0>         0.4186
     56 H21         0.4349   -4.4415   -1.9347 H         1 <0>         0.1256
     57 H22         0.7403   -4.3189   -0.1854 H         1 <0>         0.1191
     58 H23        -0.8932   -4.7035   -0.7789 H         1 <0>         0.1256
     59 H24         0.9168    0.8112   -3.7748 H         1 <0>         0.0633
     60 H25         0.9482   -0.9479   -4.0446 H         1 <0>         0.0514
     61 H26        -0.4433    0.0130   -4.6003 H         1 <0>         0.1100
     62 H27        -0.9785   -2.5293   -1.7546 H         1 <0>         0.4274
@<TRIPOS>BOND
     1    1    2 1
     2    1   39 1
     3    1   40 1
     4    1   41 1
     5    2   10 1
     6    2   21 1
     7    2    3 1
     8    3    4 1
     9    3    5 1
    10    3   37 1
    11    5    6 1
    12    5    7 1
    13    5   35 1
    14    7    8 1
    15    7   42 1
    16    7   43 1
    17    8    9 1
    18    8   10 1
    19    8   11 1
    20   11   19 1
    21   11   12 1
    22   12   17 ar
    23   12   13 ar
    24   13   14 ar
    25   13   44 1
    26   14   15 ar
    27   14   45 1
    28   15   16 ar
    29   15   46 1
    30   16   17 ar
    31   16   47 1
    32   17   18 1
    33   18   30 ar
    34   18   19 ar
    35   19   20 ar
    36   20   28 ar
    37   20   21 1
    38   21   22 1
    39   22   27 ar
    40   22   23 ar
    41   23   24 ar
    42   23   48 1
    43   24   25 ar
    44   24   49 1
    45   25   26 ar
    46   25   50 1
    47   26   27 ar
    48   26   51 1
    49   27   28 1
    50   28   29 ar
    51   29   34 1
    52   29   30 ar
    53   30   31 1
    54   31   32 2
    55   31   33 am
    56   33   34 1
    57   33   52 1
    58   34   53 1
    59   34   54 1
    60   35   36 1
    61   35   55 1
    62   35   62 1
    63   36   56 1
    64   36   57 1
    65   36   58 1
    66   37   38 1
    67   38   59 1
    68   38   60 1
    69   38   61 1
@<TRIPOS>MOLECULE
ZINC01490414
   52    55     0     0     0
SMALL
USER_CHARGES

@<TRIPOS>ATOM
      1 C1         -0.6644    0.1999    2.1288 C.3       1 <0>         0.0227
      2 O1         -0.2490   -0.4837    0.9447 O.3       1 <0>        -0.3014
      3 C2         -1.1008   -0.4563   -0.1150 C.ar      1 <0>         0.1144
      4 C3         -2.2870    0.2111   -0.0113 C.ar      1 <0>        -0.1551
      5 C4         -3.1654    0.2398   -1.1048 C.ar      1 <0>        -0.1058
      6 C5         -4.4014    0.9209   -1.0345 C.ar      1 <0>         0.1817
      7 C6         -5.2152    0.9056   -2.1537 C.ar      1 <0>        -0.2659
      8 C7         -4.8020    0.2326   -3.2965 C.ar      1 <0>         0.1644
      9 N1         -3.6520   -0.3973   -3.3510 N.ar      1 <0>        -0.4922
     10 C8         -2.8156   -0.4230   -2.3065 C.ar      1 <0>         0.1715
     11 C9         -1.5880   -1.1016   -2.3822 C.ar      1 <0>        -0.1796
     12 C10        -0.7492   -1.1089   -1.3052 C.ar      1 <0>         0.1517
     13 O2          0.4396   -1.7622   -1.3857 O.3       1 <0>        -0.2996
     14 C11         0.7423   -2.4082   -2.6238 C.3       1 <0>         0.0208
     15 O3         -4.7788    1.5691    0.0950 O.3       1 <0>        -0.2423
     16 C12        -5.9332    2.2865    0.0637 C.ar      1 <0>         0.0933
     17 C13        -7.1567    1.6337    0.1091 C.ar      1 <0>        -0.1160
     18 C14        -8.3303    2.3611    0.0779 C.ar      1 <0>        -0.0775
     19 C15        -8.2868    3.7461    0.0011 C.ar      1 <0>         0.1383
     20 C16        -7.0610    4.4008   -0.0445 C.ar      1 <0>         0.0922
     21 C17        -5.8871    3.6713   -0.0078 C.ar      1 <0>        -0.1324
     22 F1         -7.0171    5.7490   -0.1193 F         1 <0>        -0.1274
     23 N2         -9.4784    4.4849   -0.0311 N.am      1 <0>        -0.6761
     24 C18       -10.5534    4.0603    0.6621 C.2       1 <0>         0.7120
     25 O4        -10.5151    2.9983    1.2531 O.2       1 <0>        -0.5493
     26 N3        -11.6709    4.8128    0.7002 N.am      1 <0>        -0.6751
     27 C19       -12.7444    4.4326    1.5175 C.ar      1 <0>         0.1221
     28 C20       -12.5052    3.8002    2.7295 C.ar      1 <0>        -0.0630
     29 C21       -13.5643    3.4266    3.5341 C.ar      1 <0>        -0.1392
     30 C22       -14.8647    3.6822    3.1328 C.ar      1 <0>         0.1191
     31 C23       -15.1074    4.3124    1.9242 C.ar      1 <0>        -0.1703
     32 C24       -14.0502    4.6935    1.1180 C.ar      1 <0>         0.1058
     33 F2        -14.2863    5.3139   -0.0587 F         1 <0>        -0.1272
     34 F3        -15.8983    3.3156    3.9218 F         1 <0>        -0.1280
     35 H1          0.1046    0.0999    2.8948 H         1 <0>         0.1051
     36 H2         -0.8183    1.2553    1.9040 H         1 <0>         0.0581
     37 H3         -1.5965   -0.2342    2.4909 H         1 <0>         0.0585
     38 H4         -2.5481    0.7142    0.9080 H         1 <0>         0.1494
     39 H5         -6.1676    1.4145   -2.1385 H         1 <0>         0.1425
     40 H6         -5.4452    0.2272   -4.1641 H         1 <0>         0.1633
     41 H7         -1.3066   -1.6122   -3.2913 H         1 <0>         0.1544
     42 H8         -0.0191   -3.1581   -2.8381 H         1 <0>         0.0610
     43 H9          0.7596   -1.6689   -3.4246 H         1 <0>         0.0608
     44 H10         1.7174   -2.8902   -2.5533 H         1 <0>         0.1059
     45 H11        -7.1913    0.5559    0.1685 H         1 <0>         0.1459
     46 H12        -9.2822    1.8520    0.1129 H         1 <0>         0.1632
     47 H13        -4.9344    4.1791   -0.0390 H         1 <0>         0.1526
     48 H14        -9.5289    5.3014   -0.5523 H         1 <0>         0.4156
     49 H15       -11.7323    5.6175    0.1620 H         1 <0>         0.4151
     50 H16       -11.4914    3.6000    3.0434 H         1 <0>         0.1568
     51 H17       -13.3777    2.9342    4.4770 H         1 <0>         0.1498
     52 H18       -16.1224    4.5102    1.6127 H         1 <0>         0.1554
@<TRIPOS>BOND
     1    1    2 1
     2    1   35 1
     3    1   36 1
     4    1   37 1
     5    2    3 1
     6    3   12 ar
     7    3    4 ar
     8    4    5 ar
     9    4   38 1
    10    5   10 ar
    11    5    6 ar
    12    6    7 ar
    13    6   15 1
    14    7    8 ar
    15    7   39 1
    16    8    9 ar
    17    8   40 1
    18    9   10 ar
    19   10   11 ar
    20   11   12 ar
    21   11   41 1
    22   12   13 1
    23   13   14 1
    24   14   42 1
    25   14   43 1
    26   14   44 1
    27   15   16 1
    28   16   21 ar
    29   16   17 ar
    30   17   18 ar
    31   17   45 1
    32   18   19 ar
    33   18   46 1
    34   19   20 ar
    35   19   23 1
    36   20   21 ar
    37   20   22 1
    38   21   47 1
    39   23   24 am
    40   23   48 1
    41   24   25 2
    42   24   26 am
    43   26   27 1
    44   26   49 1
    45   27   32 ar
    46   27   28 ar
    47   28   29 ar
    48   28   50 1
    49   29   30 ar
    50   29   51 1
    51   30   31 ar
    52   30   34 1
    53   31   32 ar
    54   31   52 1
    55   32   33 1
@<TRIPOS>MOLECULE
ZINC03938688
   39    41     0     0     0
SMALL
USER_CHARGES

@<TRIPOS>ATOM
      1 C1         -0.0095    1.3826    0.0704 C.ar      1 <0>        -0.0343
      2 C2          0.5587    1.0580   -1.1482 C.ar      1 <0>        -0.1609
      3 C3          1.7655    0.3862   -1.1955 C.ar      1 <0>         0.1753
      4 C4          2.4129    0.0342   -0.0053 C.ar      1 <0>        -0.1954
      5 C5          1.8304    0.3669    1.2233 C.ar      1 <0>         0.1741
      6 C6          0.6231    1.0388    1.2514 C.ar      1 <0>        -0.1610
      7 F1          2.4463    0.0317    2.3781 F         1 <0>        -0.1212
      8 C7          3.6999   -0.6827   -0.0456 C.2       1 <0>         0.6210
      9 O1          4.7383   -0.0615   -0.1600 O.2       1 <0>        -0.4669
     10 N1          3.7255   -2.0272    0.0446 N.am      1 <0>        -0.3962
     11 C8          4.8314   -2.8210    0.1249 C.2       1 <0>         0.5948
     12 N2          4.4249   -4.0694    0.1979 N.2       1 <0>        -0.5873
     13 C9          3.0869   -4.1118    0.1675 C.2       1 <0>         0.5191
     14 N3          2.6183   -2.8904    0.0808 N.2       1 <0>        -0.3480
     15 N4          2.3148   -5.2702    0.2247 N.pl3     1 <0>        -0.6226
     16 C10         2.9267   -6.5079    0.4407 C.ar      1 <0>         0.2365
     17 C11         4.1432   -6.5760    1.1080 C.ar      1 <0>        -0.1584
     18 C12         4.7450   -7.8008    1.3202 C.ar      1 <0>         0.0098
     19 C13         4.1379   -8.9586    0.8692 C.ar      1 <0>        -0.7033
     20 C14         2.9269   -8.8944    0.2046 C.ar      1 <0>         0.0112
     21 C15         2.3170   -7.6734   -0.0063 C.ar      1 <0>        -0.1777
     22 S1          4.9094  -10.5191    1.1415 S.o2      1 <0>         2.7034
     23 O2          4.4084  -11.3993    0.1448 O.2       1 <0>        -0.9656
     24 O3          6.2977  -10.2630    1.3036 O.2       1 <0>        -0.9650
     25 N5          4.3605  -11.0895    2.5960 N.pl3     1 <0>        -1.2510
     26 N6          6.1422   -2.3912    0.1281 N.pl3     1 <0>        -0.7911
     27 F2          2.3185    0.0697   -2.3868 F         1 <0>        -0.1201
     28 H1         -0.9506    1.9116    0.0998 H         1 <0>         0.1546
     29 H2          0.0576    1.3300   -2.0654 H         1 <0>         0.1549
     30 H3          0.1721    1.2963    2.1984 H         1 <0>         0.1546
     31 H4          1.3525   -5.2176    0.1147 H         1 <0>         0.4325
     32 H5          4.6180   -5.6722    1.4601 H         1 <0>         0.1556
     33 H6          5.6909   -7.8544    1.8385 H         1 <0>         0.1456
     34 H7          2.4556   -9.8005   -0.1466 H         1 <0>         0.1475
     35 H8          1.3691   -7.6243   -0.5215 H         1 <0>         0.1387
     36 H9          3.7284  -10.5673    3.1145 H         1 <0>         0.4165
     37 H10         4.6709  -11.9458    2.9296 H         1 <0>         0.4206
     38 H11         6.3422   -1.4439    0.0694 H         1 <0>         0.4292
     39 H12         6.8640   -3.0364    0.1890 H         1 <0>         0.4303
@<TRIPOS>BOND
     1    1    6 ar
     2    1    2 ar
     3    1   28 1
     4    2    3 ar
     5    2   29 1
     6    3    4 ar
     7    3   27 1
     8    4    5 ar
     9    4    8 1
    10    5    6 ar
    11    5    7 1
    12    6   30 1
    13    8    9 2
    14    8   10 am
    15   10   14 1
    16   10   11 1
    17   11   12 2
    18   11   26 1
    19   12   13 1
    20   13   14 2
    21   13   15 1
    22   15   16 1
    23   15   31 1
    24   16   21 ar
    25   16   17 ar
    26   17   18 ar
    27   17   32 1
    28   18   19 ar
    29   18   33 1
    30   19   20 ar
    31   19   22 1
    32   20   21 ar
    33   20   34 1
    34   21   35 1
    35   22   23 2
    36   22   24 2
    37   22   25 1
    38   25   36 1
    39   25   37 1
    40   26   38 1
    41   26   39 1
@<TRIPOS>MOLECULE
ZINC29047551
   49    53     0     0     0
SMALL
USER_CHARGES
5-isopropyl-6-(5-methyl-1,3,4-oxadiazol-2-yl)-N-(2-methyl-1H-pyrrolo[2,3-b]pyridin-5-yl)pyrrolo[2,1-f][1,2,4]triazin-4-amine
@<TRIPOS>ATOM
      1 C1          0.2189   -1.5891   -0.1477 C.3       1 <0>        -0.0980
      2 C2          0.7832   -0.2038    0.0353 C.2       1 <0>         0.0885
      3 C3          1.9855    0.2026   -0.4020 C.2       1 <0>        -0.1981
      4 C4          2.1303    1.6048   -0.0068 C.ar      1 <0>        -0.1352
      5 C5          3.1353    2.5624   -0.1625 C.ar      1 <0>        -0.0151
      6 C6          2.9145    3.8292    0.3596 C.ar      1 <0>         0.0537
      7 C7          1.7133    4.0967    1.0120 C.ar      1 <0>         0.1283
      8 N1          0.7835    3.1756    1.1443 N.ar      1 <0>        -0.4811
      9 C8          0.9421    1.9491    0.6648 C.ar      1 <0>         0.2869
     10 N2          0.1443    0.8277    0.6691 N.pl3     1 <0>        -0.5911
     11 H1         -0.8619    0.6773    1.0874 H         1 <0>         0.4446
     12 N3          3.8888    4.8273    0.2323 N.pl3     1 <0>        -0.6248
     13 C9          5.2277    4.4953    0.2825 C.2       1 <0>         0.5366
     14 C10         6.2180    5.5077    0.2719 C.2       1 <0>        -0.1027
     15 C11         6.1641    6.8838    0.2182 C.2       1 <0>        -0.0236
     16 C12         7.4943    7.3450    0.2381 C.2       1 <0>        -0.1020
     17 C13         8.3145    6.2331    0.3032 C.2       1 <0>         0.1098
     18 N4          7.5470    5.1304    0.3235 N.pl3     1 <0>        -0.2269
     19 N5          7.8476    3.7615    0.3842 N.2       1 <0>        -0.3598
     20 C14         6.8858    2.8803    0.3910 C.2       1 <0>         0.3433
     21 N6          5.6010    3.2281    0.3465 N.2       1 <0>        -0.6207
     22 C15         7.9330    8.7560    0.1973 C.2       1 <0>         0.2497
     23 N7          7.1554    9.8119    0.1364 N.2       1 <0>        -0.2693
     24 N8          7.8820   10.8735    0.1167 N.2       1 <0>        -0.2866
     25 C16         9.1410   10.5411    0.1638 C.2       1 <0>         0.1637
     26 O1          9.2060    9.1987    0.2217 O.3       1 <0>        -0.2222
     27 C17        10.3123   11.4893    0.1613 C.3       1 <0>        -0.0630
     28 C18         4.9203    7.7320    0.1507 C.3       1 <0>        -0.0132
     29 C19         4.8750    8.6678    1.3603 C.3       1 <0>        -0.1606
     30 C20         4.9375    8.5610   -1.1351 C.3       1 <0>        -0.1601
     31 H2          0.9451   -2.2121   -0.6904 H         1 <0>         0.0895
     32 H3         -0.7167   -1.5308   -0.7233 H         1 <0>         0.0766
     33 H4          0.0164   -2.0355    0.8370 H         1 <0>         0.0767
     34 H5          2.7096   -0.3925   -0.9386 H         1 <0>         0.1489
     35 H6          4.0563    2.3242   -0.6737 H         1 <0>         0.1571
     36 H7          1.5415    5.0824    1.4186 H         1 <0>         0.1614
     37 H8          3.5870    5.8758    0.0923 H         1 <0>         0.4459
     38 H9          9.3940    6.2487    0.3326 H         1 <0>         0.1914
     39 H10         7.1404    1.8318    0.4382 H         1 <0>         0.2219
     40 H11        11.2492   10.9148    0.2084 H         1 <0>         0.0937
     41 H12        10.2465   12.1556    1.0340 H         1 <0>         0.1059
     42 H13        10.2962   12.0895   -0.7604 H         1 <0>         0.1061
     43 H14         4.0420    7.0698    0.1570 H         1 <0>         0.0586
     44 H15         3.9671    9.2869    1.3111 H         1 <0>         0.0657
     45 H16         5.7626    9.3175    1.3547 H         1 <0>         0.0928
     46 H17         4.8627    8.0717    2.2847 H         1 <0>         0.0498
     47 H18         4.0296    9.1801   -1.1843 H         1 <0>         0.0660
     48 H19         4.9701    7.8882   -2.0047 H         1 <0>         0.0497
     49 H20         5.8251    9.2107   -1.1406 H         1 <0>         0.0914
@<TRIPOS>BOND
     1    1    2 1
     2    1   31 1
     3    1   32 1
     4    1   33 1
     5    2   10 1
     6    2    3 2
     7    3    4 1
     8    3   34 1
     9    4    9 ar
    10    4    5 ar
    11    5    6 ar
    12    5   35 1
    13    6    7 ar
    14    6   12 1
    15    7    8 ar
    16    7   36 1
    17    8    9 ar
    18    9   10 1
    19   10   11 1
    20   12   13 1
    21   12   37 1
    22   13   21 2
    23   13   14 1
    24   14   18 1
    25   14   15 2
    26   15   16 1
    27   15   28 1
    28   16   17 2
    29   16   22 1
    30   17   18 1
    31   17   38 1
    32   18   19 1
    33   19   20 2
    34   20   21 1
    35   20   39 1
    36   22   26 1
    37   22   23 2
    38   23   24 1
    39   24   25 2
    40   25   26 1
    41   25   27 1
    42   27   40 1
    43   27   41 1
    44   27   42 1
    45   28   29 1
    46   28   30 1
    47   28   43 1
    48   29   44 1
    49   29   45 1
    50   29   46 1
    51   30   47 1
    52   30   48 1
    53   30   49 1
@<TRIPOS>MOLECULE
ZINC12355112
   41    43     0     0     0
SMALL
USER_CHARGES

@<TRIPOS>ATOM
      1 C1         -0.1028    1.0961   -0.3671 C.ar      1 <0>        -0.0514
      2 C2          0.1939    0.2453    0.6818 C.ar      1 <0>        -0.1484
      3 C3          1.4264   -0.3800    0.7402 C.ar      1 <0>         0.1639
      4 C4          2.3673   -0.1521   -0.2572 C.ar      1 <0>         0.0453
      5 C5          2.0653    0.7038   -1.3099 C.ar      1 <0>         0.1303
      6 C6          0.8305    1.3253   -1.3612 C.ar      1 <0>        -0.1508
      7 F1          2.9766    0.9287   -2.2816 F         1 <0>        -0.1242
      8 N1          3.6170   -0.7832   -0.2014 N.pl3     1 <0>        -0.5829
      9 C7          3.7027   -2.0774    0.1649 C.2       1 <0>         0.5287
     10 S1          2.2783   -2.9758    0.4732 S.2       1 <0>        -0.4610
     11 N2          4.9096   -2.6643    0.2886 N.pl3     1 <0>        -0.3704
     12 C8          5.1565   -3.9777    0.5555 C.2       1 <0>         0.6130
     13 N3          6.4609   -4.1414    0.5939 N.2       1 <0>        -0.5881
     14 C9          7.0702   -2.9726    0.3596 C.2       1 <0>         0.5344
     15 N4          6.1641   -2.0459    0.1621 N.2       1 <0>        -0.3900
     16 N5          8.4494   -2.7737    0.3248 N.pl3     1 <0>        -0.6253
     17 C10         9.3156   -3.8654    0.4276 C.ar      1 <0>         0.2308
     18 C11         8.9430   -5.1006   -0.0877 C.ar      1 <0>        -0.1475
     19 C12         9.8015   -6.1774    0.0157 C.ar      1 <0>         0.0049
     20 C13        11.0306   -6.0273    0.6313 C.ar      1 <0>        -0.6997
     21 C14        11.4044   -4.7993    1.1458 C.ar      1 <0>         0.0107
     22 C15        10.5534   -3.7167    1.0403 C.ar      1 <0>        -0.1718
     23 S2         12.1228   -7.4039    0.7609 S.o2      1 <0>         2.7036
     24 O1         12.9813   -7.1389    1.8619 O.2       1 <0>        -0.9640
     25 O2         11.3155   -8.5710    0.6881 O.2       1 <0>        -0.9611
     26 N6         13.0757   -7.4022   -0.5934 N.pl3     1 <0>        -1.2489
     27 N7          4.2074   -4.9604    0.7511 N.pl3     1 <0>        -0.7789
     28 F2          1.7155   -1.2107    1.7657 F         1 <0>        -0.0889
     29 H1         -1.0676    1.5793   -0.4122 H         1 <0>         0.1524
     30 H2         -0.5376    0.0691    1.4566 H         1 <0>         0.1538
     31 H3          0.5950    1.9905   -2.1789 H         1 <0>         0.1534
     32 H4          4.4206   -0.2887   -0.4264 H         1 <0>         0.4283
     33 H5          8.8079   -1.8774    0.2293 H         1 <0>         0.4322
     34 H6          7.9831   -5.2186   -0.5683 H         1 <0>         0.1467
     35 H7          9.5123   -7.1380   -0.3844 H         1 <0>         0.1464
     36 H8         12.3649   -4.6855    1.6262 H         1 <0>         0.1476
     37 H9         10.8481   -2.7567    1.4378 H         1 <0>         0.1386
     38 H10        13.9781   -7.7554   -0.5519 H         1 <0>         0.4215
     39 H11        12.7314   -7.0480   -1.4282 H         1 <0>         0.4170
     40 H12         3.2665   -4.7264    0.7830 H         1 <0>         0.4323
     41 H13         4.4811   -5.8849    0.8567 H         1 <0>         0.4174
@<TRIPOS>BOND
     1    1    6 ar
     2    1    2 ar
     3    1   29 1
     4    2    3 ar
     5    2   30 1
     6    3    4 ar
     7    3   28 1
     8    4    5 ar
     9    4    8 1
    10    5    6 ar
    11    5    7 1
    12    6   31 1
    13    8    9 1
    14    8   32 1
    15    9   10 2
    16    9   11 1
    17   11   15 1
    18   11   12 1
    19   12   13 2
    20   12   27 1
    21   13   14 1
    22   14   15 2
    23   14   16 1
    24   16   17 1
    25   16   33 1
    26   17   22 ar
    27   17   18 ar
    28   18   19 ar
    29   18   34 1
    30   19   20 ar
    31   19   35 1
    32   20   21 ar
    33   20   23 1
    34   21   22 ar
    35   21   36 1
    36   22   37 1
    37   23   24 2
    38   23   25 2
    39   23   26 1
    40   26   38 1
    41   26   39 1
    42   27   40 1
    43   27   41 1
@<TRIPOS>MOLECULE
ZINC03834032
   40    42     0     0     0
SMALL
USER_CHARGES
3-[2,4-dimethyl-5-[(2-oxoindolin-3-ylidene)methyl]-1H-pyrrol-3-yl]propanoic acid
@<TRIPOS>ATOM
      1 C1          2.3355    2.0608   -0.1114 C.3       1 <0>        -0.0903
      2 C2          0.8597    2.3235   -0.2670 C.2       1 <0>        -0.0813
      3 C3          0.2566    3.5618   -0.4946 C.2       1 <0>        -0.1584
      4 C4         -1.0833    3.3665   -0.5730 C.2       1 <0>         0.0723
      5 N1         -1.3469    2.0457   -0.4087 N.pl3     1 <0>        -0.5120
      6 H1         -2.2268    1.6378   -0.4247 H         1 <0>         0.4155
      7 C5         -0.1556    1.3809   -0.2113 C.2       1 <0>        -0.0360
      8 C6          0.0021   -0.0041    0.0020 C.2       1 <0>         0.1041
      9 C7         -0.9659   -0.7120    0.6886 C.2       1 <0>        -0.2329
     10 C8         -1.0457   -2.1775    0.8763 C.ar      1 <0>        -0.0833
     11 C9         -0.2455   -3.2373    0.4616 C.ar      1 <0>        -0.0729
     12 C10        -0.5899   -4.5293    0.8035 C.ar      1 <0>        -0.1392
     13 C11        -1.7274   -4.7687    1.5567 C.ar      1 <0>        -0.0940
     14 C12        -2.5279   -3.7246    1.9729 C.ar      1 <0>        -0.1371
     15 C13        -2.1978   -2.4158    1.6381 C.ar      1 <0>         0.1338
     16 N2         -2.8154   -1.2041    1.9219 N.am      1 <0>        -0.6544
     17 C14        -2.1345   -0.1721    1.3953 C.2       1 <0>         0.5549
     18 O1         -2.4356    1.0049    1.4857 O.2       1 <0>        -0.5122
     19 C15        -2.1123    4.4415   -0.8108 C.3       1 <0>        -0.0923
     20 C16         0.9690    4.8829   -0.6298 C.3       1 <0>        -0.0291
     21 C17         1.3229    5.1235   -2.0987 C.3       1 <0>        -0.1463
     22 C18         2.0353    6.4446   -2.2339 C.2       1 <0>         0.4582
     23 O2          2.2389    7.1240   -1.2557 O.co2     1 <0>        -0.6425
     24 H2          2.7719    1.8501   -1.0877 H         1 <0>         0.0707
     25 H3          2.8171    2.9382    0.3202 H         1 <0>         0.0733
     26 H4          2.4847    1.2042    0.5458 H         1 <0>         0.0583
     27 H5          0.8793   -0.5115   -0.3712 H         1 <0>         0.1497
     28 H6          0.6417   -3.0498   -0.1250 H         1 <0>         0.1280
     29 H7          0.0287   -5.3548    0.4836 H         1 <0>         0.1276
     30 H8         -1.9907   -5.7824    1.8204 H         1 <0>         0.1279
     31 H9         -3.4123   -3.9241    2.5598 H         1 <0>         0.1238
     32 H10        -3.6320   -1.1141    2.4377 H         1 <0>         0.4139
     33 H11        -2.2796    4.5537   -1.8820 H         1 <0>         0.0757
     34 H12        -3.0472    4.1636   -0.3242 H         1 <0>         0.0629
     35 H13        -1.7543    5.3847   -0.3982 H         1 <0>         0.0887
     36 H14         0.3193    5.6838   -0.2767 H         1 <0>         0.0653
     37 H15         1.8817    4.8662   -0.0341 H         1 <0>         0.0677
     38 H16         1.9726    4.3226   -2.4518 H         1 <0>         0.0616
     39 H17         0.4102    5.1402   -2.6943 H         1 <0>         0.0597
     40 O3          2.4435    6.8666   -3.4410 O.co2     1 <0>        -0.7797
@<TRIPOS>BOND
     1    1    2 1
     2    1   24 1
     3    1   25 1
     4    1   26 1
     5    2    7 2
     6    2    3 1
     7    3    4 2
     8    3   20 1
     9    4    5 1
    10    4   19 1
    11    5    6 1
    12    5    7 1
    13    7    8 1
    14    8    9 2
    15    8   27 1
    16    9   17 1
    17    9   10 1
    18   10   15 ar
    19   10   11 ar
    20   11   12 ar
    21   11   28 1
    22   12   13 ar
    23   12   29 1
    24   13   14 ar
    25   13   30 1
    26   14   15 ar
    27   14   31 1
    28   15   16 1
    29   16   17 am
    30   16   32 1
    31   17   18 2
    32   19   33 1
    33   19   34 1
    34   19   35 1
    35   20   21 1
    36   20   36 1
    37   20   37 1
    38   21   22 1
    39   21   38 1
    40   21   39 1
    41   22   23 2
    42   22   40 1
@<TRIPOS>MOLECULE
ZINC12410091
   32    34     0     0     0
SMALL
USER_CHARGES

@<TRIPOS>ATOM
      1 C1         -1.1178    0.9648   -0.0829 C.3       1 <0>        -0.0893
      2 C2         -0.2110   -0.2369   -0.0149 C.2       1 <0>        -0.0965
      3 C3          0.2945   -0.9575   -1.0985 C.2       1 <0>        -0.2107
      4 C4          1.0666   -1.9603   -0.6105 C.2       1 <0>         0.0646
      5 N1          1.0661   -1.8976    0.7449 N.pl3     1 <0>        -0.5091
      6 H1          1.5402   -2.4998    1.3395 H         1 <0>         0.4188
      7 C5          0.2839   -0.8320    1.1355 C.2       1 <0>        -0.0205
      8 C6          0.0313   -0.4237    2.4614 C.2       1 <0>         0.0819
      9 C7         -0.0507   -1.3643    3.4702 C.2       1 <0>        -0.2071
     10 C8         -0.1650   -1.1166    4.9246 C.ar      1 <0>        -0.0949
     11 C9         -0.2226    0.0414    5.6934 C.ar      1 <0>        -0.0678
     12 C10        -0.3314   -0.0533    7.0660 C.ar      1 <0>        -0.1377
     13 C11        -0.3826   -1.2965    7.6746 C.ar      1 <0>        -0.0864
     14 C12        -0.3261   -2.4512    6.9211 C.ar      1 <0>        -0.1351
     15 C13        -0.2169   -2.3764    5.5367 C.ar      1 <0>         0.1361
     16 N2         -0.1424   -3.3615    4.5598 N.am      1 <0>        -0.6521
     17 C14        -0.0496   -2.8262    3.3306 C.2       1 <0>         0.5558
     18 O1          0.0255   -3.4453    2.2841 O.2       1 <0>        -0.5142
     19 C15         1.8050   -2.9793   -1.4395 C.3       1 <0>        -0.0930
     20 H2         -0.5157    1.8720   -0.1329 H         1 <0>         0.0696
     21 H3         -1.7460    0.8961   -0.9710 H         1 <0>         0.0689
     22 H4         -1.7478    0.9953    0.8062 H         1 <0>         0.0623
     23 H5          0.1040   -0.7529   -2.1417 H         1 <0>         0.1407
     24 H6         -0.0981    0.6243    2.6883 H         1 <0>         0.1527
     25 H7         -0.1820    1.0104    5.2182 H         1 <0>         0.1289
     26 H8         -0.3765    0.8433    7.6664 H         1 <0>         0.1307
     27 H9         -0.4670   -1.3628    8.7493 H         1 <0>         0.1317
     28 H10        -0.3669   -3.4147    7.4073 H         1 <0>         0.1271
     29 H11        -0.1589   -4.3141    4.7415 H         1 <0>         0.4170
     30 H12         2.8038   -2.6073   -1.6677 H         1 <0>         0.0754
     31 H13         1.8835   -3.9129   -0.8824 H         1 <0>         0.0673
     32 H14         1.2618   -3.1548   -2.3681 H         1 <0>         0.0848
@<TRIPOS>BOND
     1    1    2 1
     2    1   20 1
     3    1   21 1
     4    1   22 1
     5    2    7 2
     6    2    3 1
     7    3    4 2
     8    3   23 1
     9    4    5 1
    10    4   19 1
    11    5    6 1
    12    5    7 1
    13    7    8 1
    14    8    9 2
    15    8   24 1
    16    9   17 1
    17    9   10 1
    18   10   15 ar
    19   10   11 ar
    20   11   12 ar
    21   11   25 1
    22   12   13 ar
    23   12   26 1
    24   13   14 ar
    25   13   27 1
    26   14   15 ar
    27   14   28 1
    28   15   16 1
    29   16   17 am
    30   16   29 1
    31   17   18 2
    32   19   30 1
    33   19   31 1
    34   19   32 1
@<TRIPOS>MOLECULE
ZINC13684256
   46    49     0     0     0
SMALL
USER_CHARGES
(2R)-1-[4-[(4-fluoro-2-methyl-1H-indol-5-yl)oxy]-5-methyl-pyrrolo[5,1-f][1,2,4]triazin-6-yl]oxypropan-2-ol
@<TRIPOS>ATOM
      1 C1          4.7949    2.9523    2.3522 C.3       1 <0>        -0.0966
      2 C2          3.6646    2.2467    1.6483 C.2       1 <0>         0.0876
      3 C3          2.6218    1.6627    2.2588 C.2       1 <0>        -0.1880
      4 C4          1.7683    1.1023    1.2079 C.ar      1 <0>        -0.1349
      5 C5          2.3986    1.4102   -0.0110 C.ar      1 <0>         0.1341
      6 N1          3.5494    2.1066    0.2917 N.pl3     1 <0>        -0.5863
      7 H1          4.1828    2.4464   -0.3596 H         1 <0>         0.4207
      8 C6          1.8160    1.0023   -1.2064 C.ar      1 <0>        -0.1228
      9 C7          0.6300    0.3020   -1.1916 C.ar      1 <0>        -0.0621
     10 C8          0.0026   -0.0049    0.0123 C.ar      1 <0>         0.0188
     11 C9          0.5653    0.3914    1.2120 C.ar      1 <0>         0.1623
     12 F1         -0.0445    0.0935    2.3802 F         1 <0>        -0.1248
     13 O1         -1.1681   -0.6977    0.0091 O.3       1 <0>        -0.2108
     14 C10        -2.3207    0.0019    0.1276 C.2       1 <0>         0.4665
     15 C11        -3.5554   -0.6716    0.2464 C.2       1 <0>        -0.0662
     16 C12        -3.9185   -2.0054    0.2744 C.2       1 <0>        -0.0794
     17 C13        -5.3090   -2.0470    0.4125 C.2       1 <0>         0.0604
     18 C14        -5.7630   -0.7630    0.4655 C.2       1 <0>        -0.0104
     19 N2         -4.7091    0.0804    0.3658 N.pl3     1 <0>        -0.2298
     20 N3         -4.5954    1.4778    0.3627 N.2       1 <0>        -0.3297
     21 C15        -3.4217    2.0363    0.2489 C.2       1 <0>         0.3242
     22 N4         -2.3023    1.3228    0.1390 N.2       1 <0>        -0.5999
     23 O2         -6.0741   -3.1710    0.4822 O.3       1 <0>        -0.2792
     24 C16        -7.4843   -2.9882    0.6236 C.3       1 <0>         0.0248
     25 C17        -8.1721   -4.3535    0.6841 C.3       1 <0>         0.1065
     26 H2         -7.7288   -4.9485    1.4826 H         1 <0>         0.1107
     27 C18        -9.6646   -4.1609    0.9601 C.3       1 <0>        -0.1840
     28 O3         -8.0016   -5.0285   -0.5638 O.3       1 <0>        -0.5528
     29 C19        -2.9913   -3.1894    0.1756 C.3       1 <0>        -0.0827
     30 H3          5.5899    2.2387    2.5689 H         1 <0>         0.0820
     31 H4          5.1827    3.7451    1.7126 H         1 <0>         0.0718
     32 H5          4.4297    3.3834    3.2844 H         1 <0>         0.0887
     33 H6          2.4449    1.6152    3.3232 H         1 <0>         0.1525
     34 H7          2.2939    1.2345   -2.1466 H         1 <0>         0.1382
     35 H8          0.1849   -0.0159   -2.1228 H         1 <0>         0.1452
     36 H9         -6.7962   -0.4666    0.5705 H         1 <0>         0.1815
     37 H10        -3.3550    3.1143    0.2489 H         1 <0>         0.2243
     38 H11        -7.6890   -2.4372    1.5415 H         1 <0>         0.0705
     39 H12        -7.8653   -2.4270   -0.2297 H         1 <0>         0.0641
     40 H13       -10.1079   -3.5659    0.1617 H         1 <0>         0.0624
     41 H14       -10.1546   -5.1336    1.0033 H         1 <0>         0.0755
     42 H15        -9.7946   -3.6460    1.9120 H         1 <0>         0.0708
     43 H16        -8.3731   -4.5553   -1.3209 H         1 <0>         0.3750
     44 H17        -2.6667   -3.4809    1.1745 H         1 <0>         0.0728
     45 H18        -3.5145   -4.0224   -0.2939 H         1 <0>         0.0766
     46 H19        -2.1223   -2.9212   -0.4251 H         1 <0>         0.0719
@<TRIPOS>BOND
     1    1    2 1
     2    1   30 1
     3    1   31 1
     4    1   32 1
     5    2    6 1
     6    2    3 2
     7    3    4 1
     8    3   33 1
     9    4   11 ar
    10    4    5 ar
    11    5    6 1
    12    5    8 ar
    13    6    7 1
    14    8    9 ar
    15    8   34 1
    16    9   10 ar
    17    9   35 1
    18   10   11 ar
    19   10   13 1
    20   11   12 1
    21   13   14 1
    22   14   22 2
    23   14   15 1
    24   15   19 1
    25   15   16 2
    26   16   17 1
    27   16   29 1
    28   17   18 2
    29   17   23 1
    30   18   19 1
    31   18   36 1
    32   19   20 1
    33   20   21 2
    34   21   22 1
    35   21   37 1
    36   23   24 1
    37   24   25 1
    38   24   38 1
    39   24   39 1
    40   25   26 1
    41   25   27 1
    42   25   28 1
    43   27   40 1
    44   27   41 1
    45   27   42 1
    46   28   43 1
    47   29   44 1
    48   29   45 1
    49   29   46 1
@<TRIPOS>MOLECULE
ZINC06494041
   31    34     0     0     0
SMALL
USER_CHARGES

@<TRIPOS>ATOM
      1 C1         -0.0166    1.3729    0.0096 C.ar      1 <0>        -0.1772
      2 C2          1.1713    2.0902    0.0021 C.ar      1 <0>        -0.0720
      3 C3          2.3853    1.4387   -0.0129 C.ar      1 <0>        -0.1863
      4 C4          2.4268    0.0478   -0.0208 C.ar      1 <0>         0.2063
      5 C5          1.2241   -0.6774   -0.0132 C.ar      1 <0>        -0.1858
      6 C6          0.0021   -0.0041    0.0020 C.ar      1 <0>        -0.0332
      7 C7          1.2815   -2.1505   -0.0216 C.2       1 <0>         0.4332
      8 C8          2.5613   -2.7653   -0.0372 C.2       1 <0>        -0.4098
      9 C9          3.7021   -1.9733   -0.0438 C.2       1 <0>         0.5137
     10 O1          4.9122   -2.5683   -0.0585 O.3       1 <0>        -0.6869
     11 N1          3.6345   -0.6206   -0.0363 N.pl3     1 <0>        -0.6309
     12 H1          4.4575   -0.1073   -0.0417 H         1 <0>         0.4042
     13 C10         2.6782   -4.2336   -0.0457 C.2       1 <0>         0.4315
     14 N2          3.8577   -4.9308   -0.0552 N.pl3     1 <0>        -0.5959
     15 H2          4.7505   -4.5517   -0.0577 H         1 <0>         0.4291
     16 C11         3.5370   -6.2768   -0.0604 C.ar      1 <0>         0.0211
     17 C12         4.2878   -7.4431   -0.0706 C.ar      1 <0>        -0.1084
     18 C13         3.6537   -8.6681   -0.0741 C.ar      1 <0>        -0.1374
     19 C14         2.2683   -8.7428   -0.0680 C.ar      1 <0>        -0.1381
     20 C15         1.5066   -7.5965   -0.0579 C.ar      1 <0>        -0.0859
     21 C16         2.1332   -6.3464   -0.0538 C.ar      1 <0>         0.0641
     22 N3          1.6678   -5.0724   -0.0397 N.2       1 <0>        -0.5120
     23 O2          0.2619   -2.8199   -0.0151 O.2       1 <0>        -0.5033
     24 H3         -0.9606    1.8973    0.0259 H         1 <0>         0.1207
     25 H4          1.1439    3.1698    0.0078 H         1 <0>         0.1213
     26 H5          3.3037    2.0070   -0.0190 H         1 <0>         0.1238
     27 H6         -0.9240   -0.5597    0.0082 H         1 <0>         0.1332
     28 H7          5.3666   -7.3922   -0.0760 H         1 <0>         0.1100
     29 H8          4.2396   -9.5753   -0.0819 H         1 <0>         0.1160
     30 H9          1.7837   -9.7081   -0.0715 H         1 <0>         0.1161
     31 H10         0.4286   -7.6623   -0.0536 H         1 <0>         0.1187
@<TRIPOS>BOND
     1    1    6 ar
     2    1    2 ar
     3    1   24 1
     4    2    3 ar
     5    2   25 1
     6    3    4 ar
     7    3   26 1
     8    4   11 1
     9    4    5 ar
    10    5    6 ar
    11    5    7 1
    12    6   27 1
    13    7    8 1
    14    7   23 2
    15    8    9 2
    16    8   13 1
    17    9   10 1
    18    9   11 1
    19   11   12 1
    20   13   22 2
    21   13   14 1
    22   14   15 1
    23   14   16 1
    24   16   21 ar
    25   16   17 ar
    26   17   18 ar
    27   17   28 1
    28   18   19 ar
    29   18   29 1
    30   19   20 ar
    31   19   30 1
    32   20   21 ar
    33   20   31 1
    34   21   22 1
@<TRIPOS>MOLECULE
ZINC14961821
   28    31     0     0     0
SMALL
USER_CHARGES

@<TRIPOS>ATOM
      1 C1         -0.0164    1.3614    0.0095 C.ar      1 <0>        -0.1554
      2 C2          1.1697    2.0843    0.0021 C.ar      1 <0>        -0.0625
      3 C3          2.3773    1.4458   -0.0133 C.ar      1 <0>        -0.1433
      4 C4          2.4255    0.0535   -0.0213 C.ar      1 <0>         0.1273
      5 C5          1.2248   -0.6787   -0.0133 C.ar      1 <0>        -0.1427
      6 C6          0.0021   -0.0041    0.0020 C.ar      1 <0>        -0.0275
      7 C7          1.6063   -2.0961   -0.0252 C.2       1 <0>         0.1595
      8 N1          2.9183   -2.1519   -0.0388 N.2       1 <0>        -0.2302
      9 N2          3.4502   -0.8585   -0.0368 N.pl3     1 <0>        -0.4922
     10 H1          4.3953   -0.6405   -0.0456 H         1 <0>         0.4463
     11 C8          0.6836   -3.2485   -0.0220 C.2       1 <0>         0.3537
     12 N3          1.0655   -4.5638   -0.0278 N.pl3     1 <0>        -0.5842
     13 H2          1.9757   -4.8989   -0.0347 H         1 <0>         0.4288
     14 C9         -0.0882   -5.3240   -0.0215 C.ar      1 <0>         0.0578
     15 C10        -0.3426   -6.6883   -0.0234 C.ar      1 <0>        -0.1129
     16 C11        -1.6454   -7.1409   -0.0158 C.ar      1 <0>        -0.0935
     17 C12        -2.7024   -6.2418   -0.0062 C.ar      1 <0>        -0.1260
     18 C13        -2.4721   -4.8954   -0.0042 C.ar      1 <0>        -0.0582
     19 C14        -1.1592   -4.4128   -0.0118 C.ar      1 <0>         0.0484
     20 N4         -0.6255   -3.1671   -0.0073 N.2       1 <0>        -0.4560
     21 H3         -0.9615    1.8838    0.0259 H         1 <0>         0.1317
     22 H4          1.1368    3.1638    0.0082 H         1 <0>         0.1334
     23 H5          3.2926    2.0190   -0.0197 H         1 <0>         0.1299
     24 H6         -0.9242   -0.5594    0.0083 H         1 <0>         0.1423
     25 H7          0.4761   -7.3926   -0.0312 H         1 <0>         0.1260
     26 H8         -1.8443   -8.2024   -0.0176 H         1 <0>         0.1333
     27 H9         -3.7175   -6.6104   -0.0007 H         1 <0>         0.1329
     28 H10        -3.3023   -4.2047    0.0033 H         1 <0>         0.1333
@<TRIPOS>BOND
     1    1    6 ar
     2    1    2 ar
     3    1   21 1
     4    2    3 ar
     5    2   22 1
     6    3    4 ar
     7    3   23 1
     8    4    9 1
     9    4    5 ar
    10    5    6 ar
    11    5    7 1
    12    6   24 1
    13    7    8 2
    14    7   11 1
    15    8    9 1
    16    9   10 1
    17   11   20 2
    18   11   12 1
    19   12   13 1
    20   12   14 1
    21   14   19 ar
    22   14   15 ar
    23   15   16 ar
    24   15   25 1
    25   16   17 ar
    26   16   26 1
    27   17   18 ar
    28   17   27 1
    29   18   19 ar
    30   18   28 1
    31   19   20 1
@<TRIPOS>MOLECULE
ZINC22449469
   74    78     0     0     0
SMALL
USER_CHARGES

@<TRIPOS>ATOM
      1 C1          1.6200   -1.5857   -4.2133 C.3       1 <0>        -0.0457
      2 N1          1.1042   -2.2979   -3.0366 N.4       1 <0>        -0.3891
      3 C2          0.6210   -3.6248   -3.4407 C.3       1 <0>        -0.0013
      4 C3          0.0663   -4.3599   -2.2185 C.3       1 <0>         0.0260
      5 N2          1.1250   -4.4920   -1.2077 N.3       1 <0>        -0.5236
      6 C4          1.6361   -3.1722   -0.8115 C.3       1 <0>         0.0190
      7 C5          2.1778   -2.4469   -2.0453 C.3       1 <0>         0.0004
      8 C6          0.6468   -5.2437   -0.0397 C.3       1 <0>         0.0382
      9 C7          1.8119   -5.5712    0.8583 C.2       1 <0>         0.5151
     10 O1          2.9305   -5.2135    0.5552 O.2       1 <0>        -0.5111
     11 N3          1.6108   -6.2614    1.9984 N.am      1 <0>        -0.5638
     12 C8          0.2491   -6.6000    2.4192 C.3       1 <0>         0.0714
     13 C9          2.7039   -6.6550    2.7807 C.ar      1 <0>         0.0880
     14 C10         3.4772   -5.6979    3.4248 C.ar      1 <0>        -0.0594
     15 C11         4.5546   -6.0855    4.1955 C.ar      1 <0>        -0.1576
     16 C12         4.8653   -7.4333    4.3273 C.ar      1 <0>         0.2055
     17 C13         4.0913   -8.3905    3.6832 C.ar      1 <0>        -0.1610
     18 C14         3.0108   -8.0027    2.9168 C.ar      1 <0>        -0.0724
     19 N4          5.9572   -7.8262    5.1077 N.pl3     1 <0>        -0.6661
     20 C15         6.3653   -9.1334    5.1054 C.2       1 <0>         0.3219
     21 C16         6.3952   -9.8552    6.2951 C.2       1 <0>        -0.2136
     22 C17         6.9454  -11.2087    6.5011 C.ar      1 <0>        -0.0552
     23 C18         7.5608  -12.1327    5.6578 C.ar      1 <0>        -0.0866
     24 C19         7.9740  -13.3370    6.1503 C.ar      1 <0>        -0.0786
     25 C20         7.7818  -13.6478    7.5020 C.ar      1 <0>        -0.0930
     26 C21         7.1664  -12.7290    8.3549 C.ar      1 <0>        -0.0681
     27 C22         6.7458  -11.5064    7.8599 C.ar      1 <0>         0.1311
     28 N5          6.1180  -10.4193    8.4558 N.am      1 <0>        -0.6517
     29 C23         5.9079   -9.4383    7.5621 C.2       1 <0>         0.5643
     30 O2          5.3815   -8.3650    7.7999 O.2       1 <0>        -0.5077
     31 C24         8.2305  -14.9501    8.0268 C.2       1 <0>         0.5078
     32 O3          8.0650  -15.2223    9.1995 O.2       1 <0>        -0.4988
     33 O4          8.8243  -15.8390    7.2060 O.3       1 <0>        -0.3474
     34 C25         9.2338  -17.0810    7.7821 C.3       1 <0>         0.0336
     35 C26         6.7731   -9.7761    3.8428 C.ar      1 <0>        -0.0960
     36 C27         6.1914  -10.9850    3.4502 C.ar      1 <0>        -0.0837
     37 C28         6.5780  -11.5802    2.2679 C.ar      1 <0>        -0.1219
     38 C29         7.5393  -10.9837    1.4707 C.ar      1 <0>        -0.0938
     39 C30         8.1197   -9.7868    1.8528 C.ar      1 <0>        -0.1198
     40 C31         7.7392   -9.1768    3.0296 C.ar      1 <0>        -0.0769
     41 H1          2.4418   -2.1530   -4.6501 H         1 <0>         0.1233
     42 H2          0.8234   -1.4750   -4.9491 H         1 <0>         0.1241
     43 H3          1.9775   -0.6004   -3.9138 H         1 <0>         0.1242
     44 H4         -0.1666   -3.5132   -4.1859 H         1 <0>         0.1374
     45 H5          1.4451   -4.1976   -3.8661 H         1 <0>         0.1387
     46 H6         -0.7667   -3.7942   -1.8010 H         1 <0>         0.0624
     47 H7         -0.2787   -5.3503   -2.5154 H         1 <0>         0.1251
     48 H8          0.8290   -2.5869   -0.3708 H         1 <0>         0.0569
     49 H9          2.4363   -3.2960   -0.0819 H         1 <0>         0.1392
     50 H10         2.9939   -3.0257   -2.4778 H         1 <0>         0.1396
     51 H11         2.5444   -1.4620   -1.7560 H         1 <0>         0.1359
     52 H12        -0.0767   -4.6408    0.5091 H         1 <0>         0.0780
     53 H13         0.1728   -6.1675   -0.3713 H         1 <0>         0.1196
     54 H14        -0.0313   -7.5661    1.9996 H         1 <0>         0.0664
     55 H15         0.2070   -6.6504    3.5072 H         1 <0>         0.0835
     56 H16        -0.4417   -5.8353    2.0639 H         1 <0>         0.0741
     57 H17         3.2356   -4.6503    3.3224 H         1 <0>         0.1234
     58 H18         5.1564   -5.3412    4.6958 H         1 <0>         0.1317
     59 H19         4.3328   -9.4382    3.7852 H         1 <0>         0.1304
     60 H20         2.4064   -8.7470    2.4197 H         1 <0>         0.1270
     61 H21         6.4255   -7.1729    5.6506 H         1 <0>         0.4225
     62 H22         7.7103  -11.8958    4.6148 H         1 <0>         0.1426
     63 H23         8.4499  -14.0521    5.4956 H         1 <0>         0.1460
     64 H24         7.0188  -12.9715    9.3969 H         1 <0>         0.1450
     65 H25         5.8689  -10.3731    9.3921 H         1 <0>         0.4213
     66 H26         9.6960  -17.7023    7.0150 H         1 <0>         0.1062
     67 H27         9.9531  -16.8923    8.5790 H         1 <0>         0.0634
     68 H28         8.3646  -17.5957    8.1915 H         1 <0>         0.0633
     69 H29         5.4414  -11.4518    4.0714 H         1 <0>         0.1312
     70 H30         6.1297  -12.5145    1.9634 H         1 <0>         0.1329
     71 H31         7.8383  -11.4548    0.5460 H         1 <0>         0.1291
     72 H32         8.8692   -9.3272    1.2256 H         1 <0>         0.1298
     73 H33         8.1894   -8.2403    3.3241 H         1 <0>         0.1256
     74 H34         0.3438   -1.7723   -2.6321 H         1 <0>         0.4216
@<TRIPOS>BOND
     1    1    2 1
     2    1   41 1
     3    1   42 1
     4    1   43 1
     5    2    7 1
     6    2    3 1
     7    2   74 1
     8    3    4 1
     9    3   44 1
    10    3   45 1
    11    4    5 1
    12    4   46 1
    13    4   47 1
    14    5    6 1
    15    5    8 1
    16    6    7 1
    17    6   48 1
    18    6   49 1
    19    7   50 1
    20    7   51 1
    21    8    9 1
    22    8   52 1
    23    8   53 1
    24    9   10 2
    25    9   11 am
    26   11   12 1
    27   11   13 1
    28   12   54 1
    29   12   55 1
    30   12   56 1
    31   13   18 ar
    32   13   14 ar
    33   14   15 ar
    34   14   57 1
    35   15   16 ar
    36   15   58 1
    37   16   17 ar
    38   16   19 1
    39   17   18 ar
    40   17   59 1
    41   18   60 1
    42   19   20 1
    43   19   61 1
    44   20   21 2
    45   20   35 1
    46   21   29 1
    47   21   22 1
    48   22   27 ar
    49   22   23 ar
    50   23   24 ar
    51   23   62 1
    52   24   25 ar
    53   24   63 1
    54   25   26 ar
    55   25   31 1
    56   26   27 ar
    57   26   64 1
    58   27   28 1
    59   28   29 am
    60   28   65 1
    61   29   30 2
    62   31   32 2
    63   31   33 1
    64   33   34 1
    65   34   66 1
    66   34   67 1
    67   34   68 1
    68   35   40 ar
    69   35   36 ar
    70   36   37 ar
    71   36   69 1
    72   37   38 ar
    73   37   70 1
    74   38   39 ar
    75   38   71 1
    76   39   40 ar
    77   39   72 1
    78   40   73 1
@<TRIPOS>MOLECULE
ZINC22449469
   74    78     0     0     0
SMALL
USER_CHARGES

@<TRIPOS>ATOM
      1 C1          1.8905   -1.2340   -4.0590 C.3       1 <0>        -0.0458
      2 N1          1.3432   -1.9811   -2.9188 N.4       1 <0>        -0.3890
      3 C2          0.8615   -3.2907   -3.3776 C.3       1 <0>        -0.0014
      4 C3          0.2741   -4.0618   -2.1935 C.3       1 <0>         0.0262
      5 N2          1.3081   -4.2342   -1.1633 N.3       1 <0>        -0.5238
      6 C4          1.8177   -2.9316   -0.7121 C.3       1 <0>         0.0192
      7 C5          2.3924   -2.1698   -1.9084 C.3       1 <0>         0.0003
      8 C6          0.7983   -5.0207   -0.0322 C.3       1 <0>         0.0382
      9 C7          1.9402   -5.3854    0.8812 C.2       1 <0>         0.5153
     10 O1          3.0677   -5.0255    0.6160 O.2       1 <0>        -0.5102
     11 N3          1.7084   -6.1114    1.9929 N.am      1 <0>        -0.5650
     12 C8          0.3349   -6.4504    2.3732 C.3       1 <0>         0.0715
     13 C9          2.7808   -6.5416    2.7845 C.ar      1 <0>         0.0916
     14 C10         3.5480   -5.6144    3.4777 C.ar      1 <0>        -0.0599
     15 C11         4.6051   -6.0381    4.2575 C.ar      1 <0>        -0.1595
     16 C12         4.9014   -7.3924    4.3493 C.ar      1 <0>         0.1982
     17 C13         4.1335   -8.3198    3.6561 C.ar      1 <0>        -0.1559
     18 C14         3.0733   -7.8959    2.8806 C.ar      1 <0>        -0.0721
     19 N4          5.9727   -7.8219    5.1389 N.pl3     1 <0>        -0.6763
     20 C15         6.3653   -9.1334    5.1054 C.2       1 <0>         0.3268
     21 C16         6.3747   -9.8871    6.2755 C.2       1 <0>        -0.2173
     22 C17         5.8714   -9.4788    7.6010 C.ar      1 <0>        -0.0582
     23 C18         5.2751   -8.3148    8.0839 C.ar      1 <0>        -0.0826
     24 C19         4.9077   -8.2295    9.3960 C.ar      1 <0>        -0.0794
     25 C20         5.1278   -9.3094   10.2598 C.ar      1 <0>        -0.0935
     26 C21         5.7244  -10.4797    9.7858 C.ar      1 <0>        -0.0677
     27 C22         6.0986  -10.5706    8.4560 C.ar      1 <0>         0.1336
     28 N5          6.6987  -11.5836    7.7179 N.am      1 <0>        -0.6522
     29 C23         6.8650  -11.2099    6.4381 C.2       1 <0>         0.5658
     30 O2          7.3595  -11.8945    5.5593 O.2       1 <0>        -0.4960
     31 C24         4.7285   -9.2103   11.6753 C.2       1 <0>         0.5076
     32 O3          4.9184  -10.1459   12.4271 O.2       1 <0>        -0.4977
     33 O4          4.1530   -8.0820   12.1357 O.3       1 <0>        -0.3483
     34 C25         3.7917   -8.0554   13.5180 C.3       1 <0>         0.0336
     35 C26         6.7781   -9.7469    3.8300 C.ar      1 <0>        -0.0992
     36 C27         7.7088   -9.1031    3.0096 C.ar      1 <0>        -0.0767
     37 C28         8.0901   -9.6831    1.8180 C.ar      1 <0>        -0.1285
     38 C29         7.5536  -10.8996    1.4337 C.ar      1 <0>        -0.0915
     39 C30         6.6315  -11.5430    2.2407 C.ar      1 <0>        -0.1238
     40 C31         6.2450  -10.9781    3.4378 C.ar      1 <0>        -0.0444
     41 H1          2.7189   -1.7923   -4.4952 H         1 <0>         0.1234
     42 H2          1.1121   -1.0939   -4.8090 H         1 <0>         0.1241
     43 H3          2.2468   -0.2616   -3.7190 H         1 <0>         0.1243
     44 H4          0.0922   -3.1493   -4.1367 H         1 <0>         0.1375
     45 H5          1.6919   -3.8547   -3.8024 H         1 <0>         0.1388
     46 H6         -0.5649   -3.5046   -1.7769 H         1 <0>         0.0625
     47 H7         -0.0698   -5.0395   -2.5308 H         1 <0>         0.1252
     48 H8          1.0041   -2.3558   -0.2710 H         1 <0>         0.0569
     49 H9          2.6000   -3.0849    0.0314 H         1 <0>         0.1391
     50 H10         3.2149   -2.7396   -2.3408 H         1 <0>         0.1397
     51 H11         2.7581   -1.1975   -1.5783 H         1 <0>         0.1360
     52 H12         0.0659   -4.4313    0.5194 H         1 <0>         0.0781
     53 H13         0.3267   -5.9299   -0.4050 H         1 <0>         0.1197
     54 H14         0.0548   -7.3992    1.9155 H         1 <0>         0.0665
     55 H15         0.2690   -6.5368    3.4578 H         1 <0>         0.0836
     56 H16        -0.3411   -5.6676    2.0294 H         1 <0>         0.0743
     57 H17         3.3176   -4.5617    3.4063 H         1 <0>         0.1240
     58 H18         5.2021   -5.3170    4.7959 H         1 <0>         0.1324
     59 H19         4.3638   -9.3725    3.7270 H         1 <0>         0.1315
     60 H20         2.4736   -8.6172    2.3452 H         1 <0>         0.1276
     61 H21         6.4376   -7.1909    5.7103 H         1 <0>         0.4197
     62 H22         5.1041   -7.4803    7.4200 H         1 <0>         0.1318
     63 H23         4.4466   -7.3269    9.7687 H         1 <0>         0.1453
     64 H24         5.8937  -11.3109   10.4544 H         1 <0>         0.1456
     65 H25         6.9586  -12.4463    8.0773 H         1 <0>         0.4220
     66 H26         3.3396   -7.0928   13.7569 H         1 <0>         0.1059
     67 H27         3.0773   -8.8530   13.7222 H         1 <0>         0.0634
     68 H28         4.6825   -8.2002   14.1292 H         1 <0>         0.0637
     69 H29         8.1281   -8.1536    3.3081 H         1 <0>         0.1218
     70 H30         8.8088   -9.1866    1.1829 H         1 <0>         0.1266
     71 H31         7.8557  -11.3489    0.4992 H         1 <0>         0.1258
     72 H32         6.2171  -12.4921    1.9342 H         1 <0>         0.1277
     73 H33         5.5290  -11.4837    4.0688 H         1 <0>         0.1222
     74 H34         0.5767   -1.4639   -2.5148 H         1 <0>         0.4215
@<TRIPOS>BOND
     1    1    2 1
     2    1   41 1
     3    1   42 1
     4    1   43 1
     5    2    7 1
     6    2    3 1
     7    2   74 1
     8    3    4 1
     9    3   44 1
    10    3   45 1
    11    4    5 1
    12    4   46 1
    13    4   47 1
    14    5    6 1
    15    5    8 1
    16    6    7 1
    17    6   48 1
    18    6   49 1
    19    7   50 1
    20    7   51 1
    21    8    9 1
    22    8   52 1
    23    8   53 1
    24    9   10 2
    25    9   11 am
    26   11   12 1
    27   11   13 1
    28   12   54 1
    29   12   55 1
    30   12   56 1
    31   13   18 ar
    32   13   14 ar
    33   14   15 ar
    34   14   57 1
    35   15   16 ar
    36   15   58 1
    37   16   17 ar
    38   16   19 1
    39   17   18 ar
    40   17   59 1
    41   18   60 1
    42   19   20 1
    43   19   61 1
    44   20   21 2
    45   20   35 1
    46   21   29 1
    47   21   22 1
    48   22   27 ar
    49   22   23 ar
    50   23   24 ar
    51   23   62 1
    52   24   25 ar
    53   24   63 1
    54   25   26 ar
    55   25   31 1
    56   26   27 ar
    57   26   64 1
    58   27   28 1
    59   28   29 am
    60   28   65 1
    61   29   30 2
    62   31   32 2
    63   31   33 1
    64   33   34 1
    65   34   66 1
    66   34   67 1
    67   34   68 1
    68   35   40 ar
    69   35   36 ar
    70   36   37 ar
    71   36   69 1
    72   37   38 ar
    73   37   70 1
    74   38   39 ar
    75   38   71 1
    76   39   40 ar
    77   39   72 1
    78   40   73 1
@<TRIPOS>MOLECULE
ZINC22449469
   74    78     0     0     0
SMALL
USER_CHARGES
methyl (3Z)-3-[[[4-[methyl-[2-(4-methylpiperazin-1-yl)acetyl]amino]phenyl]amino]-phenyl-methylene]-2-oxo-indoline-6-carboxylate
@<TRIPOS>ATOM
      1 C1          0.1652    5.0587   11.0404 C.3       1 <0>         0.0170
      2 N1         -0.6347    3.9333   10.5391 N.3       1 <0>        -0.5443
      3 C2         -2.0308    4.3361   10.3193 C.3       1 <0>         0.0236
      4 C3         -2.8461    3.1196    9.8748 C.3       1 <0>         0.0014
      5 N2         -2.2617    2.5640    8.6461 N.4       1 <0>        -0.3901
      6 C4         -0.8656    2.1612    8.8658 C.3       1 <0>        -0.0065
      7 C5         -0.0503    3.3777    9.3105 C.3       1 <0>         0.0276
      8 C6         -3.0617    1.4385    8.1448 C.3       1 <0>        -0.0258
      9 C7         -2.5819    1.0548    6.7688 C.2       1 <0>         0.5001
     10 O1         -1.6638    1.6593    6.2560 O.2       1 <0>        -0.5159
     11 N3         -3.1730    0.0397    6.1077 N.am      1 <0>        -0.5369
     12 C8         -4.3571   -0.6115    6.6732 C.3       1 <0>         0.0561
     13 C9         -2.6550   -0.3923    4.8802 C.ar      1 <0>         0.0686
     14 C10        -2.1981   -1.6963    4.7398 C.ar      1 <0>        -0.0707
     15 C11        -1.6877   -2.1223    3.5303 C.ar      1 <0>        -0.1615
     16 C12        -1.6311   -1.2466    2.4531 C.ar      1 <0>         0.2147
     17 C13        -2.0829    0.0594    2.5955 C.ar      1 <0>        -0.1620
     18 C14        -2.5981    0.4835    3.8037 C.ar      1 <0>        -0.0511
     19 N4         -1.1140   -1.6781    1.2275 N.pl3     1 <0>        -0.6878
     20 C15        -1.1902   -0.8653    0.1280 C.2       1 <0>         0.3236
     21 C16        -0.0287   -0.4841   -0.5375 C.2       1 <0>        -0.2114
     22 C17         1.3623   -0.7433   -0.1192 C.ar      1 <0>        -0.0646
     23 C18         1.9295   -1.3932    0.9760 C.ar      1 <0>        -0.0818
     24 C19         3.2872   -1.4754    1.0932 C.ar      1 <0>        -0.0834
     25 C20         4.1134   -0.9070    0.1160 C.ar      1 <0>        -0.0924
     26 C21         3.5550   -0.2533   -0.9845 C.ar      1 <0>        -0.0705
     27 C22         2.1787   -0.1681   -1.1078 C.ar      1 <0>         0.1323
     28 N5          1.3573    0.4066   -2.0702 N.am      1 <0>        -0.6654
     29 C23         0.0617    0.2348   -1.7588 C.2       1 <0>         0.5711
     30 O2         -0.8834    0.6280   -2.4204 O.2       1 <0>        -0.4973
     31 C24         5.5786   -0.9986    0.2497 C.2       1 <0>         0.5077
     32 O3          6.2979   -0.5058   -0.5967 O.2       1 <0>        -0.4988
     33 O4          6.1203   -1.6288    1.3107 O.3       1 <0>        -0.3540
     34 C25         7.5699   -1.6805    1.3771 C.3       1 <0>         0.0322
     35 C26        -2.5026   -0.3941   -0.3509 C.ar      1 <0>        -0.0949
     36 C27        -2.7281    0.9706   -0.5522 C.ar      1 <0>        -0.0530
     37 C28        -3.9568    1.4035   -1.0044 C.ar      1 <0>        -0.1214
     38 C29        -4.9686    0.4914   -1.2491 C.ar      1 <0>        -0.0933
     39 C30        -4.7543   -0.8609   -1.0475 C.ar      1 <0>        -0.1255
     40 C31        -3.5293   -1.3092   -0.6001 C.ar      1 <0>        -0.0791
     41 H1         -0.2936    5.4546   11.9584 H         1 <0>         0.0842
     42 H2          0.2021    5.8507   10.2779 H         1 <0>         0.0400
     43 H3          1.1863    4.7136   11.2602 H         1 <0>         0.0849
     44 H4         -2.4485    4.7366   11.2548 H         1 <0>         0.1258
     45 H5         -2.0706    5.1104    9.5390 H         1 <0>         0.0617
     46 H6         -2.8290    2.3572   10.6675 H         1 <0>         0.1380
     47 H7         -3.8852    3.4250    9.6822 H         1 <0>         0.1378
     48 H8         -0.8259    1.3868    9.6460 H         1 <0>         0.1317
     49 H9         -0.4479    1.7608    7.9303 H         1 <0>         0.1492
     50 H10        -0.0673    4.1411    8.5187 H         1 <0>         0.0627
     51 H11         0.9888    3.0732    9.5039 H         1 <0>         0.1239
     52 H12        -2.9527    0.5800    8.8238 H         1 <0>         0.1598
     53 H13        -4.1200    1.7345    8.0949 H         1 <0>         0.1615
     54 H14        -4.6947   -1.4102    5.9963 H         1 <0>         0.0999
     55 H15        -5.1605    0.1300    6.7948 H         1 <0>         0.0772
     56 H16        -4.1053   -1.0434    7.6530 H         1 <0>         0.0761
     57 H17        -2.2418   -2.3769    5.5772 H         1 <0>         0.1304
     58 H18        -1.3321   -3.1362    3.4211 H         1 <0>         0.1365
     59 H19        -2.0349    0.7416    1.7597 H         1 <0>         0.1323
     60 H20        -2.9528    1.4976    3.9134 H         1 <0>         0.1242
     61 H21        -0.6461   -2.6703    1.1467 H         1 <0>         0.4459
     62 H22         1.2948   -1.8325    1.7313 H         1 <0>         0.1305
     63 H23         3.7250   -1.9799    1.9418 H         1 <0>         0.1438
     64 H24         4.1946    0.1846   -1.7366 H         1 <0>         0.1452
     65 H25         1.8006    0.9148   -2.9392 H         1 <0>         0.4486
     66 H26         7.8763   -2.2190    2.2860 H         1 <0>         0.1072
     67 H27         7.9724   -0.6571    1.4039 H         1 <0>         0.0669
     68 H28         7.9590   -2.2045    0.4917 H         1 <0>         0.0678
     69 H29        -1.9408    1.6840   -0.3578 H         1 <0>         0.1196
     70 H30        -4.1315    2.4573   -1.1637 H         1 <0>         0.1271
     71 H31        -5.9301    0.8367   -1.5995 H         1 <0>         0.1266
     72 H32        -5.5485   -1.5668   -1.2404 H         1 <0>         0.1279
     73 H33        -3.3634   -2.3649   -0.4432 H         1 <0>         0.1225
     74 H34        -2.2711    3.3521    7.8788 H         1 <0>         0.4460
@<TRIPOS>BOND
     1    1    2 1
     2    1   41 1
     3    1   42 1
     4    1   43 1
     5    2    7 1
     6    2    3 1
     7    3    4 1
     8    3   44 1
     9    3   45 1
    10    4    5 1
    11    4   46 1
    12    4   47 1
    13    5    6 1
    14    5    8 1
    15    5   74 1
    16    6    7 1
    17    6   48 1
    18    6   49 1
    19    7   50 1
    20    7   51 1
    21    8    9 1
    22    8   52 1
    23    8   53 1
    24    9   10 2
    25    9   11 am
    26   11   12 1
    27   11   13 1
    28   12   54 1
    29   12   55 1
    30   12   56 1
    31   13   18 ar
    32   13   14 ar
    33   14   15 ar
    34   14   57 1
    35   15   16 ar
    36   15   58 1
    37   16   17 ar
    38   16   19 1
    39   17   18 ar
    40   17   59 1
    41   18   60 1
    42   19   20 1
    43   19   61 1
    44   20   21 2
    45   20   35 1
    46   21   29 1
    47   21   22 1
    48   22   27 ar
    49   22   23 ar
    50   23   24 ar
    51   23   62 1
    52   24   25 ar
    53   24   63 1
    54   25   26 ar
    55   25   31 1
    56   26   27 ar
    57   26   64 1
    58   27   28 1
    59   28   29 am
    60   28   65 1
    61   29   30 2
    62   31   32 2
    63   31   33 1
    64   33   34 1
    65   34   66 1
    66   34   67 1
    67   34   68 1
    68   35   40 ar
    69   35   36 ar
    70   36   37 ar
    71   36   69 1
    72   37   38 ar
    73   37   70 1
    74   38   39 ar
    75   38   71 1
    76   39   40 ar
    77   39   72 1
    78   40   73 1
@<TRIPOS>MOLECULE
ZINC03964325
   57    59     0     0     0
SMALL
USER_CHARGES

@<TRIPOS>ATOM
      1 C1          0.1489    2.0884    0.1150 C.3       1 <0>        -0.1876
      2 C2          0.1348    0.5603    0.1888 C.3       1 <0>        -0.0191
      3 N1         -1.2520    0.0881    0.2979 N.4       1 <0>        -0.3822
      4 C3         -1.9779    0.4111   -0.9377 C.3       1 <0>        -0.0142
      5 C4         -3.4549    0.0484   -0.7712 C.3       1 <0>        -0.1895
      6 C5         -1.2593   -1.3663    0.5041 C.3       1 <0>        -0.0265
      7 C6         -0.6131   -1.6936    1.8518 C.3       1 <0>         0.0952
      8 N2         -0.6203   -3.1440    2.0575 N.am      1 <0>        -0.7289
      9 C7         -0.0988   -3.6675    3.1846 C.2       1 <0>         0.6111
     10 O1          0.3779   -2.9358    4.0309 O.2       1 <0>        -0.5184
     11 C8         -0.1061   -5.1270    3.3915 C.2       1 <0>        -0.2420
     12 C9          0.9071   -6.0320    3.0089 C.2       1 <0>        -0.0577
     13 C10         0.4868   -7.2892    3.3960 C.2       1 <0>        -0.0075
     14 N3         -0.7476   -7.1595    3.9982 N.pl3     1 <0>        -0.4910
     15 H1         -1.2731   -7.8879    4.3645 H         1 <0>         0.4270
     16 C11        -1.1044   -5.8642    4.0022 C.2       1 <0>         0.1158
     17 C12        -2.3825   -5.3072    4.5743 C.3       1 <0>        -0.0999
     18 C13         1.1957   -8.4957    3.2079 C.2       1 <0>         0.0729
     19 C14         0.5100   -9.6674    2.9570 C.2       1 <0>        -0.1889
     20 C15         1.0648  -11.0377    2.8871 C.ar      1 <0>        -0.0736
     21 C16         2.3472  -11.5557    3.0375 C.ar      1 <0>        -0.1000
     22 C17         2.5553  -12.9162    2.9116 C.ar      1 <0>         0.0861
     23 C18         1.4888  -13.7593    2.6366 C.ar      1 <0>        -0.1139
     24 C19         0.2139  -13.2531    2.4856 C.ar      1 <0>        -0.1021
     25 C20        -0.0144  -11.8871    2.6092 C.ar      1 <0>         0.1282
     26 N4         -1.1765  -11.1301    2.5069 N.am      1 <0>        -0.6466
     27 C21        -0.9294   -9.8245    2.7079 C.2       1 <0>         0.5595
     28 O2         -1.7538   -8.9280    2.6842 O.2       1 <0>        -0.5156
     29 F1          3.7984  -13.4252    3.0561 F         1 <0>        -0.1318
     30 C22         2.1990   -5.6919    2.3116 C.3       1 <0>        -0.0931
     31 H2          1.1793    2.4435    0.1331 H         1 <0>         0.1076
     32 H3         -0.3308    2.4121   -0.8087 H         1 <0>         0.0811
     33 H4         -0.3916    2.4984    0.9682 H         1 <0>         0.0809
     34 H5          0.5888    0.1488   -0.7126 H         1 <0>         0.1317
     35 H6          0.6996    0.2334    1.0619 H         1 <0>         0.1337
     36 H7         -1.8867    1.4775   -1.1444 H         1 <0>         0.1351
     37 H8         -1.5554   -0.1571   -1.7664 H         1 <0>         0.1307
     38 H9         -3.5537   -1.0316   -0.6617 H         1 <0>         0.0802
     39 H10        -3.8523    0.5414    0.1160 H         1 <0>         0.0808
     40 H11        -4.0109    0.3769   -1.6492 H         1 <0>         0.1074
     41 H12        -2.2871   -1.7292    0.4963 H         1 <0>         0.1397
     42 H13        -0.6973   -1.8494   -0.2952 H         1 <0>         0.1376
     43 H14         0.4147   -1.3306    1.8596 H         1 <0>         0.0893
     44 H15        -1.1751   -1.2105    2.6511 H         1 <0>         0.0890
     45 H16        -1.0005   -3.7277    1.3824 H         1 <0>         0.4099
     46 H17        -3.1529   -5.3000    3.8032 H         1 <0>         0.0840
     47 H18        -2.7087   -5.9289    5.4080 H         1 <0>         0.0782
     48 H19        -2.2103   -4.2898    4.9254 H         1 <0>         0.0840
     49 H20         2.2744   -8.5020    3.2604 H         1 <0>         0.1589
     50 H21         3.1765  -10.8977    3.2512 H         1 <0>         0.1436
     51 H22         1.6578  -14.8215    2.5394 H         1 <0>         0.1485
     52 H23        -0.6084  -13.9196    2.2712 H         1 <0>         0.1415
     53 H24        -2.0541  -11.4980    2.3189 H         1 <0>         0.4217
     54 H25         2.9686   -5.4822    3.0545 H         1 <0>         0.0785
     55 H26         2.5107   -6.5337    1.6932 H         1 <0>         0.0726
     56 H27         2.0522   -4.8138    1.6827 H         1 <0>         0.0634
     57 H28        -1.7009    0.5410    1.0799 H         1 <0>         0.4247
@<TRIPOS>BOND
     1    1    2 1
     2    1   31 1
     3    1   32 1
     4    1   33 1
     5    2    3 1
     6    2   34 1
     7    2   35 1
     8    3    4 1
     9    3    6 1
    10    3   57 1
    11    4    5 1
    12    4   36 1
    13    4   37 1
    14    5   38 1
    15    5   39 1
    16    5   40 1
    17    6    7 1
    18    6   41 1
    19    6   42 1
    20    7    8 1
    21    7   43 1
    22    7   44 1
    23    8    9 am
    24    8   45 1
    25    9   10 2
    26    9   11 1
    27   11   16 2
    28   11   12 1
    29   12   13 2
    30   12   30 1
    31   13   14 1
    32   13   18 1
    33   14   15 1
    34   14   16 1
    35   16   17 1
    36   17   46 1
    37   17   47 1
    38   17   48 1
    39   18   19 2
    40   18   49 1
    41   19   27 1
    42   19   20 1
    43   20   25 ar
    44   20   21 ar
    45   21   22 ar
    46   21   50 1
    47   22   23 ar
    48   22   29 1
    49   23   24 ar
    50   23   51 1
    51   24   25 ar
    52   24   52 1
    53   25   26 1
    54   26   27 am
    55   26   53 1
    56   27   28 2
    57   30   54 1
    58   30   55 1
    59   30   56 1
