@<TRIPOS>MOLECULE
ZINC13298313
   14    15     0     0     0
SMALL
USER_CHARGES

@<TRIPOS>ATOM
      1 C1         -0.0156    1.3003    0.0092 C.2       1 <0>         0.1322
      2 C2          1.3142    1.7608   -0.0010 C.2       1 <0>        -0.3439
      3 C3          2.1466    0.6305   -0.0151 C.2       1 <0>         0.3388
      4 N1          1.3284   -0.4537   -0.0131 N.pl3     1 <0>        -0.4509
      5 H1          1.6139   -1.3807   -0.0211 H         1 <0>         0.4488
      6 N2          0.0021   -0.0041    0.0020 N.2       1 <0>        -0.2651
      7 N3          3.4783    0.7987   -0.0265 N.2       1 <0>        -0.5375
      8 C4          4.0215    1.9806   -0.0249 C.2       1 <0>         0.4222
      9 N4          3.2972    3.1279   -0.0114 N.am      1 <0>        -0.6521
     10 H2          3.7507    3.9854   -0.0108 H         1 <0>         0.4267
     11 C5          1.9444    3.0809    0.0000 C.2       1 <0>         0.5744
     12 O1          1.2768    4.0999    0.0116 O.2       1 <0>        -0.5141
     13 H3         -0.8995    1.9206    0.0250 H         1 <0>         0.2012
     14 H4          5.0991    2.0521   -0.0345 H         1 <0>         0.2194
@<TRIPOS>BOND
     1    1    6 2
     2    1    2 1
     3    1   13 1
     4    2   11 1
     5    2    3 2
     6    3    4 1
     7    3    7 1
     8    4    5 1
     9    4    6 1
    10    7    8 2
    11    8    9 1
    12    8   14 1
    13    9   10 1
    14    9   11 am
    15   11   12 2
@<TRIPOS>MOLECULE
ZINC13298313
   13    14     0     0     0
SMALL
USER_CHARGES

@<TRIPOS>ATOM
      1 C1         -0.0126    1.0758    0.0080 C.2       1 <0>         0.1258
      2 C2          1.1221    1.9168    0.0016 C.ar      1 <0>        -0.3703
      3 C3          0.6506    3.2450    0.0127 C.ar      1 <0>         0.3560
      4 N1         -0.7107    3.1736    0.0251 N.pl3     1 <0>        -0.5016
      5 H1         -1.3194    3.9289    0.0346 H         1 <0>         0.4302
      6 N2         -1.0795    1.8225    0.0165 N.2       1 <0>        -0.3076
      7 N3          1.5352    4.2400    0.0089 N.ar      1 <0>        -0.6359
      8 C4          2.8259    3.9891   -0.0051 C.ar      1 <0>         0.3690
      9 N4          3.3127    2.7605   -0.0163 N.ar      1 <0>        -0.6420
     10 C5          2.5115    1.7032   -0.0128 C.ar      1 <0>         0.4964
     11 O1          3.0197    0.4485   -0.0233 O.3       1 <0>        -0.6778
     12 H2          0.0021   -0.0041    0.0020 H         1 <0>         0.1821
     13 H3          3.5156    4.8201   -0.0078 H         1 <0>         0.1757
@<TRIPOS>BOND
     1    1   12 1
     2    1    2 1
     3    1    6 2
     4    2   10 ar
     5    2    3 ar
     6    3    7 ar
     7    3    4 1
     8    4    5 1
     9    4    6 1
    10    7    8 ar
    11    8    9 ar
    12    8   13 1
    13    9   10 ar
    14   10   11 1
@<TRIPOS>MOLECULE
ZINC13298313
   13    14     0     0     0
SMALL
USER_CHARGES

@<TRIPOS>ATOM
      1 C1         -0.0161    1.3345    0.0094 C.2       1 <0>         0.1294
      2 C2          1.2909    1.7743   -0.0007 C.ar      1 <0>        -0.3581
      3 C3          1.9389    3.0325   -0.0006 C.ar      1 <0>         0.5139
      4 O1          1.2259    4.1812    0.0128 O.3       1 <0>        -0.6761
      5 N1          3.2620    3.0535   -0.0135 N.ar      1 <0>        -0.6737
      6 C4          3.9866    1.9444   -0.0263 C.ar      1 <0>         0.3828
      7 N2          3.4745    0.7401   -0.0275 N.ar      1 <0>        -0.6171
      8 C5          2.1384    0.5690   -0.0153 C.ar      1 <0>         0.3159
      9 N3          1.3242   -0.4640   -0.0131 N.2       1 <0>        -0.3404
     10 N4          0.0021   -0.0041    0.0020 N.pl3     1 <0>        -0.4588
     11 H1         -0.7846   -0.5715    0.0071 H         1 <0>         0.4331
     12 H2         -0.8973    1.9587    0.0252 H         1 <0>         0.1790
     13 H3          5.0624    2.0398   -0.0368 H         1 <0>         0.1700
@<TRIPOS>BOND
     1    1   10 1
     2    1    2 2
     3    1   12 1
     4    2    8 ar
     5    2    3 ar
     6    3    4 1
     7    3    5 ar
     8    5    6 ar
     9    6    7 ar
    10    6   13 1
    11    7    8 ar
    12    8    9 2
    13    9   10 1
    14   10   11 1
@<TRIPOS>MOLECULE
ZINC12981580
   30    32     0     0     0
SMALL
USER_CHARGES
2-[(2-bromophenoxy)methyl]-7-methyl-[1,3,4]thiadiazolo[2,3-b]pyrimidin-5-one
@<TRIPOS>ATOM
      1 C1         -3.4850    3.4796    6.6025 C.3       1 <0>        -0.1063
      2 C2         -3.0778    3.1984    5.1790 C.2       1 <0>         0.2012
      3 C3         -3.8125    3.7019    4.1265 C.2       1 <0>        -0.2810
      4 C4         -3.4198    3.4302    2.8157 C.2       1 <0>         0.5412
      5 O1         -4.0662    3.8736    1.8792 O.2       1 <0>        -0.4926
      6 N1         -2.3113    2.6679    2.5816 N.am      1 <0>        -0.3832
      7 C5         -1.6416    2.2091    3.6827 C.2       1 <0>         0.3194
      8 N2         -2.0031    2.4593    4.9156 N.2       1 <0>        -0.4817
      9 S1         -0.3059    1.2811    2.9608 S.3       1 <0>         0.1313
     10 C6         -0.7181    1.5718    1.2479 C.2       1 <0>         0.1146
     11 N3         -1.7852    2.3050    1.3456 N.2       1 <0>        -0.2088
     12 C7         -0.0127    1.0858    0.0080 C.3       1 <0>         0.1554
     13 O2         -0.7038    1.5592   -1.1497 O.3       1 <0>        -0.2840
     14 C8         -0.1940    1.2075   -2.3595 C.ar      1 <0>         0.1517
     15 C9          0.9511    0.4278   -2.4309 C.ar      1 <0>        -0.2045
     16 C10         1.4645    0.0672   -3.6617 C.ar      1 <0>        -0.0627
     17 C11         0.8441    0.4914   -4.8224 C.ar      1 <0>        -0.1464
     18 C12        -0.2940    1.2733   -4.7548 C.ar      1 <0>        -0.0516
     19 C13        -0.8149    1.6326   -3.5258 C.ar      1 <0>        -0.1212
     20 Br1        -2.3713    2.7027   -3.4336 Br        1 <0>        -0.0260
     21 H1         -4.1650    2.7004    6.9466 H         1 <0>         0.0952
     22 H2         -2.5992    3.4952    7.2374 H         1 <0>         0.0892
     23 H3         -3.9853    4.4467    6.6529 H         1 <0>         0.0912
     24 H4         -4.6888    4.3041    4.3162 H         1 <0>         0.1737
     25 H5          0.0021   -0.0041    0.0020 H         1 <0>         0.1169
     26 H6          1.0099    1.4631    0.0003 H         1 <0>         0.1169
     27 H7          1.4386    0.0995   -1.5248 H         1 <0>         0.1386
     28 H8          2.3536   -0.5432   -3.7174 H         1 <0>         0.1356
     29 H9          1.2495    0.2117   -5.7836 H         1 <0>         0.1361
     30 H10        -0.7763    1.6040   -5.6628 H         1 <0>         0.1416
@<TRIPOS>BOND
     1    1    2 1
     2    1   21 1
     3    1   22 1
     4    1   23 1
     5    2    8 1
     6    2    3 2
     7    3    4 1
     8    3   24 1
     9    4    5 2
    10    4    6 am
    11    6   11 1
    12    6    7 1
    13    7    8 2
    14    7    9 1
    15    9   10 1
    16   10   11 2
    17   10   12 1
    18   12   13 1
    19   12   25 1
    20   12   26 1
    21   13   14 1
    22   14   19 ar
    23   14   15 ar
    24   15   16 ar
    25   15   27 1
    26   16   17 ar
    27   16   28 1
    28   17   18 ar
    29   17   29 1
    30   18   19 ar
    31   18   30 1
    32   19   20 1
