@<TRIPOS>MOLECULE
ZINC01033551
   36    37     0     0     0
SMALL
USER_CHARGES

@<TRIPOS>ATOM
      1 C1          1.1464   -0.3594    1.3710 C.ar      1 <0>        -0.0464
      2 C2          2.3285    0.3335    1.1976 C.ar      1 <0>        -0.1225
      3 C3          2.3814    1.4031    0.3135 C.ar      1 <0>         0.1940
      4 C4          1.2447    1.7725   -0.3936 C.ar      1 <0>        -0.1461
      5 C5          0.0657    1.0755   -0.2157 C.ar      1 <0>        -0.0469
      6 C6          0.0163    0.0109    0.6654 C.ar      1 <0>        -0.1987
      7 C7         -1.2718   -0.7474    0.8570 C.3       1 <0>         0.5098
      8 F1         -2.0094   -0.1600    1.8905 F         1 <0>        -0.1762
      9 F2         -2.0160   -0.7093   -0.3270 F         1 <0>        -0.1769
     10 F3         -0.9859   -2.0769    1.1854 F         1 <0>        -0.1759
     11 N1          3.5774    2.1075    0.1359 N.am      1 <0>        -0.6791
     12 C8          4.7582    1.4641    0.2264 C.2       1 <0>         0.7054
     13 O1          4.7834    0.2568    0.3684 O.2       1 <0>        -0.5420
     14 N2          5.9111    2.1590    0.1595 N.am      1 <0>        -0.6815
     15 C9          7.1360    1.4824    0.1444 C.ar      1 <0>         0.2239
     16 C10         7.2373    0.2404   -0.4684 C.ar      1 <0>        -0.1437
     17 C11         8.4476   -0.4248   -0.4816 C.ar      1 <0>         0.0051
     18 C12         9.5576    0.1445    0.1149 C.ar      1 <0>        -0.6932
     19 C13         9.4600    1.3811    0.7259 C.ar      1 <0>         0.0052
     20 C14         8.2541    2.0542    0.7371 C.ar      1 <0>        -0.1674
     21 S1         11.0996   -0.7080    0.0969 S.o2      1 <0>         2.7029
     22 O2         11.8512   -0.2112    1.1958 O.2       1 <0>        -0.9632
     23 O3         10.7989   -2.0881   -0.0587 O.2       1 <0>        -0.9619
     24 N3         11.9014   -0.2408   -1.2747 N.pl3     1 <0>        -1.2502
     25 H1          1.1058   -1.1941    2.0551 H         1 <0>         0.1417
     26 H2          3.2107    0.0441    1.7493 H         1 <0>         0.1484
     27 H3          1.2826    2.6041   -1.0817 H         1 <0>         0.1399
     28 H4         -0.8187    1.3625   -0.7651 H         1 <0>         0.1426
     29 H5          3.5566    3.0588   -0.0524 H         1 <0>         0.4142
     30 H6          5.8918    3.1281    0.1219 H         1 <0>         0.4148
     31 H7          6.3705   -0.2051   -0.9339 H         1 <0>         0.1482
     32 H8          8.5270   -1.3908   -0.9581 H         1 <0>         0.1485
     33 H9         10.3288    1.8231    1.1909 H         1 <0>         0.1495
     34 H10         8.1796    3.0222    1.2103 H         1 <0>         0.1395
     35 H11        11.4925    0.3949   -1.8828 H         1 <0>         0.4165
     36 H12        12.7798   -0.6027   -1.4701 H         1 <0>         0.4215
@<TRIPOS>BOND
     1    1    6 ar
     2    1    2 ar
     3    1   25 1
     4    2    3 ar
     5    2   26 1
     6    3    4 ar
     7    3   11 1
     8    4    5 ar
     9    4   27 1
    10    5    6 ar
    11    5   28 1
    12    6    7 1
    13    7    8 1
    14    7    9 1
    15    7   10 1
    16   11   12 am
    17   11   29 1
    18   12   13 2
    19   12   14 am
    20   14   15 1
    21   14   30 1
    22   15   20 ar
    23   15   16 ar
    24   16   17 ar
    25   16   31 1
    26   17   18 ar
    27   17   32 1
    28   18   19 ar
    29   18   21 1
    30   19   20 ar
    31   19   33 1
    32   20   34 1
    33   21   22 2
    34   21   23 2
    35   21   24 1
    36   24   35 1
    37   24   36 1
@<TRIPOS>MOLECULE
ZINC00143531
   33    34     0     0     0
SMALL
USER_CHARGES

@<TRIPOS>ATOM
      1 C1          0.9582   -0.4517   -1.2351 C.ar      1 <0>        -0.1433
      2 C2          2.1282    0.2604   -1.4124 C.ar      1 <0>         0.0014
      3 C3          2.3495    1.4200   -0.6922 C.ar      1 <0>        -0.6952
      4 C4          1.4007    1.8703    0.2074 C.ar      1 <0>         0.0067
      5 C5          0.2284    1.1630    0.3889 C.ar      1 <0>        -0.1681
      6 C6          0.0033   -0.0019   -0.3328 C.ar      1 <0>         0.2241
      7 N1         -1.1834   -0.7209   -0.1512 N.am      1 <0>        -0.6825
      8 C7         -1.1816   -2.0639   -0.2638 C.2       1 <0>         0.7047
      9 O1         -0.1341   -2.6587   -0.4295 O.2       1 <0>        -0.5444
     10 N2         -2.3408   -2.7478   -0.1927 N.am      1 <0>        -0.6780
     11 C8         -2.3293   -4.1476   -0.2005 C.ar      1 <0>         0.1639
     12 C9         -3.3676   -4.8483   -0.7998 C.ar      1 <0>        -0.1318
     13 C10        -3.3537   -6.2293   -0.8066 C.ar      1 <0>        -0.0886
     14 C11        -2.3064   -6.9148   -0.2164 C.ar      1 <0>        -0.0487
     15 C12        -1.2705   -6.2189    0.3814 C.ar      1 <0>        -0.0878
     16 C13        -1.2768   -4.8378    0.3859 C.ar      1 <0>        -0.1074
     17 Cl1        -2.2925   -8.6507   -0.2257 Cl        1 <0>        -0.0662
     18 S1          3.8437    2.3253   -0.9209 S.o2      1 <0>         2.7036
     19 O2          4.0492    3.0767    0.2676 O.2       1 <0>        -0.9630
     20 O3          4.8055    1.4035   -1.4152 O.2       1 <0>        -0.9597
     21 N3          3.5718    3.4210   -2.1324 N.pl3     1 <0>        -1.2484
     22 H1          0.7842   -1.3551   -1.8009 H         1 <0>         0.1479
     23 H2          2.8713   -0.0889   -2.1139 H         1 <0>         0.1476
     24 H3          1.5767    2.7760    0.7689 H         1 <0>         0.1484
     25 H4         -0.5122    1.5152    1.0916 H         1 <0>         0.1388
     26 H5         -2.0074   -0.2527    0.0557 H         1 <0>         0.4142
     27 H6         -3.1831   -2.2700   -0.1361 H         1 <0>         0.4122
     28 H7         -4.1856   -4.3138   -1.2599 H         1 <0>         0.1365
     29 H8         -4.1610   -6.7747   -1.2726 H         1 <0>         0.1398
     30 H9         -0.4543   -6.7562    0.8413 H         1 <0>         0.1390
     31 H10        -0.4658   -4.2951    0.8488 H         1 <0>         0.1456
     32 H11         4.0474    4.2664   -2.1376 H         1 <0>         0.4219
     33 H12         2.9369    3.2174   -2.8370 H         1 <0>         0.4170
@<TRIPOS>BOND
     1    1    6 ar
     2    1    2 ar
     3    1   22 1
     4    2    3 ar
     5    2   23 1
     6    3    4 ar
     7    3   18 1
     8    4    5 ar
     9    4   24 1
    10    5    6 ar
    11    5   25 1
    12    6    7 1
    13    7    8 am
    14    7   26 1
    15    8    9 2
    16    8   10 am
    17   10   11 1
    18   10   27 1
    19   11   16 ar
    20   11   12 ar
    21   12   13 ar
    22   12   28 1
    23   13   14 ar
    24   13   29 1
    25   14   15 ar
    26   14   17 1
    27   15   16 ar
    28   15   30 1
    29   16   31 1
    30   18   19 2
    31   18   20 2
    32   18   21 1
    33   21   32 1
    34   21   33 1
@<TRIPOS>MOLECULE
ZINC18177805
   36    37     0     0     0
SMALL
USER_CHARGES

@<TRIPOS>ATOM
      1 C1          1.0717   -0.4528   -0.7673 C.ar      1 <0>        -0.1442
      2 C2          2.2555    0.2585   -0.7800 C.ar      1 <0>         0.0040
      3 C3          2.3760    1.4168   -0.0344 C.ar      1 <0>        -0.6965
      4 C4          1.3125    1.8665    0.7265 C.ar      1 <0>         0.0048
      5 C5          0.1261    1.1596    0.7438 C.ar      1 <0>        -0.1718
      6 C6          0.0017   -0.0035   -0.0046 C.ar      1 <0>         0.2301
      7 N1         -1.1994   -0.7217    0.0101 N.am      1 <0>        -0.6891
      8 C7         -1.1827   -2.0649   -0.0990 C.2       1 <0>         0.7025
      9 O1         -0.1229   -2.6607   -0.1129 O.2       1 <0>        -0.5633
     10 N2         -2.3409   -2.7478   -0.1927 N.am      1 <0>        -0.7317
     11 C8         -2.3228   -4.2079   -0.3113 C.3       1 <0>         0.1554
     12 C9         -2.2143   -4.6162   -1.7950 C.3       1 <0>        -0.1360
     13 C10        -3.1061   -5.8776   -1.9080 C.3       1 <0>        -0.1256
     14 C11        -4.2948   -5.5405   -0.9740 C.3       1 <0>        -0.1250
     15 C12        -3.6457   -4.7955    0.2107 C.3       1 <0>        -0.1321
     16 S1          3.8880    2.3213   -0.0534 S.o2      1 <0>         2.7036
     17 O2          3.9281    3.0707    1.1533 O.2       1 <0>        -0.9646
     18 O3          4.9082    1.3995   -0.4118 O.2       1 <0>        -0.9633
     19 N3          3.7864    3.4190   -1.2891 N.pl3     1 <0>        -1.2506
     20 H1          0.9768   -1.3549   -1.3533 H         1 <0>         0.1473
     21 H2          3.0882   -0.0906   -1.3727 H         1 <0>         0.1469
     22 H3          1.4098    2.7714    1.3080 H         1 <0>         0.1478
     23 H4         -0.7039    1.5109    1.3388 H         1 <0>         0.1377
     24 H5         -2.0438   -0.2527    0.0988 H         1 <0>         0.4113
     25 H6         -3.1864   -2.2725   -0.1816 H         1 <0>         0.3983
     26 H7         -1.4843   -4.6176    0.2518 H         1 <0>         0.0953
     27 H8         -2.5935   -3.8220   -2.4380 H         1 <0>         0.0697
     28 H9         -1.1818   -4.8549   -2.0504 H         1 <0>         0.0730
     29 H10        -3.4483   -6.0181   -2.9333 H         1 <0>         0.0704
     30 H11        -2.5739   -6.7600   -1.5528 H         1 <0>         0.0713
     31 H12        -5.0101   -4.8955   -1.4844 H         1 <0>         0.0673
     32 H13        -4.7808   -6.4536   -0.6303 H         1 <0>         0.0704
     33 H14        -3.4491   -5.4911    1.0266 H         1 <0>         0.0780
     34 H15        -4.3011   -3.9944    0.5522 H         1 <0>         0.0713
     35 H16         2.9861    3.4614   -1.8356 H         1 <0>         0.4164
     36 H17         4.5272    4.0196   -1.4665 H         1 <0>         0.4209
@<TRIPOS>BOND
     1    1    6 ar
     2    1    2 ar
     3    1   20 1
     4    2    3 ar
     5    2   21 1
     6    3    4 ar
     7    3   16 1
     8    4    5 ar
     9    4   22 1
    10    5    6 ar
    11    5   23 1
    12    6    7 1
    13    7    8 am
    14    7   24 1
    15    8    9 2
    16    8   10 am
    17   10   11 1
    18   10   25 1
    19   11   15 1
    20   11   12 1
    21   11   26 1
    22   12   13 1
    23   12   27 1
    24   12   28 1
    25   13   14 1
    26   13   29 1
    27   13   30 1
    28   14   15 1
    29   14   31 1
    30   14   32 1
    31   15   33 1
    32   15   34 1
    33   16   17 2
    34   16   18 2
    35   16   19 1
    36   19   35 1
    37   19   36 1
@<TRIPOS>MOLECULE
ZINC01752601
   33    34     0     0     0
SMALL
USER_CHARGES

@<TRIPOS>ATOM
      1 C1          0.9576   -0.4525   -1.2348 C.ar      1 <0>        -0.0906
      2 C2          2.1284    0.2583   -1.4127 C.ar      1 <0>        -0.1316
      3 C3          2.3507    1.4196   -0.6921 C.ar      1 <0>         0.0864
      4 C4          1.4004    1.8705    0.2084 C.ar      1 <0>        -0.1319
      5 C5          0.2285    1.1623    0.3896 C.ar      1 <0>        -0.1144
      6 C6          0.0033   -0.0019   -0.3326 C.ar      1 <0>         0.1484
      7 N1         -1.1847   -0.7210   -0.1510 N.am      1 <0>        -0.6772
      8 C7         -1.1835   -2.0640   -0.2636 C.2       1 <0>         0.7053
      9 O1         -0.1362   -2.6592   -0.4292 O.2       1 <0>        -0.5468
     10 N2         -2.3430   -2.7473   -0.1927 N.am      1 <0>        -0.6827
     11 C8         -2.3322   -4.1466   -0.2005 C.ar      1 <0>         0.2252
     12 C9         -3.3707   -4.8471   -0.7997 C.ar      1 <0>        -0.1680
     13 C10        -3.3568   -6.2282   -0.8062 C.ar      1 <0>         0.0050
     14 C11        -2.3105   -6.9133   -0.2164 C.ar      1 <0>        -0.6937
     15 C12        -1.2748   -6.2187    0.3811 C.ar      1 <0>         0.0047
     16 C13        -1.2799   -4.8376    0.3859 C.ar      1 <0>        -0.1435
     17 S1         -2.2971   -8.6753   -0.2258 S.o2      1 <0>         2.7037
     18 O2         -1.4849   -9.0811    0.8673 O.2       1 <0>        -0.9630
     19 O3         -3.6487   -9.0909   -0.3661 O.2       1 <0>        -0.9641
     20 N3         -1.5100   -9.1516   -1.6027 N.pl3     1 <0>        -1.2503
     21 F1          3.4965    2.1135   -0.8676 F         1 <0>        -0.1376
     22 H1          0.7827   -1.3559   -1.8003 H         1 <0>         0.1460
     23 H2          2.8711   -0.0921   -2.1141 H         1 <0>         0.1411
     24 H3          1.5758    2.7764    0.7698 H         1 <0>         0.1421
     25 H4         -0.5122    1.5139    1.0926 H         1 <0>         0.1375
     26 H5         -2.0085   -0.2524    0.0558 H         1 <0>         0.4122
     27 H6         -3.1851   -2.2691   -0.1362 H         1 <0>         0.4146
     28 H7         -4.1886   -4.3126   -1.2599 H         1 <0>         0.1391
     29 H8         -4.1642   -6.7736   -1.2721 H         1 <0>         0.1492
     30 H9         -0.4592   -6.7567    0.8412 H         1 <0>         0.1480
     31 H10        -0.4688   -4.2956    0.8492 H         1 <0>         0.1484
     32 H11        -1.1626   -8.4866   -2.2175 H         1 <0>         0.4171
     33 H12        -1.3964  -10.0957   -1.7945 H         1 <0>         0.4214
@<TRIPOS>BOND
     1    1    6 ar
     2    1    2 ar
     3    1   22 1
     4    2    3 ar
     5    2   23 1
     6    3    4 ar
     7    3   21 1
     8    4    5 ar
     9    4   24 1
    10    5    6 ar
    11    5   25 1
    12    6    7 1
    13    7    8 am
    14    7   26 1
    15    8    9 2
    16    8   10 am
    17   10   11 1
    18   10   27 1
    19   11   16 ar
    20   11   12 ar
    21   12   13 ar
    22   12   28 1
    23   13   14 ar
    24   13   29 1
    25   14   15 ar
    26   14   17 1
    27   15   16 ar
    28   15   30 1
    29   16   31 1
    30   17   18 2
    31   17   19 2
    32   17   20 1
    33   20   32 1
    34   20   33 1
@<TRIPOS>MOLECULE
ZINC01741507
   37    38     0     0     0
SMALL
USER_CHARGES

@<TRIPOS>ATOM
      1 C1         -0.9115    1.1353    1.0392 C.3       1 <0>         0.0295
      2 O1         -0.5480   -0.1960    0.6681 O.3       1 <0>        -0.3239
      3 C2          0.5739   -0.7112    1.2382 C.ar      1 <0>         0.0956
      4 C3          1.3054    0.0457    2.1390 C.ar      1 <0>        -0.1860
      5 C4          2.4459   -0.4795    2.7177 C.ar      1 <0>        -0.0980
      6 C5          2.8603   -1.7597    2.3998 C.ar      1 <0>        -0.1312
      7 C6          2.1363   -2.5210    1.5018 C.ar      1 <0>        -0.1026
      8 C7          0.9874   -2.0032    0.9222 C.ar      1 <0>         0.1335
      9 N1          0.2478   -2.7758    0.0163 N.am      1 <0>        -0.6654
     10 C8          0.3883   -4.1162    0.0021 C.2       1 <0>         0.7054
     11 O2          1.0796   -4.6639    0.8392 O.2       1 <0>        -0.5478
     12 N2         -0.2374   -4.8494   -0.9398 N.am      1 <0>        -0.6836
     13 C9         -0.1837   -6.2468   -0.8889 C.ar      1 <0>         0.2276
     14 C10        -0.1517   -6.8976    0.3374 C.ar      1 <0>        -0.1437
     15 C11        -0.0986   -8.2769    0.3842 C.ar      1 <0>         0.0047
     16 C12        -0.0773   -9.0097   -0.7883 C.ar      1 <0>        -0.6947
     17 C13        -0.1090   -8.3646   -2.0109 C.ar      1 <0>         0.0051
     18 C14        -0.1679   -6.9858   -2.0645 C.ar      1 <0>        -0.1687
     19 S1         -0.0090  -10.7693   -0.7242 S.o2      1 <0>         2.7034
     20 O3          0.5515  -11.1991   -1.9572 O.2       1 <0>        -0.9641
     21 O4          0.5628  -11.1080    0.5318 O.2       1 <0>        -0.9628
     22 N3         -1.5707  -11.3192   -0.6969 N.pl3     1 <0>        -1.2505
     23 H1         -0.1064    1.8196    0.7717 H         1 <0>         0.0573
     24 H2         -1.8223    1.4229    0.5140 H         1 <0>         0.1015
     25 H3         -1.0831    1.1787    2.1147 H         1 <0>         0.0573
     26 H4          0.9849    1.0463    2.3889 H         1 <0>         0.1332
     27 H5          3.0149    0.1120    3.4197 H         1 <0>         0.1275
     28 H6          3.7520   -2.1657    2.8541 H         1 <0>         0.1297
     29 H7          2.4626   -3.5205    1.2547 H         1 <0>         0.1625
     30 H8         -0.3651   -2.3458   -0.6004 H         1 <0>         0.4143
     31 H9         -0.7251   -4.4084   -1.6531 H         1 <0>         0.4140
     32 H10        -0.1680   -6.3258    1.2534 H         1 <0>         0.1479
     33 H11        -0.0734   -8.7837    1.3376 H         1 <0>         0.1478
     34 H12        -0.0923   -8.9397   -2.9249 H         1 <0>         0.1486
     35 H13        -0.1976   -6.4827   -3.0197 H         1 <0>         0.1389
     36 H14        -2.3075  -10.6885   -0.7167 H         1 <0>         0.4165
     37 H15        -1.7488  -12.2721   -0.6612 H         1 <0>         0.4211
@<TRIPOS>BOND
     1    1    2 1
     2    1   23 1
     3    1   24 1
     4    1   25 1
     5    2    3 1
     6    3    8 ar
     7    3    4 ar
     8    4    5 ar
     9    4   26 1
    10    5    6 ar
    11    5   27 1
    12    6    7 ar
    13    6   28 1
    14    7    8 ar
    15    7   29 1
    16    8    9 1
    17    9   10 am
    18    9   30 1
    19   10   11 2
    20   10   12 am
    21   12   13 1
    22   12   31 1
    23   13   18 ar
    24   13   14 ar
    25   14   15 ar
    26   14   32 1
    27   15   16 ar
    28   15   33 1
    29   16   17 ar
    30   16   19 1
    31   17   18 ar
    32   17   34 1
    33   18   35 1
    34   19   20 2
    35   19   21 2
    36   19   22 1
    37   22   36 1
    38   22   37 1
@<TRIPOS>MOLECULE
ZINC03359263
   34    35     0     0     0
SMALL
USER_CHARGES

@<TRIPOS>ATOM
      1 C1         -0.0122    1.3487   -0.7287 C.ar      1 <0>        -0.1389
      2 C2          1.1532    1.8941   -1.2421 C.ar      1 <0>        -0.0618
      3 C3          2.3616    1.2488   -1.0704 C.ar      1 <0>        -0.1403
      4 C4          2.4159    0.0461   -0.3796 C.ar      1 <0>         0.2135
      5 C5          1.2378   -0.5090    0.1421 C.ar      1 <0>        -0.0678
      6 C6          0.0224    0.1553   -0.0400 C.ar      1 <0>        -0.0457
      7 C7          1.2808   -1.7495    0.8562 C.1       1 <0>         0.2479
      8 N1          1.3148   -2.7335    1.4227 N.1       1 <0>        -0.4098
      9 N2          3.6349   -0.6072   -0.2056 N.am      1 <0>        -0.6745
     10 C8          4.7893    0.0798   -0.3150 C.2       1 <0>         0.7085
     11 O1          4.7671    1.2868   -0.4594 O.2       1 <0>        -0.5377
     12 N3          5.9683   -0.5713   -0.2645 N.am      1 <0>        -0.6813
     13 C9          7.1671    0.1505   -0.2732 C.ar      1 <0>         0.2235
     14 C10         7.2341    1.3955    0.3383 C.ar      1 <0>        -0.1431
     15 C11         8.4188    2.1055    0.3280 C.ar      1 <0>         0.0051
     16 C12         9.5374    1.5778   -0.2905 C.ar      1 <0>        -0.6929
     17 C13         9.4739    0.3384   -0.9003 C.ar      1 <0>         0.0053
     18 C14         8.2938   -0.3791   -0.8885 C.ar      1 <0>        -0.1665
     19 S1         11.0467    2.4870   -0.3020 S.o2      1 <0>         2.7033
     20 O2         11.7946    2.0184   -1.4157 O.2       1 <0>        -0.9632
     21 O3         10.6980    3.8549   -0.1397 O.2       1 <0>        -0.9620
     22 N4         11.8919    2.0499    1.0534 N.pl3     1 <0>        -1.2503
     23 H1         -0.9518    1.8634   -0.8649 H         1 <0>         0.1371
     24 H2          1.1162    2.8297   -1.7803 H         1 <0>         0.1370
     25 H3          3.2656    1.6801   -1.4743 H         1 <0>         0.1644
     26 H4         -0.8888   -0.2655    0.3586 H         1 <0>         0.1385
     27 H5          3.6524   -1.5562   -0.0057 H         1 <0>         0.4117
     28 H6          5.9859   -1.5402   -0.2221 H         1 <0>         0.4151
     29 H7          6.3607    1.8084    0.8212 H         1 <0>         0.1488
     30 H8          8.4715    3.0739    0.8031 H         1 <0>         0.1488
     31 H9         10.3492   -0.0709   -1.3828 H         1 <0>         0.1496
     32 H10         8.2461   -1.3492   -1.3608 H         1 <0>         0.1396
     33 H11        11.5188    1.3996    1.6689 H         1 <0>         0.4166
     34 H12        12.7599    2.4443    1.2318 H         1 <0>         0.4215
@<TRIPOS>BOND
     1    1    6 ar
     2    1    2 ar
     3    1   23 1
     4    2    3 ar
     5    2   24 1
     6    3    4 ar
     7    3   25 1
     8    4    5 ar
     9    4    9 1
    10    5    6 ar
    11    5    7 1
    12    6   26 1
    13    7    8 3
    14    9   10 am
    15    9   27 1
    16   10   11 2
    17   10   12 am
    18   12   13 1
    19   12   28 1
    20   13   18 ar
    21   13   14 ar
    22   14   15 ar
    23   14   29 1
    24   15   16 ar
    25   15   30 1
    26   16   17 ar
    27   16   19 1
    28   17   18 ar
    29   17   31 1
    30   18   32 1
    31   19   20 2
    32   19   21 2
    33   19   22 1
    34   22   33 1
    35   22   34 1
@<TRIPOS>MOLECULE
ZINC51355960
   40    41     0     0     0
SMALL
USER_CHARGES

@<TRIPOS>ATOM
      1 C1         -1.3552    1.3626    0.2425 C.3       1 <0>        -0.1166
      2 C2         -0.9110   -0.0721    0.1182 C.ar      1 <0>        -0.0687
      3 C3         -1.0799   -0.7466   -1.0752 C.ar      1 <0>        -0.1358
      4 C4         -0.6712   -2.0669   -1.1898 C.ar      1 <0>         0.1214
      5 C5         -0.0921   -2.7110   -0.1059 C.ar      1 <0>        -0.1946
      6 C6          0.0777   -2.0378    1.0875 C.ar      1 <0>        -0.0744
      7 C7         -0.3269   -0.7144    1.2014 C.ar      1 <0>         0.1153
      8 N1         -0.1501   -0.0289    2.4109 N.am      1 <0>        -0.6722
      9 C8         -0.2342   -0.6932    3.5805 C.2       1 <0>         0.7045
     10 O1         -0.3805   -1.9003    3.5850 O.2       1 <0>        -0.5501
     11 N2         -0.1562   -0.0195    4.7453 N.am      1 <0>        -0.6845
     12 C9         -0.1354   -0.7181    5.9576 C.ar      1 <0>         0.2277
     13 C10        -0.7380   -0.1744    7.0844 C.ar      1 <0>        -0.1686
     14 C11        -0.7157   -0.8664    8.2794 C.ar      1 <0>         0.0050
     15 C12        -0.0938   -2.0992    8.3548 C.ar      1 <0>        -0.6947
     16 C13         0.5071   -2.6433    7.2345 C.ar      1 <0>         0.0044
     17 C14         0.4829   -1.9591    6.0350 C.ar      1 <0>        -0.1433
     18 S1         -0.0666   -2.9783    9.8816 S.o2      1 <0>         2.7039
     19 O2          1.0486   -3.8571    9.8243 O.2       1 <0>        -0.9635
     20 O3         -0.2217   -2.0104   10.9103 O.2       1 <0>        -0.9643
     21 N3         -1.4195   -3.9323    9.9214 N.pl3     1 <0>        -1.2505
     22 O4         -0.8385   -2.7306   -2.3647 O.3       1 <0>        -0.3172
     23 C15        -0.3948   -4.0882   -2.4119 C.3       1 <0>         0.0262
     24 H1         -0.5354    2.0226   -0.0411 H         1 <0>         0.0760
     25 H2         -2.2067    1.5376   -0.4150 H         1 <0>         0.0762
     26 H3         -1.6447    1.5653    1.2737 H         1 <0>         0.0646
     27 H4         -1.5306   -0.2457   -1.9192 H         1 <0>         0.1363
     28 H5          0.2256   -3.7393   -0.1957 H         1 <0>         0.1325
     29 H6          0.5281   -2.5394    1.9313 H         1 <0>         0.1471
     30 H7          0.0329    0.9237    2.4062 H         1 <0>         0.4092
     31 H8         -0.1145    0.9496    4.7432 H         1 <0>         0.4136
     32 H9         -1.2232    0.7887    7.0264 H         1 <0>         0.1388
     33 H10        -1.1842   -0.4441    9.1561 H         1 <0>         0.1488
     34 H11         0.9923   -3.6062    7.2966 H         1 <0>         0.1476
     35 H12         0.9485   -2.3867    5.1593 H         1 <0>         0.1472
     36 H13        -2.0418   -3.9228    9.1774 H         1 <0>         0.4172
     37 H14        -1.5898   -4.5007   10.6888 H         1 <0>         0.4212
     38 H15         0.6742   -4.1285   -2.2024 H         1 <0>         0.0564
     39 H16        -0.9335   -4.6727   -1.6660 H         1 <0>         0.0566
     40 H17        -0.5865   -4.4988   -3.4032 H         1 <0>         0.1015
@<TRIPOS>BOND
     1    1    2 1
     2    1   24 1
     3    1   25 1
     4    1   26 1
     5    2    7 ar
     6    2    3 ar
     7    3    4 ar
     8    3   27 1
     9    4    5 ar
    10    4   22 1
    11    5    6 ar
    12    5   28 1
    13    6    7 ar
    14    6   29 1
    15    7    8 1
    16    8    9 am
    17    8   30 1
    18    9   10 2
    19    9   11 am
    20   11   12 1
    21   11   31 1
    22   12   17 ar
    23   12   13 ar
    24   13   14 ar
    25   13   32 1
    26   14   15 ar
    27   14   33 1
    28   15   16 ar
    29   15   18 1
    30   16   17 ar
    31   16   34 1
    32   17   35 1
    33   18   19 2
    34   18   20 2
    35   18   21 1
    36   21   36 1
    37   21   37 1
    38   22   23 1
    39   23   38 1
    40   23   39 1
    41   23   40 1
@<TRIPOS>MOLECULE
ZINC10407901
   44    47     0     0     0
SMALL
USER_CHARGES

@<TRIPOS>ATOM
      1 C1          1.8026    2.6924   -2.0221 C.ar      1 <0>        -0.1122
      2 C2          1.0831    1.9829   -1.0772 C.ar      1 <0>        -0.1203
      3 C3          1.5685    0.7887   -0.5867 C.ar      1 <0>        -0.0962
      4 C4          2.7905    0.2920   -1.0448 C.ar      1 <0>        -0.0570
      5 C5          3.5070    1.0130   -1.9961 C.ar      1 <0>        -0.0900
      6 C6          3.0142    2.2063   -2.4804 C.ar      1 <0>        -0.1015
      7 C7          4.7693    0.2422   -2.2954 C.3       1 <0>        -0.0445
      8 C8          4.7189   -0.9929   -1.4295 C.ar      1 <0>        -0.0677
      9 C9          3.5357   -0.9426   -0.6956 C.ar      1 <0>        -0.0699
     10 C10         3.2354   -1.9754    0.1953 C.ar      1 <0>        -0.0735
     11 C11         4.1055   -3.0336    0.3438 C.ar      1 <0>        -0.1423
     12 C12         5.2841   -3.0774   -0.3908 C.ar      1 <0>         0.1658
     13 C13         5.5870   -2.0512   -1.2786 C.ar      1 <0>        -0.1012
     14 N1          6.1650   -4.1525   -0.2370 N.am      1 <0>        -0.6761
     15 C14         7.4934   -3.9573   -0.3542 C.2       1 <0>         0.7040
     16 O1          7.9321   -2.8327   -0.4998 O.2       1 <0>        -0.5443
     17 N2          8.3355   -5.0087   -0.3101 N.am      1 <0>        -0.6834
     18 C15         9.7188   -4.7981   -0.3227 C.ar      1 <0>         0.2266
     19 C16        10.2566   -3.6707    0.2840 C.ar      1 <0>        -0.1441
     20 C17        11.6224   -3.4660    0.2703 C.ar      1 <0>         0.0049
     21 C18        12.4542   -4.3823   -0.3468 C.ar      1 <0>        -0.6945
     22 C19        11.9218   -5.5058   -0.9522 C.ar      1 <0>         0.0052
     23 C20        10.5573   -5.7191   -0.9369 C.ar      1 <0>        -0.1688
     24 S1         14.1961   -4.1175   -0.3621 S.o2      1 <0>         2.7030
     25 O2         14.7069   -4.8394   -1.4744 O.2       1 <0>        -0.9638
     26 O3         14.3958   -2.7194   -0.2045 O.2       1 <0>        -0.9625
     27 N3         14.8131   -4.8396    0.9945 N.pl3     1 <0>        -1.2503
     28 H1          1.4159    3.6249   -2.4058 H         1 <0>         0.1277
     29 H2          0.1378    2.3658   -0.7219 H         1 <0>         0.1267
     30 H3          1.0040    0.2383    0.1514 H         1 <0>         0.1226
     31 H4          3.5741    2.7617   -3.2183 H         1 <0>         0.1257
     32 H5          4.7969   -0.0385   -3.3482 H         1 <0>         0.1018
     33 H6          5.6439    0.8418   -2.0431 H         1 <0>         0.1034
     34 H7          2.3206   -1.9445    0.7686 H         1 <0>         0.1293
     35 H8          3.8709   -3.8309    1.0335 H         1 <0>         0.1311
     36 H9          6.5026   -2.0844   -1.8504 H         1 <0>         0.1391
     37 H10         5.8200   -5.0387   -0.0459 H         1 <0>         0.4115
     38 H11         7.9826   -5.9113   -0.2696 H         1 <0>         0.4139
     39 H12         9.6075   -2.9545    0.7658 H         1 <0>         0.1482
     40 H13        12.0413   -2.5892    0.7416 H         1 <0>         0.1479
     41 H14        12.5740   -6.2194   -1.4336 H         1 <0>         0.1489
     42 H15        10.1425   -6.5992   -1.4057 H         1 <0>         0.1390
     43 H16        14.2213   -5.2966    1.6124 H         1 <0>         0.4165
     44 H17        15.7663   -4.8056    1.1711 H         1 <0>         0.4213
@<TRIPOS>BOND
     1    1    6 ar
     2    1    2 ar
     3    1   28 1
     4    2    3 ar
     5    2   29 1
     6    3    4 ar
     7    3   30 1
     8    4    9 1
     9    4    5 ar
    10    5    6 ar
    11    5    7 1
    12    6   31 1
    13    7    8 1
    14    7   32 1
    15    7   33 1
    16    8   13 ar
    17    8    9 ar
    18    9   10 ar
    19   10   11 ar
    20   10   34 1
    21   11   12 ar
    22   11   35 1
    23   12   13 ar
    24   12   14 1
    25   13   36 1
    26   14   15 am
    27   14   37 1
    28   15   16 2
    29   15   17 am
    30   17   18 1
    31   17   38 1
    32   18   23 ar
    33   18   19 ar
    34   19   20 ar
    35   19   39 1
    36   20   21 ar
    37   20   40 1
    38   21   22 ar
    39   21   24 1
    40   22   23 ar
    41   22   41 1
    42   23   42 1
    43   24   25 2
    44   24   26 2
    45   24   27 1
    46   27   43 1
    47   27   44 1
@<TRIPOS>MOLECULE
ZINC18172548
   39    40     0     0     0
SMALL
USER_CHARGES

@<TRIPOS>ATOM
      1 C1         -0.9835   -2.1820   -2.3483 C.3       1 <0>        -0.1152
      2 C2         -0.2022   -1.7692   -1.1275 C.ar      1 <0>        -0.0615
      3 C3          0.6690   -0.6975   -1.1949 C.ar      1 <0>        -0.1343
      4 C4          1.3878   -0.3155   -0.0770 C.ar      1 <0>        -0.0604
      5 C5          1.2374   -1.0039    1.1108 C.ar      1 <0>        -0.1260
      6 C6          0.3630   -2.0804    1.1819 C.ar      1 <0>         0.1650
      7 C7         -0.3613   -2.4582    0.0589 C.ar      1 <0>        -0.1517
      8 N1          0.2085   -2.7800    2.3839 N.am      1 <0>        -0.6778
      9 C8          0.3108   -2.1298    3.5600 C.2       1 <0>         0.7040
     10 O1          0.4434   -0.9213    3.5771 O.2       1 <0>        -0.5447
     11 N2          0.2663   -2.8192    4.7173 N.am      1 <0>        -0.6841
     12 C9          0.2634   -2.1365    5.9388 C.ar      1 <0>         0.2271
     13 C10        -0.3580   -0.8989    6.0427 C.ar      1 <0>        -0.1442
     14 C11        -0.3591   -0.2276    7.2497 C.ar      1 <0>         0.0049
     15 C12         0.2581   -0.7863    8.3538 C.ar      1 <0>        -0.6948
     16 C13         0.8777   -2.0184    8.2536 C.ar      1 <0>         0.0052
     17 C14         0.8770   -2.6976    7.0510 C.ar      1 <0>        -0.1692
     18 S1          0.2554    0.0740    9.8915 S.o2      1 <0>         2.7032
     19 O2          1.3692   -0.4100   10.6296 O.2       1 <0>        -0.9638
     20 O3          0.0843    1.4512    9.5862 O.2       1 <0>        -0.9626
     21 N3         -1.1005   -0.4002   10.7155 N.pl3     1 <0>        -1.2503
     22 C15         2.3365    0.8528   -0.1551 C.3       1 <0>        -0.1157
     23 H1         -1.9303   -1.6426   -2.3732 H         1 <0>         0.0726
     24 H2         -0.4083   -1.9480   -3.2441 H         1 <0>         0.0692
     25 H3         -1.1770   -3.2540   -2.3104 H         1 <0>         0.0669
     26 H4          0.7886   -0.1578   -2.1227 H         1 <0>         0.1243
     27 H5          1.7996   -0.7056    1.9834 H         1 <0>         0.1353
     28 H6         -1.0452   -3.2923    0.1121 H         1 <0>         0.1248
     29 H7          0.0277   -3.7329    2.3707 H         1 <0>         0.4098
     30 H8          0.2363   -3.7887    4.7034 H         1 <0>         0.4135
     31 H9         -0.8396   -0.4618    5.1805 H         1 <0>         0.1480
     32 H10        -0.8422    0.7349    7.3311 H         1 <0>         0.1478
     33 H11         1.3592   -2.4519    9.1177 H         1 <0>         0.1488
     34 H12         1.3573   -3.6619    6.9745 H         1 <0>         0.1389
     35 H13        -1.7092   -1.0428   10.3188 H         1 <0>         0.4165
     36 H14        -1.2860   -0.0353   11.5949 H         1 <0>         0.4212
     37 H15         1.8048    1.7701    0.0978 H         1 <0>         0.0738
     38 H16         3.1563    0.7026    0.5473 H         1 <0>         0.0671
     39 H17         2.7344    0.9307   -1.1668 H         1 <0>         0.0685
@<TRIPOS>BOND
     1    1    2 1
     2    1   23 1
     3    1   24 1
     4    1   25 1
     5    2    7 ar
     6    2    3 ar
     7    3    4 ar
     8    3   26 1
     9    4    5 ar
    10    4   22 1
    11    5    6 ar
    12    5   27 1
    13    6    7 ar
    14    6    8 1
    15    7   28 1
    16    8    9 am
    17    8   29 1
    18    9   10 2
    19    9   11 am
    20   11   12 1
    21   11   30 1
    22   12   17 ar
    23   12   13 ar
    24   13   14 ar
    25   13   31 1
    26   14   15 ar
    27   14   32 1
    28   15   16 ar
    29   15   18 1
    30   16   17 ar
    31   16   33 1
    32   17   34 1
    33   18   19 2
    34   18   20 2
    35   18   21 1
    36   21   35 1
    37   21   36 1
    38   22   37 1
    39   22   38 1
    40   22   39 1
@<TRIPOS>MOLECULE
ZINC12914717
   40    42     0     0     0
SMALL
USER_CHARGES

@<TRIPOS>ATOM
      1 C1          0.9623   -0.4508   -1.2222 C.ar      1 <0>        -0.1438
      2 C2          2.1333    0.2611   -1.3937 C.ar      1 <0>         0.0047
      3 C3          2.3523    1.4194   -0.6708 C.ar      1 <0>        -0.6947
      4 C4          1.4000    1.8690    0.2255 C.ar      1 <0>         0.0050
      5 C5          0.2267    1.1619    0.4013 C.ar      1 <0>        -0.1689
      6 C6          0.0040   -0.0019   -0.3229 C.ar      1 <0>         0.2269
      7 N1         -1.1835   -0.7209   -0.1468 N.am      1 <0>        -0.6840
      8 C7         -1.1812   -2.0640   -0.2593 C.2       1 <0>         0.7043
      9 O1         -0.1329   -2.6587   -0.4201 O.2       1 <0>        -0.5452
     10 N2         -2.3407   -2.7478   -0.1936 N.am      1 <0>        -0.6767
     11 C8         -2.3293   -4.1470   -0.2014 C.ar      1 <0>         0.1575
     12 C9         -1.2801   -4.8384    0.3902 C.ar      1 <0>        -0.1173
     13 C10        -1.2739   -6.2181    0.3796 C.ar      1 <0>        -0.0863
     14 C11        -2.3097   -6.9175   -0.2187 C.ar      1 <0>        -0.1087
     15 C12        -3.3557   -6.2319   -0.8087 C.ar      1 <0>        -0.0781
     16 C13        -3.3687   -4.8482   -0.7952 C.ar      1 <0>        -0.1316
     17 C14        -4.3506   -7.2155   -1.3869 C.3       1 <0>        -0.0820
     18 C15        -3.5899   -8.5556   -1.4737 C.3       1 <0>        -0.1213
     19 C16        -2.5312   -8.4084   -0.3604 C.3       1 <0>        -0.0828
     20 S1          3.8481    2.3241   -0.8917 S.o2      1 <0>         2.7034
     21 O2          4.0491    3.0734    0.2988 O.2       1 <0>        -0.9639
     22 O3          4.8113    1.4024   -1.3834 O.2       1 <0>        -0.9626
     23 N3          3.5821    3.4218   -2.1027 N.pl3     1 <0>        -1.2504
     24 H1          0.7901   -1.3531   -1.7901 H         1 <0>         0.1480
     25 H2          2.8790   -0.0874   -2.0929 H         1 <0>         0.1478
     26 H3          1.5741    2.7738    0.7889 H         1 <0>         0.1488
     27 H4         -0.5165    1.5133    1.1016 H         1 <0>         0.1389
     28 H5         -2.0084   -0.2527    0.0563 H         1 <0>         0.4136
     29 H6         -3.1832   -2.2699   -0.1409 H         1 <0>         0.4097
     30 H7         -0.4705   -4.2973    0.8573 H         1 <0>         0.1374
     31 H8         -0.4577   -6.7555    0.8395 H         1 <0>         0.1254
     32 H9         -4.1881   -4.3127   -1.2517 H         1 <0>         0.1237
     33 H10        -5.2133   -7.3123   -0.7278 H         1 <0>         0.0818
     34 H11        -4.6662   -6.8948   -2.3797 H         1 <0>         0.0758
     35 H12        -4.2560   -9.3933   -1.2667 H         1 <0>         0.0782
     36 H13        -3.1145   -8.6689   -2.4479 H         1 <0>         0.0733
     37 H14        -1.6044   -8.9024   -0.6521 H         1 <0>         0.0759
     38 H15        -2.9051   -8.8257    0.5746 H         1 <0>         0.0807
     39 H16         2.7159    3.4642   -2.5372 H         1 <0>         0.4165
     40 H17         4.2924    4.0225   -2.3774 H         1 <0>         0.4212
@<TRIPOS>BOND
     1    1    6 ar
     2    1    2 ar
     3    1   24 1
     4    2    3 ar
     5    2   25 1
     6    3    4 ar
     7    3   20 1
     8    4    5 ar
     9    4   26 1
    10    5    6 ar
    11    5   27 1
    12    6    7 1
    13    7    8 am
    14    7   28 1
    15    8    9 2
    16    8   10 am
    17   10   11 1
    18   10   29 1
    19   11   16 ar
    20   11   12 ar
    21   12   13 ar
    22   12   30 1
    23   13   14 ar
    24   13   31 1
    25   14   19 1
    26   14   15 ar
    27   15   16 ar
    28   15   17 1
    29   16   32 1
    30   17   18 1
    31   17   33 1
    32   17   34 1
    33   18   19 1
    34   18   35 1
    35   18   36 1
    36   19   37 1
    37   19   38 1
    38   20   21 2
    39   20   22 2
    40   20   23 1
    41   23   39 1
    42   23   40 1
@<TRIPOS>MOLECULE
ZINC00896918
   22    22     0     0     0
SMALL
USER_CHARGES

@<TRIPOS>ATOM
      1 C1         -0.0167    1.3778    0.0096 C.ar      1 <0>         0.0974
      2 C2          1.1707    2.0862    0.0021 C.ar      1 <0>        -0.6868
      3 C3          2.3777    1.4131   -0.0135 C.ar      1 <0>         0.0588
      4 C4          2.3983    0.0299   -0.0210 C.ar      1 <0>        -0.0734
      5 C5          1.2094   -0.6794   -0.0130 C.ar      1 <0>         0.1016
      6 C6          0.0021   -0.0041    0.0020 C.ar      1 <0>        -0.6843
      7 S1         -1.5117   -0.9057    0.0122 S.o2      1 <0>         2.7000
      8 O1         -1.3921   -1.8888    1.0313 O.2       1 <0>        -0.9349
      9 O2         -2.5575    0.0562    0.0006 O.2       1 <0>        -0.9450
     10 N1         -1.6044   -1.7230   -1.4251 N.pl3     1 <0>        -1.2435
     11 Cl1         1.2335   -2.4152   -0.0231 Cl        1 <0>         0.0087
     12 Cl2         3.9142   -0.8161   -0.0412 Cl        1 <0>        -0.0140
     13 S2          1.1451    3.8480    0.0117 S.o2      1 <0>         2.7054
     14 O3          2.3791    4.2752   -0.5486 O.2       1 <0>        -0.9481
     15 O4         -0.1113    4.2388   -0.5251 O.2       1 <0>        -0.9447
     16 N2          1.1530    4.3291    1.5963 N.pl3     1 <0>        -1.2462
     17 H1         -0.9593    1.9047    0.0259 H         1 <0>         0.1825
     18 H2          3.3048    1.9671   -0.0201 H         1 <0>         0.1751
     19 H3         -0.8907   -1.6407   -2.0768 H         1 <0>         0.4176
     20 H4         -2.3725   -2.2840   -1.6154 H         1 <0>         0.4278
     21 H5          1.1694    3.6663    2.3043 H         1 <0>         0.4190
     22 H6          1.1413    5.2737    1.8164 H         1 <0>         0.4268
@<TRIPOS>BOND
     1    1    6 ar
     2    1    2 ar
     3    1   17 1
     4    2    3 ar
     5    2   13 1
     6    3    4 ar
     7    3   18 1
     8    4    5 ar
     9    4   12 1
    10    5    6 ar
    11    5   11 1
    12    6    7 1
    13    7    8 2
    14    7    9 2
    15    7   10 1
    16   10   19 1
    17   10   20 1
    18   13   14 2
    19   13   15 2
    20   13   16 1
    21   16   21 1
    22   16   22 1
@<TRIPOS>MOLECULE
ZINC00056721
   26    27     0     0     0
SMALL
USER_CHARGES

@<TRIPOS>ATOM
      1 C1         -0.0187    1.5258    0.0104 C.3       1 <0>        -0.1547
      2 C2          0.0021   -0.0041    0.0020 C.3       1 <0>         0.0492
      3 O1          0.6932   -0.4774    1.1597 O.3       1 <0>        -0.3006
      4 C3          0.8020   -1.8247    1.3057 C.ar      1 <0>         0.1921
      5 C4          0.2604   -2.6828    0.3521 C.ar      1 <0>        -0.2018
      6 C5          0.3546   -4.0332    0.4731 C.ar      1 <0>         0.0140
      7 C6          1.0107   -4.6197    1.5806 C.ar      1 <0>        -0.0020
      8 C7          1.5510   -3.7250    2.5328 C.ar      1 <0>        -0.0796
      9 C8          1.4586   -2.3607    2.4030 C.ar      1 <0>        -0.1219
     10 S1          2.2658   -4.8318    3.7244 S.3       1 <0>         0.1249
     11 C9          1.8165   -6.3576    2.9091 C.2       1 <0>        -0.4422
     12 N1          1.1890   -5.9318    1.8469 N.2       1 <0>        -0.3736
     13 S2          2.1387   -8.0154    3.4117 S.o2      1 <0>         2.7381
     14 O2          3.5473   -8.1923    3.3489 O.2       1 <0>        -0.9371
     15 O3          1.3964   -8.2298    4.6043 O.2       1 <0>        -0.9317
     16 N2          1.4848   -9.0116    2.2617 N.pl3     1 <0>        -1.2315
     17 H1          1.0039    1.9031    0.0027 H         1 <0>         0.0693
     18 H2         -0.5459    1.8868   -0.8726 H         1 <0>         0.0837
     19 H3         -0.5289    1.8773    0.9072 H         1 <0>         0.0693
     20 H4         -1.0205   -0.3814    0.0098 H         1 <0>         0.0697
     21 H5          0.5123   -0.3556   -0.8948 H         1 <0>         0.0697
     22 H6         -0.2474   -2.2649   -0.5046 H         1 <0>         0.1477
     23 H7         -0.0778   -4.6673   -0.2867 H         1 <0>         0.1464
     24 H8          1.8895   -1.7116    3.1509 H         1 <0>         0.1511
     25 H9          1.8842   -9.8780    2.0868 H         1 <0>         0.4270
     26 H10         0.7024   -8.7286    1.7631 H         1 <0>         0.4245
@<TRIPOS>BOND
     1    1    2 1
     2    1   17 1
     3    1   18 1
     4    1   19 1
     5    2    3 1
     6    2   20 1
     7    2   21 1
     8    3    4 1
     9    4    9 ar
    10    4    5 ar
    11    5    6 ar
    12    5   22 1
    13    6    7 ar
    14    6   23 1
    15    7   12 1
    16    7    8 ar
    17    8    9 ar
    18    8   10 1
    19    9   24 1
    20   10   11 1
    21   11   12 2
    22   11   13 1
    23   13   14 2
    24   13   15 2
    25   13   16 1
    26   16   25 1
    27   16   26 1
@<TRIPOS>MOLECULE
ZINC12503151
   23    23     0     0     0
SMALL
NO_CHARGES

@<TRIPOS>ATOM
      1 C1         -0.3789    1.0705    0.3515 C.3       1 <0>        -0.1347
      2 C2          0.5076   -0.1196    0.0888 C.2       1 <0>         0.4551
      3 O1          1.3641   -0.4298    0.8951 O.3       1 <0>        -0.3923
      4 N1          0.3540   -0.8288   -1.0216 N.2       1 <0>        -0.6178
      5 C3         -0.0468   -2.1007   -0.9514 C.2       1 <0>         0.3126
      6 N2         -0.4722   -2.7924    0.1303 N.pl3     1 <0>        -0.4005
      7 N3         -0.8397   -4.1105   -0.0380 N.pl3     1 <0>        -0.2827
      8 C4         -0.7560   -4.6173   -1.2349 C.2       1 <0>        -0.3295
      9 S1         -0.1544   -3.2357   -2.1872 S.3       1 <0>         0.3047
     10 S2         -1.1447   -6.2486   -1.7756 S.o2      1 <0>         2.5478
     11 O2         -0.0915   -6.6516   -2.6403 O.2       1 <0>        -0.9992
     12 O3         -1.5023   -6.9867   -0.6152 O.2       1 <0>        -1.0188
     13 N4         -2.5089   -6.1432   -2.7085 N.2       1 <0>        -1.2921
     14 C5         -0.5404   -2.1568    1.4485 C.3       1 <0>        -0.0096
     15 H1          0.0812    1.9657   -0.0669 H         1 <0>         0.1260
     16 H2         -1.3508    0.9096   -0.1151 H         1 <0>         0.1164
     17 H3         -0.5083    1.1970    1.4263 H         1 <0>         0.1126
     18 H4         -2.8882   -6.9430   -3.1051 H         1 <0>         0.3463
     19 H5         -0.8348   -1.1136    1.3340 H         1 <0>         0.0956
     20 H6         -1.2744   -2.6760    2.0647 H         1 <0>         0.1123
     21 H7          0.4374   -2.2079    1.9275 H         1 <0>         0.0918
     22 H8         -1.1502   -4.6433    0.7107 H         1 <0>         0.4270
     23 H9          1.8975   -1.1912    0.6290 H         1 <0>         0.4290
@<TRIPOS>BOND
     1    1    2 1
     2    1   15 1
     3    1   16 1
     4    1   17 1
     5    2    3 2
     6    2    4 1
     7    3   23 1
     8    4    5 2
     9    5    9 1
    10    5    6 1
    11    6    7 1
    12    6   14 1
    13    7    8 2
    14    7   22 1
    15    8    9 1
    16    8   10 1
    17   10   11 2
    18   10   12 2
    19   10   13 1
    20   13   18 1
    21   14   19 1
    22   14   20 1
    23   14   21 1
@<TRIPOS>MOLECULE
ZINC12503151
   23    23     0     0     0
SMALL
NO_CHARGES

@<TRIPOS>ATOM
      1 C1         -1.1346    0.9241    0.3407 C.3       1 <0>        -0.1307
      2 C2          0.0031   -0.0044    0.0020 C.2       1 <0>         0.4894
      3 O1          0.9224   -0.1509    0.7852 O.3       1 <0>        -0.3736
      4 N1          0.0020   -0.6621   -1.1500 N.2       1 <0>        -0.6464
      5 C3         -0.0802   -1.9949   -1.1578 C.2       1 <0>         0.3469
      6 N2          0.0027   -2.8388   -2.2117 N.pl3     1 <0>        -0.3538
      7 N3         -0.1119   -4.1925   -1.9774 N.pl3     1 <0>        -0.2782
      8 C4         -0.2944   -4.5840   -0.7486 C.2       1 <0>        -0.3302
      9 S1         -0.3048   -3.0391    0.1407 S.3       1 <0>         0.0989
     10 S2         -0.4768   -6.2215   -0.1244 S.o2      1 <0>         2.5579
     11 O2         -1.5476   -6.1834    0.8090 O.2       1 <0>        -1.0001
     12 O3         -0.4786   -7.0877   -1.2508 O.2       1 <0>        -1.0219
     13 N4          0.8919   -6.5715    0.7396 N.2       1 <0>        -1.2976
     14 C5          0.2086   -2.3268   -3.5688 C.3       1 <0>         0.0360
     15 H1         -0.9060    1.9262   -0.0224 H         1 <0>         0.1254
     16 H2         -2.0490    0.5661   -0.1324 H         1 <0>         0.1183
     17 H3         -1.2715    0.9518    1.4217 H         1 <0>         0.1209
     18 H4          0.9868   -7.4364    1.1685 H         1 <0>         0.3466
     19 H5          1.2771   -2.2630   -3.7748 H         1 <0>         0.0931
     20 H6         -0.2601   -3.0003   -4.2862 H         1 <0>         0.0994
     21 H7         -0.2378   -1.3362   -3.6550 H         1 <0>         0.1167
     22 H8         -0.0588   -4.8327   -2.7042 H         1 <0>         0.4514
     23 H9          1.5651   -0.8215    0.5163 H         1 <0>         0.4315
@<TRIPOS>BOND
     1    1    2 1
     2    1   15 1
     3    1   16 1
     4    1   17 1
     5    2    3 2
     6    2    4 1
     7    3   23 1
     8    4    5 2
     9    5    9 1
    10    5    6 1
    11    6    7 1
    12    6   14 1
    13    7    8 2
    14    7   22 1
    15    8    9 1
    16    8   10 1
    17   10   11 2
    18   10   12 2
    19   10   13 1
    20   13   18 1
    21   14   19 1
    22   14   20 1
    23   14   21 1
@<TRIPOS>MOLECULE
ZINC03813042
   19    19     0     0     0
SMALL
USER_CHARGES

@<TRIPOS>ATOM
      1 C1         -0.0184    1.5028    0.0103 C.3       1 <0>        -0.1669
      2 C2          0.0021   -0.0041    0.0020 C.2       1 <0>         0.5048
      3 O1          1.0605   -0.5961   -0.0113 O.2       1 <0>        -0.4597
      4 N1         -1.1558   -0.6938    0.0094 N.am      1 <0>        -0.6127
      5 C3         -1.1370   -2.0844    0.0017 C.2       1 <0>         0.2593
      6 N2         -0.1026   -2.9019   -0.0067 N.2       1 <0>        -0.3105
      7 N3         -0.2439   -4.1575   -0.0130 N.2       1 <0>        -0.1075
      8 C4         -1.4599   -4.6659   -0.0111 C.2       1 <0>        -0.5832
      9 S1         -2.4308   -3.1653    0.0083 S.3       1 <0>         0.2359
     10 S2         -1.9811   -6.3490   -0.0183 S.o2      1 <0>         2.7480
     11 O2         -1.9574   -6.7873    1.3333 O.2       1 <0>        -0.9356
     12 O3         -3.1545   -6.4075   -0.8177 O.2       1 <0>        -0.9350
     13 N4         -0.8199   -7.2178   -0.8179 N.pl3     1 <0>        -1.2313
     14 H1          1.0042    1.8801    0.0026 H         1 <0>         0.1076
     15 H2         -0.5455    1.8639   -0.8728 H         1 <0>         0.1002
     16 H3         -0.5286    1.8543    0.9071 H         1 <0>         0.1002
     17 H4         -2.0023   -0.2203    0.0200 H         1 <0>         0.4348
     18 H5         -0.6611   -8.1456   -0.5837 H         1 <0>         0.4284
     19 H6         -0.2986   -6.7988   -1.5204 H         1 <0>         0.4232
@<TRIPOS>BOND
     1    1    2 1
     2    1   14 1
     3    1   15 1
     4    1   16 1
     5    2    3 2
     6    2    4 am
     7    4    5 1
     8    4   17 1
     9    5    9 1
    10    5    6 2
    11    6    7 1
    12    7    8 2
    13    8    9 1
    14    8   10 1
    15   10   11 2
    16   10   12 2
    17   10   13 1
    18   13   18 1
    19   13   19 1
@<TRIPOS>MOLECULE
ZINC03813042
   18    18     0     0     0
SMALL
USER_CHARGES

@<TRIPOS>ATOM
      1 C1         -0.0184    1.5028    0.0103 C.3       1 <0>        -0.1624
      2 C2          0.0021   -0.0041    0.0020 C.2       1 <0>         0.5010
      3 O1          0.0203   -0.6161    1.0490 O.2       1 <0>        -0.4698
      4 N1          0.0001   -0.6716   -1.1688 N.am      1 <0>        -0.6150
      5 C3          0.0189   -2.0622   -1.1765 C.2       1 <0>         0.2229
      6 N2          0.0342   -2.8992   -0.1578 N.2       1 <0>        -0.3133
      7 N3          0.0506   -4.1518   -0.3231 N.2       1 <0>        -0.1306
      8 C4          0.0525   -4.6369   -1.5486 C.2       1 <0>        -0.4261
      9 S1          0.0209   -3.1183   -2.4906 S.3       1 <0>         0.1375
     10 S2          0.0731   -6.3097   -2.1017 S.o2      1 <0>         2.6009
     11 O2         -1.2748   -6.7592   -2.0864 O.2       1 <0>        -1.0365
     12 O3          0.8728   -6.3393   -3.2760 O.2       1 <0>        -1.0415
     13 N4          0.8799   -7.1939   -0.9573 N.2       1 <0>        -1.3126
     14 H1          1.0042    1.8801    0.0026 H         1 <0>         0.1013
     15 H2         -0.5455    1.8639   -0.8728 H         1 <0>         0.0851
     16 H3         -0.5286    1.8543    0.9071 H         1 <0>         0.1022
     17 H4         -0.0145   -0.1822   -2.0061 H         1 <0>         0.4269
     18 H5          0.9999   -8.1489   -1.0779 H         1 <0>         0.3298
@<TRIPOS>BOND
     1    1    2 1
     2    1   14 1
     3    1   15 1
     4    1   16 1
     5    2    3 2
     6    2    4 am
     7    4    5 1
     8    4   17 1
     9    5    9 1
    10    5    6 2
    11    6    7 1
    12    7    8 2
    13    8    9 1
    14    8   10 1
    15   10   11 2
    16   10   12 2
    17   10   13 1
    18   13   18 1
@<TRIPOS>MOLECULE
ZINC00002101
   19    19     0     0     0
SMALL
USER_CHARGES

@<TRIPOS>ATOM
      1 C1         -0.0168    1.3849    0.0097 C.ar      1 <0>        -0.2192
      2 C2          1.1707    2.0901    0.0021 C.ar      1 <0>         0.0295
      3 C3          2.3774    1.4150   -0.0135 C.ar      1 <0>        -0.7336
      4 C4          2.3998    0.0323   -0.0211 C.ar      1 <0>         0.0295
      5 C5          1.2161   -0.6790   -0.0137 C.ar      1 <0>        -0.2192
      6 C6          0.0021   -0.0041    0.0020 C.ar      1 <0>         0.2713
      7 N1         -1.1970   -0.7204    0.0101 N.pl3     1 <0>        -0.8647
      8 S1          3.8900    2.3186   -0.0243 S.o2      1 <0>         2.7050
      9 O1          4.8717    1.4606   -0.5894 O.2       1 <0>        -0.9693
     10 O2          3.5945    3.5988   -0.5657 O.2       1 <0>        -0.9693
     11 N2          4.3264    2.5618    1.5546 N.pl3     1 <0>        -1.2522
     12 H1         -0.9589    1.9127    0.0260 H         1 <0>         0.1318
     13 H2          1.1567    3.1700    0.0080 H         1 <0>         0.1423
     14 H3          3.3440   -0.4918   -0.0333 H         1 <0>         0.1423
     15 H4          1.2342   -1.7588   -0.0200 H         1 <0>         0.1318
     16 H5         -2.0441   -0.2480    0.0210 H         1 <0>         0.4043
     17 H6         -1.1825   -1.6903    0.0047 H         1 <0>         0.4042
     18 H7          3.7678    2.2202    2.2703 H         1 <0>         0.4159
     19 H8          5.1405    3.0458    1.7638 H         1 <0>         0.4195
@<TRIPOS>BOND
     1    1    6 ar
     2    1    2 ar
     3    1   12 1
     4    2    3 ar
     5    2   13 1
     6    3    4 ar
     7    3    8 1
     8    4    5 ar
     9    4   14 1
    10    5    6 ar
    11    5   15 1
    12    6    7 1
    13    7   16 1
    14    7   17 1
    15    8    9 2
    16    8   10 2
    17    8   11 1
    18   11   18 1
    19   11   19 1
@<TRIPOS>MOLECULE
ZINC01530621
   36    37     0     0     0
SMALL
USER_CHARGES

@<TRIPOS>ATOM
      1 C1         -0.1492    1.5288   -2.3323 C.3       1 <0>        -0.1908
      2 C2         -0.1164   -0.0009   -2.3383 C.3       1 <0>        -0.0181
      3 N1          0.6897   -0.4778   -1.2066 N.4       1 <0>        -0.5107
      4 C3          0.6171   -1.9434   -1.1370 C.3       1 <0>         0.0811
      5 H1         -0.4294   -2.2430   -1.0818 H         1 <0>         0.1707
      6 C4          1.2315   -2.5278   -2.3982 C.3       1 <0>        -0.1422
      7 C5          1.0962   -4.0576   -2.4201 C.3       1 <0>        -0.5404
      8 H2          1.3613   -4.4411   -3.4054 H         1 <0>         0.1747
      9 S1          2.2539   -4.7069   -1.1650 S.o2      1 <0>         2.5047
     10 O1          3.5991   -4.5241   -1.5850 O.2       1 <0>        -0.8957
     11 O2          1.8041   -5.9618   -0.6729 O.2       1 <0>        -0.8922
     12 C6          2.0269   -3.5802    0.1606 C.2       1 <0>        -0.7063
     13 C7          1.3317   -2.4135    0.1206 C.2       1 <0>        -0.0916
     14 C8          1.3152   -1.6792    1.3120 C.2       1 <0>        -0.0530
     15 C9          1.9529   -2.1428    2.4103 C.2       1 <0>        -0.7342
     16 S2          2.6320   -3.6831    1.8188 S.3       1 <0>         0.4502
     17 S3          2.0784   -1.4167    4.0108 S.o2      1 <0>         2.7294
     18 O3          3.2503   -1.9529    4.6093 O.2       1 <0>        -0.9323
     19 O4          1.8813   -0.0198    3.8397 O.2       1 <0>        -0.9386
     20 N2          0.7966   -1.9699    4.9014 N.pl3     1 <0>        -1.2425
     21 C10        -0.3376   -4.4611   -2.0706 C.3       1 <0>        -0.1547
     22 H3         -0.5902    1.8790   -1.3990 H         1 <0>         0.0836
     23 H4          0.8664    1.9144   -2.4215 H         1 <0>         0.0841
     24 H5         -0.7473    1.8826   -3.1720 H         1 <0>         0.1120
     25 H6         -1.1320   -0.3865   -2.2491 H         1 <0>         0.1372
     26 H7          0.3246   -0.3511   -3.2716 H         1 <0>         0.1380
     27 H8          1.6496   -0.1943   -1.3342 H         1 <0>         0.4338
     28 H9          0.7251   -2.1113   -3.2689 H         1 <0>         0.1303
     29 H10         2.2877   -2.2615   -2.4382 H         1 <0>         0.1132
     30 H11         0.7901   -0.7364    1.3541 H         1 <0>         0.1546
     31 H12         0.1572   -2.5812    4.5032 H         1 <0>         0.4194
     32 H13         0.6850   -1.6827    5.8211 H         1 <0>         0.4322
     33 H14        -1.0243   -4.0299   -2.7990 H         1 <0>         0.0942
     34 H15        -0.4240   -5.5475   -2.0887 H         1 <0>         0.0985
     35 H16        -0.5861   -4.0934   -1.0750 H         1 <0>         0.0698
     36 H17         0.3332   -0.0823   -0.3495 H         1 <0>         0.4317
@<TRIPOS>BOND
     1    1    2 1
     2    1   22 1
     3    1   23 1
     4    1   24 1
     5    2    3 1
     6    2   25 1
     7    2   26 1
     8    3    4 1
     9    3   27 1
    10    3   36 1
    11    4    5 1
    12    4   13 1
    13    4    6 1
    14    6    7 1
    15    6   28 1
    16    6   29 1
    17    7    8 1
    18    7    9 1
    19    7   21 1
    20    9   10 2
    21    9   11 2
    22    9   12 1
    23   12   16 1
    24   12   13 2
    25   13   14 1
    26   14   15 2
    27   14   30 1
    28   15   16 1
    29   15   17 1
    30   17   18 2
    31   17   19 2
    32   17   20 1
    33   20   31 1
    34   20   32 1
    35   21   33 1
    36   21   34 1
    37   21   35 1
@<TRIPOS>MOLECULE
ZINC01530621
   35    36     0     0     0
SMALL
USER_CHARGES

@<TRIPOS>ATOM
      1 C1         -0.1492    1.5288   -2.3323 C.3       1 <0>        -0.1899
      2 C2         -0.1164   -0.0009   -2.3383 C.3       1 <0>        -0.0168
      3 N1          0.6897   -0.4778   -1.2066 N.4       1 <0>        -0.5101
      4 C3          0.6171   -1.9434   -1.1370 C.3       1 <0>         0.0836
      5 H1         -0.4294   -2.2430   -1.0818 H         1 <0>         0.1646
      6 C4          1.2315   -2.5278   -2.3982 C.3       1 <0>        -0.1369
      7 C5          1.0962   -4.0576   -2.4201 C.3       1 <0>        -0.5464
      8 H2          1.3613   -4.4411   -3.4054 H         1 <0>         0.1665
      9 S1          2.2539   -4.7069   -1.1650 S.o2      1 <0>         2.5192
     10 O1          3.5991   -4.5241   -1.5850 O.2       1 <0>        -0.9107
     11 O2          1.8041   -5.9618   -0.6729 O.2       1 <0>        -0.9035
     12 C6          2.0269   -3.5802    0.1606 C.2       1 <0>        -0.7471
     13 C7          1.3317   -2.4135    0.1206 C.2       1 <0>        -0.0802
     14 C8          1.3152   -1.6792    1.3120 C.2       1 <0>        -0.1090
     15 C9          1.9529   -2.1428    2.4103 C.2       1 <0>        -0.5881
     16 S2          2.6320   -3.6831    1.8188 S.3       1 <0>         0.3963
     17 S3          2.0784   -1.4167    4.0108 S.o2      1 <0>         2.5827
     18 O3          3.2503   -1.9529    4.6093 O.2       1 <0>        -1.0359
     19 O4          1.8813   -0.0198    3.8397 O.2       1 <0>        -1.0427
     20 N2          0.7966   -1.9699    4.9014 N.2       1 <0>        -1.3223
     21 C10        -0.3376   -4.4611   -2.0706 C.3       1 <0>        -0.1530
     22 H3         -0.5902    1.8790   -1.3990 H         1 <0>         0.0843
     23 H4          0.8664    1.9144   -2.4215 H         1 <0>         0.0823
     24 H5         -0.7473    1.8826   -3.1720 H         1 <0>         0.1074
     25 H6         -1.1320   -0.3865   -2.2491 H         1 <0>         0.1347
     26 H7          0.3246   -0.3511   -3.2716 H         1 <0>         0.1340
     27 H8          1.6496   -0.1943   -1.3342 H         1 <0>         0.4317
     28 H9          0.7251   -2.1113   -3.2689 H         1 <0>         0.1221
     29 H10         2.2877   -2.2615   -2.4382 H         1 <0>         0.1096
     30 H11         0.7901   -0.7364    1.3541 H         1 <0>         0.1443
     31 H12         0.6850   -1.6827    5.8211 H         1 <0>         0.3366
     32 H13        -1.0243   -4.0299   -2.7990 H         1 <0>         0.0883
     33 H14        -0.4240   -5.5475   -2.0887 H         1 <0>         0.0947
     34 H15        -0.5861   -4.0934   -1.0750 H         1 <0>         0.0739
     35 H16         0.3332   -0.0823   -0.3495 H         1 <0>         0.4358
@<TRIPOS>BOND
     1    1    2 1
     2    1   22 1
     3    1   23 1
     4    1   24 1
     5    2    3 1
     6    2   25 1
     7    2   26 1
     8    3    4 1
     9    3   27 1
    10    3   35 1
    11    4    5 1
    12    4   13 1
    13    4    6 1
    14    6    7 1
    15    6   28 1
    16    6   29 1
    17    7    8 1
    18    7    9 1
    19    7   21 1
    20    9   10 2
    21    9   11 2
    22    9   12 1
    23   12   16 1
    24   12   13 2
    25   13   14 1
    26   14   15 2
    27   14   30 1
    28   15   16 1
    29   15   17 1
    30   17   18 2
    31   17   19 2
    32   17   20 1
    33   20   31 1
    34   21   32 1
    35   21   33 1
    36   21   34 1
@<TRIPOS>MOLECULE
ZINC03953037
   45    46     0     0     0
SMALL
USER_CHARGES

@<TRIPOS>ATOM
      1 C1         -0.1443    1.5287   -2.3361 C.3       1 <0>        -0.1906
      2 C2         -0.1122   -0.0010   -2.3413 C.3       1 <0>        -0.0185
      3 N1          0.6897   -0.4778   -1.2066 N.4       1 <0>        -0.5081
      4 C3          0.6170   -1.9434   -1.1372 C.3       1 <0>         0.0658
      5 H1         -0.4299   -2.2419   -1.0821 H         1 <0>         0.1708
      6 C4          1.2290   -2.5266   -2.4008 C.3       1 <0>         0.0853
      7 N2          1.2178   -4.0017   -2.3725 N.pl3     1 <0>        -0.9751
      8 S1          2.1913   -4.6964   -1.1964 S.o2      1 <0>         2.6993
      9 O1          3.5356   -4.5934   -1.6450 O.2       1 <0>        -0.9052
     10 O2          1.5909   -5.9295   -0.8245 O.2       1 <0>        -0.9104
     11 C5          2.0056   -3.5925    0.1555 C.2       1 <0>        -0.7299
     12 C6          1.3290   -2.4121    0.1220 C.2       1 <0>        -0.0847
     13 C7          1.3364   -1.6821    1.3141 C.2       1 <0>        -0.0518
     14 C8          1.9728   -2.1632    2.4071 C.2       1 <0>        -0.7315
     15 S2          2.6159   -3.7161    1.8064 S.3       1 <0>         0.4568
     16 S3          2.1242   -1.4453    4.0091 S.o2      1 <0>         2.7294
     17 O3          3.2891   -2.0074    4.5975 O.2       1 <0>        -0.9316
     18 O4          1.9545   -0.0442    3.8439 O.2       1 <0>        -0.9372
     19 N3          0.8376   -1.9754    4.9067 N.pl3     1 <0>        -1.2424
     20 C9          0.4155   -4.8004   -3.3024 C.3       1 <0>         0.1263
     21 C10         1.1924   -4.9992   -4.6054 C.3       1 <0>        -0.1475
     22 C11         0.3545   -5.8334   -5.5765 C.3       1 <0>         0.0598
     23 O5          1.0801   -6.0191   -6.7935 O.3       1 <0>        -0.3912
     24 C12         0.3826   -6.7895   -7.7743 C.3       1 <0>         0.0300
     25 H2         -0.5884    1.8796   -1.4045 H         1 <0>         0.0836
     26 H3          0.8718    1.9137   -2.4219 H         1 <0>         0.0846
     27 H4         -0.7393    1.8825   -3.1781 H         1 <0>         0.1124
     28 H5         -1.1283   -0.3860   -2.2555 H         1 <0>         0.1382
     29 H6          0.3319   -0.3519   -3.2729 H         1 <0>         0.1384
     30 H7          1.6500   -0.1942   -1.3306 H         1 <0>         0.4345
     31 H8          0.6601   -2.1822   -3.2644 H         1 <0>         0.1336
     32 H9          2.2582   -2.1795   -2.4917 H         1 <0>         0.1084
     33 H10         0.8317   -0.7286    1.3630 H         1 <0>         0.1566
     34 H11         0.1832   -2.5721    4.5111 H         1 <0>         0.4194
     35 H12         0.7383   -1.6891    5.8282 H         1 <0>         0.4325
     36 H13         0.2008   -5.7712   -2.8556 H         1 <0>         0.1064
     37 H14        -0.5201   -4.2823   -3.5126 H         1 <0>         0.0967
     38 H15         1.4071   -4.0284   -5.0521 H         1 <0>         0.0821
     39 H16         2.1280   -5.5174   -4.3951 H         1 <0>         0.0798
     40 H17         0.1398   -6.8042   -5.1298 H         1 <0>         0.0563
     41 H18        -0.5811   -5.3152   -5.7868 H         1 <0>         0.0538
     42 H19         0.1684   -7.7802   -7.3732 H         1 <0>         0.0459
     43 H20        -0.5525   -6.2912   -8.0301 H         1 <0>         0.0441
     44 H21         0.9998   -6.8849   -8.6676 H         1 <0>         0.0916
     45 H22         0.3300   -0.0823   -0.3509 H         1 <0>         0.4332
@<TRIPOS>BOND
     1    1    2 1
     2    1   25 1
     3    1   26 1
     4    1   27 1
     5    2    3 1
     6    2   28 1
     7    2   29 1
     8    3    4 1
     9    3   30 1
    10    3   45 1
    11    4    5 1
    12    4   12 1
    13    4    6 1
    14    6    7 1
    15    6   31 1
    16    6   32 1
    17    7    8 1
    18    7   20 1
    19    8    9 2
    20    8   10 2
    21    8   11 1
    22   11   15 1
    23   11   12 2
    24   12   13 1
    25   13   14 2
    26   13   33 1
    27   14   15 1
    28   14   16 1
    29   16   17 2
    30   16   18 2
    31   16   19 1
    32   19   34 1
    33   19   35 1
    34   20   21 1
    35   20   36 1
    36   20   37 1
    37   21   22 1
    38   21   38 1
    39   21   39 1
    40   22   23 1
    41   22   40 1
    42   22   41 1
    43   23   24 1
    44   24   42 1
    45   24   43 1
    46   24   44 1
@<TRIPOS>MOLECULE
ZINC03953037
   44    45     0     0     0
SMALL
USER_CHARGES

@<TRIPOS>ATOM
      1 C1          2.0763    1.5400    1.0749 C.3       1 <0>        -0.1898
      2 C2          2.0886    0.0101    1.0747 C.3       1 <0>        -0.0171
      3 N1          0.7126   -0.4907    1.1921 N.4       1 <0>        -0.5075
      4 C3          0.7116   -1.9542    1.0652 C.3       1 <0>         0.0682
      5 H1          1.1917   -2.2265    0.1253 H         1 <0>         0.1647
      6 C4          1.5092   -2.5482    2.2152 C.3       1 <0>         0.0909
      7 N2          1.5133   -4.0226    2.1618 N.pl3     1 <0>        -0.9789
      8 S1          0.0190   -4.7457    2.4028 S.o2      1 <0>         2.7115
      9 O1         -0.2658   -4.6749    3.7932 O.2       1 <0>        -0.9213
     10 O2          0.0162   -5.9646    1.6724 O.2       1 <0>        -0.9224
     11 C5         -1.0762   -3.6422    1.5883 C.2       1 <0>        -0.7709
     12 C6         -0.7274   -2.4451    1.0428 C.2       1 <0>        -0.0734
     13 C7         -1.7749   -1.7197    0.4678 C.2       1 <0>        -0.1075
     14 C8         -3.0320   -2.2204    0.4627 C.2       1 <0>        -0.5845
     15 S2         -2.8090   -3.7869    1.2888 S.3       1 <0>         0.4019
     16 S3         -4.5062   -1.5121   -0.1927 S.o2      1 <0>         2.5818
     17 O3         -5.5893   -2.1053    0.5104 O.2       1 <0>        -1.0351
     18 O4         -4.3002   -0.1066   -0.2291 O.2       1 <0>        -1.0413
     19 N3         -4.6325   -2.0129   -1.7661 N.2       1 <0>        -1.3217
     20 C9          2.7319   -4.7977    1.9161 C.3       1 <0>         0.1279
     21 C10         3.4753   -5.0114    3.2362 C.3       1 <0>        -0.1467
     22 C11         4.7480   -5.8209    2.9796 C.3       1 <0>         0.0605
     23 O5          5.4423   -6.0204    4.2126 O.3       1 <0>        -0.3916
     24 C12         6.6522   -6.7697    4.0836 C.3       1 <0>         0.0305
     25 H2          1.6368    1.8998    2.0052 H         1 <0>         0.0828
     26 H3          3.0973    1.9116    0.9877 H         1 <0>         0.1079
     27 H4          1.4859    1.8987    0.2317 H         1 <0>         0.0843
     28 H5          2.5280   -0.3497    0.1444 H         1 <0>         0.1356
     29 H6          2.6789   -0.3486    1.9179 H         1 <0>         0.1344
     30 H7          0.3357   -0.2309    2.0913 H         1 <0>         0.4324
     31 H8          2.5361   -2.1866    2.1612 H         1 <0>         0.1259
     32 H9          1.0682   -2.2267    3.1587 H         1 <0>         0.1045
     33 H10        -1.5798   -0.7540    0.0254 H         1 <0>         0.1463
     34 H11        -5.3853   -1.7274   -2.3070 H         1 <0>         0.3370
     35 H12         2.4675   -5.7644    1.4875 H         1 <0>         0.1042
     36 H13         3.3735   -4.2555    1.2215 H         1 <0>         0.0930
     37 H14         3.7397   -4.0447    3.6649 H         1 <0>         0.0806
     38 H15         2.8337   -5.5536    3.9308 H         1 <0>         0.0792
     39 H16         4.4835   -6.7875    2.5510 H         1 <0>         0.0562
     40 H17         5.3896   -5.2787    2.2850 H         1 <0>         0.0533
     41 H18         6.4273   -7.7561    3.6779 H         1 <0>         0.0449
     42 H19         7.3333   -6.2472    3.4119 H         1 <0>         0.0428
     43 H20         7.1190   -6.8774    5.0627 H         1 <0>         0.0893
     44 H21         0.1450   -0.0893    0.4608 H         1 <0>         0.4372
@<TRIPOS>BOND
     1    1    2 1
     2    1   25 1
     3    1   26 1
     4    1   27 1
     5    2    3 1
     6    2   28 1
     7    2   29 1
     8    3    4 1
     9    3   30 1
    10    3   44 1
    11    4    5 1
    12    4   12 1
    13    4    6 1
    14    6    7 1
    15    6   31 1
    16    6   32 1
    17    7    8 1
    18    7   20 1
    19    8    9 2
    20    8   10 2
    21    8   11 1
    22   11   15 1
    23   11   12 2
    24   12   13 1
    25   13   14 2
    26   13   33 1
    27   14   15 1
    28   14   16 1
    29   16   17 2
    30   16   18 2
    31   16   19 1
    32   19   34 1
    33   20   21 1
    34   20   35 1
    35   20   36 1
    36   21   22 1
    37   21   37 1
    38   21   38 1
    39   22   23 1
    40   22   39 1
    41   22   40 1
    42   23   24 1
    43   24   41 1
    44   24   42 1
    45   24   43 1
@<TRIPOS>MOLECULE
ZINC01530804
   42    44     0     0     0
SMALL
USER_CHARGES

@<TRIPOS>ATOM
      1 C1         -0.1414    1.1782    1.1025 C.3       1 <0>        -0.1657
      2 C2         -0.0047   -0.3406    0.9788 C.3       1 <0>         0.2393
      3 O1          0.4336   -0.6809   -0.3520 O.3       1 <0>        -0.3486
      4 C3          1.8586   -0.8253   -0.2194 C.3       1 <0>         0.0180
      5 H1          2.3279    0.1582   -0.1959 H         1 <0>         0.0955
      6 C4          2.4671   -1.6561   -1.3282 C.3       1 <0>         0.0615
      7 O2          1.9135   -2.9701   -1.3154 O.3       1 <0>        -0.3068
      8 C5          2.1315   -3.6952   -0.1268 C.3       1 <0>         0.2582
      9 C6          1.5886   -2.9749    1.1170 C.3       1 <0>         0.0223
     10 H2          0.5124   -3.1112    1.2238 H         1 <0>         0.1391
     11 C7          1.9968   -1.5000    1.1552 C.3       1 <0>         0.0492
     12 H3          2.9929   -1.3657    1.5768 H         1 <0>         0.1317
     13 O3          0.9684   -0.8158    1.9209 O.3       1 <0>        -0.3662
     14 O4          2.3254   -3.6306    2.1835 O.3       1 <0>        -0.3622
     15 C8          3.5307   -4.1478    1.6005 C.3       1 <0>         0.2431
     16 O5          3.5253   -3.8561    0.1888 O.3       1 <0>        -0.3666
     17 C9          4.7443   -3.4871    2.2574 C.3       1 <0>        -0.1505
     18 C10         3.5958   -5.6617    1.8124 C.3       1 <0>        -0.1864
     19 C11         1.4685   -5.0698   -0.2356 C.3       1 <0>         0.0825
     20 O6          2.1389   -5.8445   -1.2317 O.3       1 <0>        -0.7265
     21 S1          1.5597   -7.2386   -1.4254 S.o2      1 <0>         2.6826
     22 O7          2.4548   -7.9350   -2.2815 O.2       1 <0>        -1.0652
     23 O8          1.2135   -7.7177   -0.1332 O.2       1 <0>        -1.0999
     24 N1          0.1411   -7.0674   -2.2625 N.2       1 <0>        -1.3687
     25 C12        -1.3558   -1.0027    1.2569 C.3       1 <0>        -0.1582
     26 H4          0.8207    1.6475    0.8968 H         1 <0>         0.0616
     27 H5         -0.8808    1.5361    0.3860 H         1 <0>         0.0773
     28 H6         -0.4614    1.4331    2.1128 H         1 <0>         0.0749
     29 H7          2.2585   -1.1852   -2.2889 H         1 <0>         0.1202
     30 H8          3.5458   -1.7168   -1.1842 H         1 <0>         0.0862
     31 H9          4.7535   -3.7210    3.3219 H         1 <0>         0.0808
     32 H10         5.6571   -3.8626    1.7950 H         1 <0>         0.0792
     33 H11         4.6869   -2.4069    2.1231 H         1 <0>         0.0625
     34 H12         2.5933   -6.0827    1.7363 H         1 <0>         0.0832
     35 H13         4.2360   -6.1079    1.0514 H         1 <0>         0.0832
     36 H14         4.0046   -5.8730    2.8005 H         1 <0>         0.0768
     37 H15         1.5314   -5.5806    0.7253 H         1 <0>         0.1099
     38 H16         0.4218   -4.9473   -0.5141 H         1 <0>         0.1013
     39 H17        -0.3863   -7.8495   -2.4881 H         1 <0>         0.3260
     40 H18        -2.0938   -0.6361    0.5434 H         1 <0>         0.0779
     41 H19        -1.2583   -2.0836    1.1559 H         1 <0>         0.0696
     42 H20        -1.6777   -0.7600    2.2696 H         1 <0>         0.0781
@<TRIPOS>BOND
     1    1    2 1
     2    1   26 1
     3    1   27 1
     4    1   28 1
     5    2   13 1
     6    2    3 1
     7    2   25 1
     8    3    4 1
     9    4    5 1
    10    4   11 1
    11    4    6 1
    12    6    7 1
    13    6   29 1
    14    6   30 1
    15    7    8 1
    16    8   16 1
    17    8    9 1
    18    8   19 1
    19    9   10 1
    20    9   11 1
    21    9   14 1
    22   11   12 1
    23   11   13 1
    24   14   15 1
    25   15   16 1
    26   15   17 1
    27   15   18 1
    28   17   31 1
    29   17   32 1
    30   17   33 1
    31   18   34 1
    32   18   35 1
    33   18   36 1
    34   19   20 1
    35   19   37 1
    36   19   38 1
    37   20   21 1
    38   21   22 2
    39   21   23 2
    40   21   24 1
    41   24   39 1
    42   25   40 1
    43   25   41 1
    44   25   42 1
@<TRIPOS>MOLECULE
ZINC01530804
   43    45     0     0     0
SMALL
USER_CHARGES

@<TRIPOS>ATOM
      1 C1         -0.1414    1.1782    1.1025 C.3       1 <0>        -0.1689
      2 C2         -0.0047   -0.3406    0.9788 C.3       1 <0>         0.2400
      3 O1          0.4336   -0.6809   -0.3520 O.3       1 <0>        -0.3516
      4 C3          1.8586   -0.8253   -0.2194 C.3       1 <0>         0.0156
      5 H1          2.3279    0.1582   -0.1959 H         1 <0>         0.1022
      6 C4          2.4671   -1.6561   -1.3282 C.3       1 <0>         0.0660
      7 O2          1.9135   -2.9701   -1.3154 O.3       1 <0>        -0.3195
      8 C5          2.1315   -3.6952   -0.1268 C.3       1 <0>         0.2579
      9 C6          1.5886   -2.9749    1.1170 C.3       1 <0>         0.0224
     10 H2          0.5124   -3.1112    1.2238 H         1 <0>         0.1406
     11 C7          1.9968   -1.5000    1.1552 C.3       1 <0>         0.0483
     12 H3          2.9929   -1.3657    1.5768 H         1 <0>         0.1355
     13 O3          0.9684   -0.8158    1.9209 O.3       1 <0>        -0.3615
     14 O4          2.3254   -3.6306    2.1835 O.3       1 <0>        -0.3573
     15 C8          3.5307   -4.1478    1.6005 C.3       1 <0>         0.2406
     16 O5          3.5253   -3.8561    0.1888 O.3       1 <0>        -0.3608
     17 C9          4.7443   -3.4871    2.2574 C.3       1 <0>        -0.1549
     18 C10         3.5958   -5.6617    1.8124 C.3       1 <0>        -0.1875
     19 C11         1.4685   -5.0698   -0.2356 C.3       1 <0>         0.0540
     20 O6          2.1389   -5.8445   -1.2317 O.3       1 <0>        -0.7190
     21 S1          1.5597   -7.2386   -1.4254 S.o2      1 <0>         2.7922
     22 O7          2.4548   -7.9350   -2.2815 O.2       1 <0>        -0.9521
     23 O8          1.2135   -7.7177   -0.1332 O.2       1 <0>        -0.9902
     24 N1          0.1411   -7.0674   -2.2625 N.pl3     1 <0>        -1.2682
     25 C12        -1.3558   -1.0027    1.2569 C.3       1 <0>        -0.1570
     26 H4          0.8207    1.6475    0.8968 H         1 <0>         0.0640
     27 H5         -0.8808    1.5361    0.3860 H         1 <0>         0.0795
     28 H6         -0.4614    1.4331    2.1128 H         1 <0>         0.0783
     29 H7          2.2585   -1.1852   -2.2889 H         1 <0>         0.1264
     30 H8          3.5458   -1.7168   -1.1842 H         1 <0>         0.0924
     31 H9          4.7535   -3.7210    3.3219 H         1 <0>         0.0862
     32 H10         5.6571   -3.8626    1.7950 H         1 <0>         0.0829
     33 H11         4.6869   -2.4069    2.1231 H         1 <0>         0.0666
     34 H12         2.5933   -6.0827    1.7363 H         1 <0>         0.0754
     35 H13         4.2360   -6.1079    1.0514 H         1 <0>         0.0857
     36 H14         4.0046   -5.8730    2.8005 H         1 <0>         0.0871
     37 H15         1.5314   -5.5806    0.7253 H         1 <0>         0.1339
     38 H16         0.4218   -4.9473   -0.5141 H         1 <0>         0.1071
     39 H17        -0.1624   -6.1849   -2.5271 H         1 <0>         0.4163
     40 H18        -2.0938   -0.6361    0.5434 H         1 <0>         0.0797
     41 H19        -1.2583   -2.0836    1.1559 H         1 <0>         0.0641
     42 H20        -1.6777   -0.7600    2.2696 H         1 <0>         0.0821
     43 H21        -0.3863   -7.8495   -2.4881 H         1 <0>         0.4258
@<TRIPOS>BOND
     1    1    2 1
     2    1   26 1
     3    1   27 1
     4    1   28 1
     5    2   13 1
     6    2    3 1
     7    2   25 1
     8    3    4 1
     9    4    5 1
    10    4   11 1
    11    4    6 1
    12    6    7 1
    13    6   29 1
    14    6   30 1
    15    7    8 1
    16    8   16 1
    17    8    9 1
    18    8   19 1
    19    9   10 1
    20    9   11 1
    21    9   14 1
    22   11   12 1
    23   11   13 1
    24   14   15 1
    25   15   16 1
    26   15   17 1
    27   15   18 1
    28   17   31 1
    29   17   32 1
    30   17   33 1
    31   18   34 1
    32   18   35 1
    33   18   36 1
    34   19   20 1
    35   19   37 1
    36   19   38 1
    37   20   21 1
    38   21   22 2
    39   21   23 2
    40   21   24 1
    41   24   39 1
    42   24   43 1
    43   25   40 1
    44   25   41 1
    45   25   42 1
@<TRIPOS>MOLECULE
ZINC00154151
   33    34     0     0     0
SMALL
USER_CHARGES

@<TRIPOS>ATOM
      1 C1          0.0096    1.3775    0.6728 C.ar      1 <0>        -0.1326
      2 C2          0.2636    0.2183    1.3826 C.ar      1 <0>        -0.0989
      3 C3          1.4547   -0.4570    1.2018 C.ar      1 <0>        -0.1198
      4 C4          2.3979    0.0294    0.3061 C.ar      1 <0>         0.1564
      5 C5          2.1398    1.1938   -0.4052 C.ar      1 <0>        -0.1446
      6 C6          0.9467    1.8645   -0.2199 C.ar      1 <0>        -0.0996
      7 N1          3.6059   -0.6522    0.1209 N.am      1 <0>        -0.6783
      8 C7          3.6434   -1.9959    0.2187 C.2       1 <0>         0.7040
      9 O1          2.6134   -2.6231    0.3739 O.2       1 <0>        -0.5456
     10 N2          4.8226   -2.6443    0.1444 N.am      1 <0>        -0.6839
     11 C8          4.8525   -4.0433    0.1369 C.ar      1 <0>         0.2255
     12 C9          3.8236   -4.7580   -0.4623 C.ar      1 <0>        -0.1439
     13 C10         3.8561   -6.1388   -0.4680 C.ar      1 <0>         0.0014
     14 C11         4.9116   -6.8095    0.1220 C.ar      1 <0>        -0.6960
     15 C12         5.9375   -6.1007    0.7198 C.ar      1 <0>         0.0068
     16 C13         5.9140   -4.7198    0.7235 C.ar      1 <0>        -0.1691
     17 S1          4.9492   -8.5711    0.1125 S.o2      1 <0>         2.7038
     18 O2          5.7667   -8.9657    1.2058 O.2       1 <0>        -0.9633
     19 O3          3.6035   -9.0053   -0.0282 O.2       1 <0>        -0.9600
     20 N3          5.7431   -9.0365   -1.2642 N.pl3     1 <0>        -1.2485
     21 H1         -0.9245    1.9013    0.8126 H         1 <0>         0.1252
     22 H2         -0.4702   -0.1593    2.0794 H         1 <0>         0.1273
     23 H3          1.6526   -1.3621    1.7568 H         1 <0>         0.1355
     24 H4          2.8715    1.5748   -1.1023 H         1 <0>         0.1257
     25 H5          0.7455    2.7701   -0.7727 H         1 <0>         0.1281
     26 H6          4.4163   -0.1575   -0.0777 H         1 <0>         0.4100
     27 H7          5.6505   -2.1412    0.0962 H         1 <0>         0.4135
     28 H8          2.9988   -4.2348   -0.9230 H         1 <0>         0.1477
     29 H9          3.0560   -6.6952   -0.9335 H         1 <0>         0.1474
     30 H10         6.7603   -6.6275    1.1801 H         1 <0>         0.1482
     31 H11         6.7180   -4.1666    1.1861 H         1 <0>         0.1385
     32 H12         6.2488   -9.8642   -1.2763 H         1 <0>         0.4218
     33 H13         5.7025   -8.4814   -2.0587 H         1 <0>         0.4170
@<TRIPOS>BOND
     1    1    6 ar
     2    1    2 ar
     3    1   21 1
     4    2    3 ar
     5    2   22 1
     6    3    4 ar
     7    3   23 1
     8    4    5 ar
     9    4    7 1
    10    5    6 ar
    11    5   24 1
    12    6   25 1
    13    7    8 am
    14    7   26 1
    15    8    9 2
    16    8   10 am
    17   10   11 1
    18   10   27 1
    19   11   16 ar
    20   11   12 ar
    21   12   13 ar
    22   12   28 1
    23   13   14 ar
    24   13   29 1
    25   14   15 ar
    26   14   17 1
    27   15   16 ar
    28   15   30 1
    29   16   31 1
    30   17   18 2
    31   17   19 2
    32   17   20 1
    33   20   32 1
    34   20   33 1
@<TRIPOS>MOLECULE
ZINC00020229
   47    48     0     0     0
SMALL
USER_CHARGES

@<TRIPOS>ATOM
      1 C1         -1.2761   -4.3639   -3.1085 C.3       1 <0>        -0.1860
      2 C2         -0.7301   -3.6161   -1.8905 C.3       1 <0>        -0.0234
      3 N1          0.2843   -2.6466   -2.3253 N.4       1 <0>        -0.3833
      4 C3          1.4464   -3.3632   -2.8927 C.3       1 <0>        -0.0112
      5 C4          2.6766   -2.5276   -2.4593 C.3       1 <0>        -0.1411
      6 C5          2.2619   -2.0751   -1.0345 C.3       1 <0>        -0.1419
      7 C6          0.7406   -1.8536   -1.1692 C.3       1 <0>         0.0089
      8 H1          0.5334   -0.7970   -1.3392 H         1 <0>         0.1471
      9 C7          0.0311   -2.3285    0.1004 C.3       1 <0>         0.1054
     10 N2          0.4414   -1.4922    1.2311 N.am      1 <0>        -0.7353
     11 C8          0.0201   -1.7888    2.4765 C.2       1 <0>         0.5739
     12 O1         -0.7005   -2.7505    2.6616 O.2       1 <0>        -0.5006
     13 C9          0.4333   -0.9466    3.6152 C.ar      1 <0>        -0.2025
     14 C10         1.2564    0.1627    3.4063 C.ar      1 <0>         0.0538
     15 C11         1.6384    0.9456    4.4739 C.ar      1 <0>        -0.7232
     16 C12         1.2099    0.6379    5.7550 C.ar      1 <0>         0.0546
     17 C13         0.3962   -0.4554    5.9756 C.ar      1 <0>        -0.2336
     18 C14        -0.0024   -1.2513    4.9118 C.ar      1 <0>         0.2462
     19 O2         -0.8061   -2.3229    5.1263 O.3       1 <0>        -0.2744
     20 C15        -1.2100   -2.5714    6.4743 C.3       1 <0>         0.0127
     21 S1          2.6771    2.3440    4.2087 S.o2      1 <0>         2.7060
     22 O3          3.3381    2.5983    5.4406 O.2       1 <0>        -0.9541
     23 O4          3.3846    2.1011    3.0005 O.2       1 <0>        -0.9646
     24 N3          1.6882    3.6417    3.9255 N.pl3     1 <0>        -1.2497
     25 H2         -1.7267   -3.6520   -3.8000 H         1 <0>         0.0803
     26 H3         -0.4617   -4.8893   -3.6074 H         1 <0>         0.0801
     27 H4         -2.0288   -5.0832   -2.7858 H         1 <0>         0.1066
     28 H5         -1.5444   -3.0907   -1.3916 H         1 <0>         0.1351
     29 H6         -0.2794   -4.3280   -1.1990 H         1 <0>         0.1332
     30 H7          1.5084   -4.3710   -2.4820 H         1 <0>         0.1334
     31 H8          1.3761   -3.3993   -3.9799 H         1 <0>         0.1378
     32 H9          3.5754   -3.1435   -2.4272 H         1 <0>         0.1196
     33 H10         2.8167   -1.6692   -3.1163 H         1 <0>         0.1013
     34 H11         2.4744   -2.8565   -0.3048 H         1 <0>         0.1036
     35 H12         2.7641   -1.1464   -0.7636 H         1 <0>         0.1180
     36 H13        -1.0477   -2.2516   -0.0358 H         1 <0>         0.0915
     37 H14         0.2990   -3.3661    0.2999 H         1 <0>         0.0952
     38 H15         1.0162   -0.7250    1.0834 H         1 <0>         0.4053
     39 H16         1.5932    0.4061    2.4094 H         1 <0>         0.1478
     40 H17         1.5144    1.2568    6.5860 H         1 <0>         0.1569
     41 H18         0.0663   -0.6888    6.9771 H         1 <0>         0.1535
     42 H19        -0.3283   -2.7381    7.0930 H         1 <0>         0.0668
     43 H20        -1.7619   -1.7109    6.8527 H         1 <0>         0.0666
     44 H21        -1.8481   -3.4546    6.5055 H         1 <0>         0.1133
     45 H22         0.7249    3.5276    3.9304 H         1 <0>         0.4171
     46 H23         2.0722    4.5159    3.7546 H         1 <0>         0.4246
     47 H24        -0.1083   -2.0336   -3.0240 H         1 <0>         0.4289
@<TRIPOS>BOND
     1    1    2 1
     2    1   25 1
     3    1   26 1
     4    1   27 1
     5    2    3 1
     6    2   28 1
     7    2   29 1
     8    3    7 1
     9    3    4 1
    10    3   47 1
    11    4    5 1
    12    4   30 1
    13    4   31 1
    14    5    6 1
    15    5   32 1
    16    5   33 1
    17    6    7 1
    18    6   34 1
    19    6   35 1
    20    7    8 1
    21    7    9 1
    22    9   10 1
    23    9   36 1
    24    9   37 1
    25   10   11 am
    26   10   38 1
    27   11   12 2
    28   11   13 1
    29   13   18 ar
    30   13   14 ar
    31   14   15 ar
    32   14   39 1
    33   15   16 ar
    34   15   21 1
    35   16   17 ar
    36   16   40 1
    37   17   18 ar
    38   17   41 1
    39   18   19 1
    40   19   20 1
    41   20   42 1
    42   20   43 1
    43   20   44 1
    44   21   22 2
    45   21   23 2
    46   21   24 1
    47   24   45 1
    48   24   46 1
@<TRIPOS>MOLECULE
ZINC00057008
   47    48     0     0     0
SMALL
USER_CHARGES

@<TRIPOS>ATOM
      1 C1         -0.0187    1.5258    0.0104 C.3       1 <0>        -0.1897
      2 C2          0.0021   -0.0041    0.0020 C.3       1 <0>        -0.0136
      3 N1          0.6897   -0.4778   -1.2066 N.4       1 <0>        -0.3974
      4 C3         -0.0977   -0.1111   -2.4030 C.3       1 <0>        -0.0106
      5 C4          0.0876   -1.3002   -3.3783 C.3       1 <0>        -0.1438
      6 C5          0.0948   -2.5070   -2.4033 C.3       1 <0>        -0.1316
      7 C6          0.8183   -1.9459   -1.1611 C.3       1 <0>         0.0107
      8 H1          0.3514   -2.3311   -0.2546 H         1 <0>         0.1483
      9 C7          2.2961   -2.3403   -1.1970 C.3       1 <0>         0.1010
     10 N2          3.0089   -1.6628   -0.1111 N.am      1 <0>        -0.7578
     11 C8          4.3318   -1.8612    0.0535 C.2       1 <0>         0.5719
     12 O1          4.9337   -2.6023   -0.6993 O.2       1 <0>        -0.4872
     13 C9          5.0496   -1.1789    1.1471 C.ar      1 <0>        -0.2038
     14 C10         4.3608   -0.3309    2.0180 C.ar      1 <0>         0.0500
     15 C11         5.0369    0.3029    3.0376 C.ar      1 <0>        -0.7236
     16 C12         6.3978    0.1034    3.2039 C.ar      1 <0>         0.0551
     17 C13         7.0907   -0.7318    2.3505 C.ar      1 <0>        -0.2312
     18 C14         6.4251   -1.3822    1.3219 C.ar      1 <0>         0.2480
     19 O2          7.1035   -2.2073    0.4857 O.3       1 <0>        -0.2733
     20 C15         8.5034   -2.3657    0.7254 C.3       1 <0>         0.0122
     21 S1          4.1669    1.3725    4.1347 S.o2      1 <0>         2.7072
     22 O3          5.1271    2.2718    4.6717 O.2       1 <0>        -0.9524
     23 O4          3.0123    1.8184    3.4366 O.2       1 <0>        -0.9690
     24 N3          3.6282    0.4460    5.3971 N.pl3     1 <0>        -1.2496
     25 H2          1.0039    1.9031    0.0027 H         1 <0>         0.0828
     26 H3         -0.5459    1.8868   -0.8726 H         1 <0>         0.0811
     27 H4         -0.5289    1.8773    0.9072 H         1 <0>         0.1105
     28 H5          0.5293   -0.3651    0.8851 H         1 <0>         0.1249
     29 H6         -1.0205   -0.3814    0.0098 H         1 <0>         0.1346
     30 H7         -1.1498    0.0064   -2.1435 H         1 <0>         0.1360
     31 H8          0.2896    0.8066   -2.8456 H         1 <0>         0.1357
     32 H9         -0.7473   -1.3669   -4.0759 H         1 <0>         0.1211
     33 H10         1.0351   -1.2237   -3.9118 H         1 <0>         0.0999
     34 H11        -0.9229   -2.8070   -2.1539 H         1 <0>         0.1077
     35 H12         0.6508   -3.3426   -2.8285 H         1 <0>         0.1183
     36 H13         2.3873   -3.4195   -1.0737 H         1 <0>         0.1172
     37 H14         2.7275   -2.0462   -2.1538 H         1 <0>         0.0984
     38 H15         2.5287   -1.0715    0.4895 H         1 <0>         0.3924
     39 H16         3.3000   -0.1722    1.8919 H         1 <0>         0.1417
     40 H17         6.9199    0.6046    4.0056 H         1 <0>         0.1577
     41 H18         8.1514   -0.8823    2.4865 H         1 <0>         0.1548
     42 H19         8.9974   -1.3974    0.6459 H         1 <0>         0.0674
     43 H20         8.6572   -2.7711    1.7254 H         1 <0>         0.0675
     44 H21         8.9232   -3.0494   -0.0124 H         1 <0>         0.1149
     45 H22         3.8201   -0.5046    5.4176 H         1 <0>         0.4178
     46 H23         3.1208    0.8539    6.1162 H         1 <0>         0.4251
     47 H24         1.6056   -0.0583   -1.2636 H         1 <0>         0.4224
@<TRIPOS>BOND
     1    1    2 1
     2    1   25 1
     3    1   26 1
     4    1   27 1
     5    2    3 1
     6    2   28 1
     7    2   29 1
     8    3    7 1
     9    3    4 1
    10    3   47 1
    11    4    5 1
    12    4   30 1
    13    4   31 1
    14    5    6 1
    15    5   32 1
    16    5   33 1
    17    6    7 1
    18    6   34 1
    19    6   35 1
    20    7    8 1
    21    7    9 1
    22    9   10 1
    23    9   36 1
    24    9   37 1
    25   10   11 am
    26   10   38 1
    27   11   12 2
    28   11   13 1
    29   13   18 ar
    30   13   14 ar
    31   14   15 ar
    32   14   39 1
    33   15   16 ar
    34   15   21 1
    35   16   17 ar
    36   16   40 1
    37   17   18 ar
    38   17   41 1
    39   18   19 1
    40   19   20 1
    41   20   42 1
    42   20   43 1
    43   20   44 1
    44   21   22 2
    45   21   23 2
    46   21   24 1
    47   24   45 1
    48   24   46 1
@<TRIPOS>MOLECULE
ZINC06392199
   37    38     0     0     0
SMALL
USER_CHARGES

@<TRIPOS>ATOM
      1 C1         -0.0167    1.3781    0.0096 C.ar      1 <0>        -0.1239
      2 C2          1.1709    2.0855    0.0021 C.ar      1 <0>        -0.0191
      3 C3          2.3773    1.4107   -0.0130 C.ar      1 <0>        -0.6701
      4 C4          2.3960    0.0285   -0.0201 C.ar      1 <0>        -0.0181
      5 C5          1.2085   -0.6789   -0.0117 C.ar      1 <0>        -0.1211
      6 C6          0.0021   -0.0041    0.0020 C.ar      1 <0>        -0.0415
      7 C7         -1.2926   -0.7753    0.0107 C.3       1 <0>         0.1504
      8 N1         -1.7258   -1.0177   -1.3676 N.pl3     1 <0>        -1.1166
      9 S1         -2.8982   -2.1445   -1.6810 S.o2      1 <0>         2.6988
     10 O1         -3.1132   -2.1271   -3.0855 O.2       1 <0>        -0.9580
     11 O2         -2.5251   -3.3241   -0.9819 O.2       1 <0>        -0.9584
     12 C8         -4.3874   -1.5677   -0.9365 C.ar      1 <0>        -0.7357
     13 C9         -4.6847   -1.9132    0.3691 C.ar      1 <0>         0.0258
     14 C10        -5.8511   -1.4629    0.9557 C.ar      1 <0>        -0.2178
     15 C11        -6.7260   -0.6620    0.2327 C.ar      1 <0>         0.2700
     16 C12        -6.4242   -0.3168   -1.0786 C.ar      1 <0>        -0.2180
     17 C13        -5.2534   -0.7660   -1.6572 C.ar      1 <0>         0.0306
     18 N2         -7.9067   -0.2051    0.8227 N.pl3     1 <0>        -0.8653
     19 S2          3.8911    2.3124   -0.0238 S.o2      1 <0>         2.7009
     20 O3          4.8717    1.4529   -0.5884 O.2       1 <0>        -0.9608
     21 O4          3.5973    3.5927   -0.5658 O.2       1 <0>        -0.9616
     22 N3          4.3274    2.5556    1.5551 N.pl3     1 <0>        -1.2496
     23 H1         -0.9591    1.9053    0.0259 H         1 <0>         0.1383
     24 H2          1.1563    3.1654    0.0076 H         1 <0>         0.1462
     25 H3          3.3385   -0.4987   -0.0326 H         1 <0>         0.1471
     26 H4          1.2231   -1.7588   -0.0179 H         1 <0>         0.1407
     27 H5         -1.1443   -1.7285    0.5180 H         1 <0>         0.0962
     28 H6         -2.0551   -0.1993    0.5352 H         1 <0>         0.0818
     29 H7         -1.3259   -0.5183   -2.0967 H         1 <0>         0.4211
     30 H8         -4.0042   -2.5362    0.9305 H         1 <0>         0.1393
     31 H9         -6.0829   -1.7333    1.9753 H         1 <0>         0.1310
     32 H10        -7.1025    0.3054   -1.6436 H         1 <0>         0.1309
     33 H11        -5.0161   -0.4944   -2.6752 H         1 <0>         0.1396
     34 H12        -8.1165   -0.4471    1.7383 H         1 <0>         0.4040
     35 H13        -8.5169    0.3541    0.3169 H         1 <0>         0.4041
     36 H14         3.7682    2.2150    2.2708 H         1 <0>         0.4169
     37 H15         5.1421    3.0386    1.7642 H         1 <0>         0.4221
@<TRIPOS>BOND
     1    1    6 ar
     2    1    2 ar
     3    1   23 1
     4    2    3 ar
     5    2   24 1
     6    3    4 ar
     7    3   19 1
     8    4    5 ar
     9    4   25 1
    10    5    6 ar
    11    5   26 1
    12    6    7 1
    13    7    8 1
    14    7   27 1
    15    7   28 1
    16    8    9 1
    17    8   29 1
    18    9   10 2
    19    9   11 2
    20    9   12 1
    21   12   17 ar
    22   12   13 ar
    23   13   14 ar
    24   13   30 1
    25   14   15 ar
    26   14   31 1
    27   15   16 ar
    28   15   18 1
    29   16   17 ar
    30   16   32 1
    31   17   33 1
    32   18   34 1
    33   18   35 1
    34   19   20 2
    35   19   21 2
    36   19   22 1
    37   22   36 1
    38   22   37 1
@<TRIPOS>MOLECULE
ZINC01530783
   24    24     0     0     0
SMALL
USER_CHARGES

@<TRIPOS>ATOM
      1 C1         -0.0167    1.3778    0.0096 C.ar      1 <0>        -0.2151
      2 C2          1.1778    2.0868    0.0020 C.ar      1 <0>         0.3679
      3 C3          2.3873    1.4040   -0.0132 C.ar      1 <0>        -0.7704
      4 C4          2.3995    0.0228   -0.0207 C.ar      1 <0>         0.1443
      5 C5          1.2095   -0.6808   -0.0136 C.ar      1 <0>        -0.7462
      6 C6          0.0021   -0.0041    0.0020 C.ar      1 <0>         0.1376
      7 Cl1        -1.4897   -0.8918    0.0121 Cl        1 <0>        -0.0170
      8 S1          1.2298   -2.4427   -0.0244 S.o2      1 <0>         2.7025
      9 O1          0.3289   -2.8530   -1.0439 O.2       1 <0>        -0.9456
     10 O2          2.5961   -2.8332   -0.0128 O.2       1 <0>        -0.9565
     11 N1          0.5807   -2.9487    1.4126 N.pl3     1 <0>        -1.2467
     12 S2          3.9050    2.2991   -0.0235 S.o2      1 <0>         2.7027
     13 O3          3.8097    3.2719    1.0080 O.2       1 <0>        -0.9578
     14 O4          4.9461    1.3329   -0.0656 O.2       1 <0>        -0.9492
     15 N2          3.9732    3.1309   -1.4538 N.pl3     1 <0>        -1.2515
     16 N3          1.1627    3.4834    0.0092 N.pl3     1 <0>        -0.8462
     17 H1         -0.9587    1.9057    0.0259 H         1 <0>         0.1559
     18 H2          3.3399   -0.5082   -0.0326 H         1 <0>         0.1771
     19 H3          0.2785   -2.2970    2.0644 H         1 <0>         0.4160
     20 H4          0.5026   -3.8967    1.6024 H         1 <0>         0.4242
     21 H5          3.2464    3.0584   -2.0921 H         1 <0>         0.4178
     22 H6          4.7398    3.6907   -1.6532 H         1 <0>         0.4259
     23 H7          0.3174    3.9592    0.0195 H         1 <0>         0.4187
     24 H8          1.9974    3.9775    0.0039 H         1 <0>         0.4116
@<TRIPOS>BOND
     1    1    6 ar
     2    1    2 ar
     3    1   17 1
     4    2    3 ar
     5    2   16 1
     6    3    4 ar
     7    3   12 1
     8    4    5 ar
     9    4   18 1
    10    5    6 ar
    11    5    8 1
    12    6    7 1
    13    8    9 2
    14    8   10 2
    15    8   11 1
    16   11   19 1
    17   11   20 1
    18   12   13 2
    19   12   14 2
    20   12   15 1
    21   15   21 1
    22   15   22 1
    23   16   23 1
    24   16   24 1
@<TRIPOS>MOLECULE
ZINC17857672
   37    38     0     0     0
SMALL
USER_CHARGES

@<TRIPOS>ATOM
      1 C1         -0.0178    1.4608    0.0101 C.3       1 <0>         0.0832
      2 N1          0.0021   -0.0041    0.0020 N.pl3     1 <0>        -0.6214
      3 C2          0.0241   -0.7433    1.2666 C.3       1 <0>         0.0832
      4 C3          0.0000   -0.6937   -1.2076 C.ar      1 <0>         0.2610
      5 C4          0.0132   -2.0856   -1.2131 C.ar      1 <0>        -0.2113
      6 C5          0.0112   -2.7709   -2.4067 C.ar      1 <0>         0.0133
      7 C6         -0.0041   -2.0667   -3.6156 C.ar      1 <0>        -0.0341
      8 C7         -0.0173   -0.6675   -3.6059 C.ar      1 <0>        -0.0244
      9 C8         -0.0210    0.0105   -2.4081 C.ar      1 <0>        -0.2119
     10 N2         -0.0057   -2.7424   -4.8009 N.2       1 <0>        -0.1660
     11 N3         -0.0198   -2.0914   -5.9145 N.2       1 <0>        -0.2691
     12 C9         -0.0214   -2.7686   -7.1022 C.ar      1 <0>         0.1278
     13 C10        -0.0135   -4.1660   -7.1137 C.ar      1 <0>        -0.1401
     14 C11        -0.0151   -4.8423   -8.3156 C.ar      1 <0>        -0.0158
     15 C12        -0.0245   -4.1405   -9.5083 C.ar      1 <0>        -0.6720
     16 C13        -0.0318   -2.7566   -9.5047 C.ar      1 <0>        -0.0168
     17 C14        -0.0366   -2.0668   -8.3105 C.ar      1 <0>        -0.0974
     18 S1         -0.0265   -5.0132  -11.0390 S.o2      1 <0>         2.7024
     19 O1          0.5150   -4.1294  -12.0111 O.2       1 <0>        -0.9619
     20 O2          0.5328   -6.2931  -10.7775 O.2       1 <0>        -0.9623
     21 N4         -1.6089   -5.2646  -11.4572 N.pl3     1 <0>        -1.2498
     22 H1          1.0048    1.8381    0.0023 H         1 <0>         0.0569
     23 H2         -0.5450    1.8219   -0.8730 H         1 <0>         0.0743
     24 H3         -0.5280    1.8123    0.9069 H         1 <0>         0.0736
     25 H4         -0.9979   -0.9406    1.5900 H         1 <0>         0.0570
     26 H5          0.5496   -1.6879    1.1262 H         1 <0>         0.0749
     27 H6          0.5371   -0.1514    2.0246 H         1 <0>         0.0734
     28 H7          0.0253   -2.6285   -0.2796 H         1 <0>         0.1369
     29 H8          0.0217   -3.8509   -2.4101 H         1 <0>         0.1387
     30 H9         -0.0288   -0.1204   -4.5370 H         1 <0>         0.1400
     31 H10        -0.0356    1.0903   -2.3997 H         1 <0>         0.1320
     32 H11        -0.0059   -4.7150   -6.1836 H         1 <0>         0.1453
     33 H12        -0.0087   -5.9222   -8.3261 H         1 <0>         0.1462
     34 H13        -0.0388   -2.2155  -10.4394 H         1 <0>         0.1510
     35 H14        -0.0473   -0.9868   -8.3092 H         1 <0>         0.1447
     36 H15        -2.3199   -4.9422  -10.8814 H         1 <0>         0.4171
     37 H16        -1.8249   -5.7343  -12.2779 H         1 <0>         0.4215
@<TRIPOS>BOND
     1    1    2 1
     2    1   22 1
     3    1   23 1
     4    1   24 1
     5    2    3 1
     6    2    4 1
     7    3   25 1
     8    3   26 1
     9    3   27 1
    10    4    9 ar
    11    4    5 ar
    12    5    6 ar
    13    5   28 1
    14    6    7 ar
    15    6   29 1
    16    7    8 ar
    17    7   10 1
    18    8    9 ar
    19    8   30 1
    20    9   31 1
    21   10   11 2
    22   11   12 1
    23   12   17 ar
    24   12   13 ar
    25   13   14 ar
    26   13   32 1
    27   14   15 ar
    28   14   33 1
    29   15   16 ar
    30   15   18 1
    31   16   17 ar
    32   16   34 1
    33   17   35 1
    34   18   19 2
    35   18   20 2
    36   18   21 1
    37   21   36 1
    38   21   37 1
@<TRIPOS>MOLECULE
ZINC02560357
   16    17     0     0     0
SMALL
USER_CHARGES

@<TRIPOS>ATOM
      1 C1         -0.0166    1.3724    0.0096 C.ar      1 <0>        -0.0975
      2 C2          1.1598    2.1009    0.0023 C.ar      1 <0>        -0.1287
      3 C3          2.3766    1.4339   -0.0130 C.ar      1 <0>        -0.0099
      4 C4          2.3979    0.0699   -0.0205 C.ar      1 <0>        -0.6368
      5 C5          1.2234   -0.6959   -0.0134 C.ar      1 <0>        -0.0870
      6 C6          0.0021   -0.0041    0.0020 C.ar      1 <0>        -0.0665
      7 C7          1.5030   -2.1391   -0.0246 C.2       1 <0>         0.4613
      8 O1          0.4870   -3.0317   -0.0203 O.3       1 <0>        -0.6383
      9 N1          2.7297   -2.5463   -0.0391 N.2       1 <0>        -0.8994
     10 S1          3.6711   -1.1625   -0.0403 S.o2      1 <0>         2.5478
     11 O2          4.3526   -1.1012    1.2051 O.2       1 <0>        -0.9844
     12 O3          4.3279   -1.0865   -1.2981 O.2       1 <0>        -0.9844
     13 H1         -0.9636    1.8914    0.0260 H         1 <0>         0.1289
     14 H2          1.1312    3.1805    0.0080 H         1 <0>         0.1309
     15 H3          3.3015    1.9914   -0.0191 H         1 <0>         0.1290
     16 H4         -0.9273   -0.5542    0.0083 H         1 <0>         0.1351
@<TRIPOS>BOND
     1    1    6 ar
     2    1    2 ar
     3    1   13 1
     4    2    3 ar
     5    2   14 1
     6    3    4 ar
     7    3   15 1
     8    4   10 1
     9    4    5 ar
    10    5    6 ar
    11    5    7 1
    12    6   16 1
    13    7    8 1
    14    7    9 2
    15    9   10 1
    16   10   11 2
    17   10   12 2
@<TRIPOS>MOLECULE
ZINC00002119
   32    33     0     0     0
SMALL
USER_CHARGES

@<TRIPOS>ATOM
      1 C1          0.6111    0.3202   -1.2036 C.ar      1 <0>        -0.1501
      2 C2          1.7964    1.0290   -1.2080 C.ar      1 <0>         0.0058
      3 C3          2.3772    1.4154   -0.0140 C.ar      1 <0>        -0.6839
      4 C4          1.7736    1.0942    1.1880 C.ar      1 <0>        -0.0009
      5 C5          0.5882    0.3856    1.1996 C.ar      1 <0>        -0.1471
      6 C6          0.0021   -0.0041    0.0020 C.ar      1 <0>         0.2244
      7 N1         -1.1970   -0.7204    0.0101 N.pl3     1 <0>        -0.9540
      8 C7         -2.4029   -0.1734    0.6497 C.3       1 <0>         0.1081
      9 C8         -2.8987   -1.1463    1.7177 C.3       1 <0>        -0.1594
     10 C9         -3.3460   -2.4615    1.0842 C.3       1 <0>        -0.1138
     11 C10        -2.1239   -3.2308    0.5694 C.3       1 <0>        -0.6072
     12 S1         -1.3077   -2.2170   -0.7099 S.o2      1 <0>         2.5846
     13 O1          0.0368   -2.6386   -0.8937 O.2       1 <0>        -0.9404
     14 O2         -2.1720   -2.0286   -1.8220 O.2       1 <0>        -0.9407
     15 S2          3.8901    2.3185   -0.0241 S.o2      1 <0>         2.7031
     16 O3          4.5091    2.0881    1.2340 O.2       1 <0>        -0.9615
     17 O4          4.5331    2.0199   -1.2556 O.2       1 <0>        -0.9605
     18 N2          3.4997    3.9272   -0.0719 N.pl3     1 <0>        -1.2498
     19 H1          0.1559    0.0223   -2.1366 H         1 <0>         0.1359
     20 H2          2.2704    1.2815   -2.1450 H         1 <0>         0.1513
     21 H3          2.2298    1.3975    2.1187 H         1 <0>         0.1499
     22 H4          0.1175    0.1348    2.1387 H         1 <0>         0.1403
     23 H5         -2.1659    0.7845    1.1127 H         1 <0>         0.0989
     24 H6         -3.1799   -0.0315   -0.1014 H         1 <0>         0.0898
     25 H7         -2.0932   -1.3441    2.4249 H         1 <0>         0.0813
     26 H8         -3.7395   -0.6992    2.2481 H         1 <0>         0.1000
     27 H9         -3.8664   -3.0640    1.8287 H         1 <0>         0.0938
     28 H10        -4.0195   -2.2528    0.2529 H         1 <0>         0.0860
     29 H11        -1.4328   -3.4153    1.3919 H         1 <0>         0.1384
     30 H12        -2.4423   -4.1793    0.1368 H         1 <0>         0.1389
     31 H13         2.5691    4.2001   -0.0884 H         1 <0>         0.4167
     32 H14         4.2017    4.5965   -0.0835 H         1 <0>         0.4218
@<TRIPOS>BOND
     1    1    6 ar
     2    1    2 ar
     3    1   19 1
     4    2    3 ar
     5    2   20 1
     6    3    4 ar
     7    3   15 1
     8    4    5 ar
     9    4   21 1
    10    5    6 ar
    11    5   22 1
    12    6    7 1
    13    7   12 1
    14    7    8 1
    15    8    9 1
    16    8   23 1
    17    8   24 1
    18    9   10 1
    19    9   25 1
    20    9   26 1
    21   10   11 1
    22   10   27 1
    23   10   28 1
    24   11   12 1
    25   11   29 1
    26   11   30 1
    27   12   13 2
    28   12   14 2
    29   15   16 2
    30   15   17 2
    31   15   18 1
    32   18   31 1
    33   18   32 1
@<TRIPOS>MOLECULE
ZINC01863457
   50    51     0     0     0
SMALL
USER_CHARGES

@<TRIPOS>ATOM
      1 C1         -0.0187    1.5258    0.0104 C.3       1 <0>        -0.1537
      2 C2          0.0021   -0.0041    0.0020 C.3       1 <0>        -0.0789
      3 H1          0.5123   -0.3556   -0.8948 H         1 <0>         0.0725
      4 C3         -1.4333   -0.5336    0.0129 C.3       1 <0>        -0.0826
      5 C4         -2.1247   -0.1373   -1.2662 C.ar      1 <0>        -0.0452
      6 C5         -2.8073    1.0629   -1.3379 C.ar      1 <0>        -0.1376
      7 C6         -3.4431    1.4310   -2.5089 C.ar      1 <0>        -0.1042
      8 C7         -3.3968    0.5966   -3.6143 C.ar      1 <0>         0.0676
      9 C8         -2.7093   -0.6111   -3.5422 C.ar      1 <0>         0.1058
     10 C9         -2.0701   -0.9719   -2.3669 C.ar      1 <0>        -0.1936
     11 O1         -2.6610   -1.4334   -4.6243 O.3       1 <0>        -0.3082
     12 C10        -1.9373   -2.6568   -4.4776 C.3       1 <0>         0.0249
     13 O2         -4.0221    0.9571   -4.7669 O.3       1 <0>        -0.4872
     14 C11         0.7421   -0.5109    1.2415 C.3       1 <0>        -0.0789
     15 H2          0.2319   -0.1594    2.1383 H         1 <0>         0.0725
     16 C12         2.1775    0.0187    1.2307 C.3       1 <0>        -0.1537
     17 C13         0.7628   -2.0407    1.2331 C.3       1 <0>        -0.0826
     18 C14         1.3823   -2.5418    2.5123 C.ar      1 <0>        -0.0452
     19 C15         2.7475   -2.7481    2.5829 C.ar      1 <0>        -0.1376
     20 C16         3.3206   -3.2076    3.7540 C.ar      1 <0>        -0.1042
     21 C17         2.5264   -3.4620    4.8606 C.ar      1 <0>         0.0677
     22 C18         1.1524   -3.2538    4.7897 C.ar      1 <0>         0.1058
     23 C19         0.5850   -2.7886    3.6143 C.ar      1 <0>        -0.1936
     24 O3          0.3687   -3.5020    5.8731 O.3       1 <0>        -0.3083
     25 C20        -1.0331   -3.2658    5.7276 C.3       1 <0>         0.0249
     26 O4          3.0885   -3.9145    6.0133 O.3       1 <0>        -0.4872
     27 H3          1.0039    1.9031    0.0027 H         1 <0>         0.0585
     28 H4         -0.5459    1.8868   -0.8726 H         1 <0>         0.0601
     29 H5         -0.5289    1.8773    0.9072 H         1 <0>         0.0546
     30 H6         -1.4190   -1.6203    0.0965 H         1 <0>         0.0767
     31 H7         -1.9701   -0.1109    0.8621 H         1 <0>         0.0759
     32 H8         -2.8441    1.7141   -0.4771 H         1 <0>         0.1282
     33 H9         -3.9762    2.3687   -2.5622 H         1 <0>         0.1355
     34 H10        -1.5328   -1.9069   -2.3095 H         1 <0>         0.1313
     35 H11        -1.9775   -3.2169   -5.4119 H         1 <0>         0.1020
     36 H12        -0.8988   -2.4372   -4.2301 H         1 <0>         0.0555
     37 H13        -2.3837   -3.2495   -3.6792 H         1 <0>         0.0559
     38 H14        -3.4662    1.4647   -5.3738 H         1 <0>         0.3861
     39 H15         2.1627    1.1086    1.2367 H         1 <0>         0.0585
     40 H16         2.7046   -0.3424    2.1137 H         1 <0>         0.0601
     41 H17         2.6876   -0.3328    0.3339 H         1 <0>         0.0546
     42 H18        -0.2567   -2.4175    1.1513 H         1 <0>         0.0767
     43 H19         1.3491   -2.3915    0.3838 H         1 <0>         0.0759
     44 H20         3.3676   -2.5503    1.7211 H         1 <0>         0.1282
     45 H21         4.3872   -3.3687    3.8063 H         1 <0>         0.1356
     46 H22        -0.4807   -2.6226    3.5578 H         1 <0>         0.1313
     47 H23        -1.5405   -3.5028    6.6628 H         1 <0>         0.1020
     48 H24        -1.2011   -2.2180    5.4785 H         1 <0>         0.0555
     49 H25        -1.4270   -3.8964    4.9306 H         1 <0>         0.0559
     50 H26         3.3635   -3.2124    6.6188 H         1 <0>         0.3862
@<TRIPOS>BOND
     1    1    2 1
     2    1   27 1
     3    1   28 1
     4    1   29 1
     5    2    3 1
     6    2    4 1
     7    2   14 1
     8    4    5 1
     9    4   30 1
    10    4   31 1
    11    5   10 ar
    12    5    6 ar
    13    6    7 ar
    14    6   32 1
    15    7    8 ar
    16    7   33 1
    17    8    9 ar
    18    8   13 1
    19    9   10 ar
    20    9   11 1
    21   10   34 1
    22   11   12 1
    23   12   35 1
    24   12   36 1
    25   12   37 1
    26   13   38 1
    27   14   15 1
    28   14   16 1
    29   14   17 1
    30   16   39 1
    31   16   40 1
    32   16   41 1
    33   17   18 1
    34   17   42 1
    35   17   43 1
    36   18   23 ar
    37   18   19 ar
    38   19   20 ar
    39   19   44 1
    40   20   21 ar
    41   20   45 1
    42   21   22 ar
    43   21   26 1
    44   22   23 ar
    45   22   24 1
    46   23   46 1
    47   24   25 1
    48   25   47 1
    49   25   48 1
    50   25   49 1
    51   26   50 1
@<TRIPOS>MOLECULE
ZINC00001099
   19    19     0     0     0
SMALL
USER_CHARGES

@<TRIPOS>ATOM
      1 C1         -0.0169    1.3930    0.0097 C.ar      1 <0>        -0.1090
      2 C2          1.1700    2.0954    0.0021 C.ar      1 <0>        -0.0380
      3 C3          2.3776    1.4198   -0.0135 C.ar      1 <0>        -0.6857
      4 C4          2.4041    0.0362   -0.0212 C.ar      1 <0>        -0.0380
      5 C5          1.2251   -0.6794   -0.0133 C.ar      1 <0>        -0.1090
      6 C6          0.0021   -0.0041    0.0020 C.ar      1 <0>        -0.0699
      7 C7         -1.2634   -0.7626    0.0105 C.2       1 <0>         0.5141
      8 O1         -2.3322   -0.1685    0.0243 O.co2     1 <0>        -0.6763
      9 O2         -1.2434   -1.9853    0.0038 O.co2     1 <0>        -0.6763
     10 S1          3.8889    2.3257   -0.0242 S.o2      1 <0>         2.7042
     11 O3          4.8718    1.4691   -0.5893 O.2       1 <0>        -0.9724
     12 O4          3.5915    3.6054   -0.5656 O.2       1 <0>        -0.9724
     13 N1          4.3249    2.5694    1.5547 N.pl3     1 <0>        -1.2522
     14 H1         -0.9586    1.9215    0.0260 H         1 <0>         0.1382
     15 H2          1.1569    3.1753    0.0081 H         1 <0>         0.1354
     16 H3          3.3502   -0.4844   -0.0337 H         1 <0>         0.1355
     17 H4          1.2472   -1.7591   -0.0197 H         1 <0>         0.1382
     18 H5          3.7668    2.2270    2.2703 H         1 <0>         0.4174
     19 H6          5.1384    3.0546    1.7638 H         1 <0>         0.4162
@<TRIPOS>BOND
     1    1    6 ar
     2    1    2 ar
     3    1   14 1
     4    2    3 ar
     5    2   15 1
     6    3    4 ar
     7    3   10 1
     8    4    5 ar
     9    4   16 1
    10    5    6 ar
    11    5   17 1
    12    6    7 1
    13    7    8 2
    14    7    9 1
    15   10   11 2
    16   10   12 2
    17   10   13 1
    18   13   18 1
    19   13   19 1
@<TRIPOS>MOLECULE
ZINC01676919
   27    27     0     0     0
SMALL
USER_CHARGES

@<TRIPOS>ATOM
      1 C1         -0.0168    1.3847    0.0097 C.ar      1 <0>        -0.1744
      2 C2          1.1708    2.0900    0.0021 C.ar      1 <0>         0.0093
      3 C3          2.3774    1.4150   -0.0135 C.ar      1 <0>        -0.7184
      4 C4          2.3998    0.0321   -0.0211 C.ar      1 <0>         0.1339
      5 C5          1.2163   -0.6791   -0.0132 C.ar      1 <0>        -0.7535
      6 C6          0.0021   -0.0041    0.0020 C.ar      1 <0>         0.3596
      7 N1         -1.1970   -0.7204    0.0101 N.pl3     1 <0>        -0.8440
      8 S1          1.2459   -2.4408   -0.0235 S.o2      1 <0>         2.7018
      9 O1          0.3466   -2.8562   -1.0424 O.2       1 <0>        -0.9552
     10 O2          2.6142   -2.8241   -0.0125 O.2       1 <0>        -0.9462
     11 N2          0.6002   -2.9498    1.4139 N.pl3     1 <0>        -1.2508
     12 S2          3.8900    2.3187   -0.0243 S.o2      1 <0>         2.6883
     13 O3          3.7897    3.2908    1.0072 O.2       1 <0>        -0.9394
     14 O4          4.9365    1.3583   -0.0668 O.2       1 <0>        -0.9483
     15 N3          3.9530    3.1509   -1.4545 N.pl3     1 <0>        -1.2412
     16 C7          1.1514    3.5968    0.0104 C.3       1 <0>         0.4751
     17 F1         -0.1734    4.0460    0.0254 F         1 <0>        -0.1673
     18 F2          1.8157    4.0655    1.1489 F         1 <0>        -0.1288
     19 F3          1.7939    4.0778   -1.1355 F         1 <0>        -0.1624
     20 H1         -0.9589    1.9125    0.0260 H         1 <0>         0.1607
     21 H2          3.3440   -0.4920   -0.0337 H         1 <0>         0.1789
     22 H3         -2.0441   -0.2480    0.0210 H         1 <0>         0.4200
     23 H4         -1.1825   -1.6903    0.0047 H         1 <0>         0.4126
     24 H5          0.2949   -2.2996    2.0658 H         1 <0>         0.4181
     25 H6          0.5273   -3.8982    1.6041 H         1 <0>         0.4268
     26 H7          4.4232    3.9980   -1.5025 H         1 <0>         0.4256
     27 H8          3.5197    2.7914   -2.2444 H         1 <0>         0.4192
@<TRIPOS>BOND
     1    1    6 ar
     2    1    2 ar
     3    1   20 1
     4    2    3 ar
     5    2   16 1
     6    3    4 ar
     7    3   12 1
     8    4    5 ar
     9    4   21 1
    10    5    6 ar
    11    5    8 1
    12    6    7 1
    13    7   22 1
    14    7   23 1
    15    8    9 2
    16    8   10 2
    17    8   11 1
    18   11   24 1
    19   11   25 1
    20   12   13 2
    21   12   14 2
    22   12   15 1
    23   15   26 1
    24   15   27 1
    25   16   17 1
    26   16   18 1
    27   16   19 1
@<TRIPOS>MOLECULE
ZINC00001644
   23    23     0     0     0
SMALL
USER_CHARGES

@<TRIPOS>ATOM
      1 C1         -0.0167    1.3781    0.0096 C.ar      1 <0>        -0.1137
      2 C2          1.1709    2.0855    0.0021 C.ar      1 <0>        -0.0132
      3 C3          2.3773    1.4107   -0.0130 C.ar      1 <0>        -0.6459
      4 C4          2.3960    0.0285   -0.0201 C.ar      1 <0>        -0.0133
      5 C5          1.2085   -0.6789   -0.0117 C.ar      1 <0>        -0.1136
      6 C6          0.0021   -0.0041    0.0020 C.ar      1 <0>        -0.1157
      7 C7         -1.2926   -0.7753    0.0107 C.3       1 <0>         0.0413
      8 N1         -1.7270   -1.0184   -1.3714 N.4       1 <0>        -0.6365
      9 S1          3.8911    2.3124   -0.0238 S.o2      1 <0>         2.6971
     10 O1          4.8717    1.4529   -0.5884 O.2       1 <0>        -0.9502
     11 O2          3.5973    3.5927   -0.5658 O.2       1 <0>        -0.9502
     12 N2          4.3274    2.5556    1.5551 N.pl3     1 <0>        -1.2462
     13 H1         -0.9591    1.9053    0.0259 H         1 <0>         0.1458
     14 H2          1.1563    3.1654    0.0076 H         1 <0>         0.1576
     15 H3          3.3385   -0.4987   -0.0326 H         1 <0>         0.1576
     16 H4          1.2231   -1.7588   -0.0179 H         1 <0>         0.1458
     17 H5         -1.1443   -1.7285    0.5180 H         1 <0>         0.1464
     18 H6         -2.0551   -0.1993    0.5352 H         1 <0>         0.1464
     19 H7         -1.8643   -0.1360   -1.8410 H         1 <0>         0.4368
     20 H8         -1.0212   -1.5515   -1.8569 H         1 <0>         0.4368
     21 H9          3.7682    2.2150    2.2708 H         1 <0>         0.4171
     22 H10         5.1421    3.0386    1.7642 H         1 <0>         0.4281
     23 H11        -2.5939   -1.5347   -1.3656 H         1 <0>         0.4418
@<TRIPOS>BOND
     1    1    6 ar
     2    1    2 ar
     3    1   13 1
     4    2    3 ar
     5    2   14 1
     6    3    4 ar
     7    3    9 1
     8    4    5 ar
     9    4   15 1
    10    5    6 ar
    11    5   16 1
    12    6    7 1
    13    7    8 1
    14    7   17 1
    15    7   18 1
    16    8   19 1
    17    8   20 1
    18    8   23 1
    19    9   10 2
    20    9   11 2
    21    9   12 1
    22   12   21 1
    23   12   22 1
@<TRIPOS>MOLECULE
ZINC00157085
   20    20     0     0     0
SMALL
USER_CHARGES
2-(4-hydroxyphenyl)acetamide
@<TRIPOS>ATOM
      1 C1          0.0021   -0.0041    0.0020 C.ar      1 <0>        -0.0885
      2 C2         -0.0167    1.3772    0.0096 C.ar      1 <0>        -0.1437
      3 C3          1.1759    2.0860    0.0020 C.ar      1 <0>         0.1060
      4 C4          2.3846    1.4052   -0.0127 C.ar      1 <0>        -0.1437
      5 C5          2.3980    0.0239   -0.0207 C.ar      1 <0>        -0.0885
      6 C6          1.2080   -0.6802   -0.0131 C.ar      1 <0>        -0.0803
      7 C7          1.2256   -2.1871   -0.0209 C.3       1 <0>        -0.1029
      8 C8          1.2176   -2.6822   -1.4442 C.2       1 <0>         0.5151
      9 O1          1.1994   -1.8895   -2.3619 O.2       1 <0>        -0.5317
     10 N1          1.2306   -4.0059   -1.6973 N.am      1 <0>        -0.8584
     11 O2          1.1601    3.4449    0.0090 O.3       1 <0>        -0.4996
     12 H1         -0.9260   -0.5563    0.0083 H         1 <0>         0.1252
     13 H2         -0.9589    1.9049    0.0169 H         1 <0>         0.1296
     14 H3          3.3144    1.9547   -0.0183 H         1 <0>         0.1296
     15 H4          3.3387   -0.5065   -0.0325 H         1 <0>         0.1252
     16 H5          2.1247   -2.5426    0.4824 H         1 <0>         0.1056
     17 H6          0.3449   -2.5634    0.4997 H         1 <0>         0.1056
     18 H7          1.2451   -4.6399   -0.9633 H         1 <0>         0.4020
     19 H8          1.2254   -4.3246   -2.6134 H         1 <0>         0.4028
     20 H9          1.1638    3.8337    0.8944 H         1 <0>         0.3907
@<TRIPOS>BOND
     1    1    6 ar
     2    1    2 ar
     3    1   12 1
     4    2    3 ar
     5    2   13 1
     6    3    4 ar
     7    3   11 1
     8    4    5 ar
     9    4   14 1
    10    5    6 ar
    11    5   15 1
    12    6    7 1
    13    7    8 1
    14    7   16 1
    15    7   17 1
    16    8    9 2
    17    8   10 am
    18   10   18 1
    19   10   19 1
    20   11   20 1
@<TRIPOS>MOLECULE
ZINC04362893
   25    25     0     0     0
SMALL
USER_CHARGES

@<TRIPOS>ATOM
      1 C1         -0.0167    1.3781    0.0096 C.ar      1 <0>        -0.1430
      2 C2          1.1709    2.0855    0.0021 C.ar      1 <0>        -0.0176
      3 C3          2.3773    1.4107   -0.0130 C.ar      1 <0>        -0.6928
      4 C4          2.3960    0.0285   -0.0201 C.ar      1 <0>        -0.0176
      5 C5          1.2085   -0.6789   -0.0117 C.ar      1 <0>        -0.1430
      6 C6          0.0021   -0.0041    0.0020 C.ar      1 <0>        -0.0004
      7 C7         -1.2926   -0.7753    0.0107 C.3       1 <0>        -0.0714
      8 C8         -1.7450   -1.0285   -1.4288 C.3       1 <0>        -0.1764
      9 C9         -3.0397   -1.7997   -1.4201 C.2       1 <0>         0.4907
     10 O1         -3.5530   -2.1173   -0.3608 O.co2     1 <0>        -0.6974
     11 O2         -3.5739   -2.1060   -2.4724 O.co2     1 <0>        -0.7021
     12 S1          3.8911    2.3124   -0.0238 S.o2      1 <0>         2.7039
     13 O3          4.8717    1.4529   -0.5884 O.2       1 <0>        -0.9692
     14 O4          3.5973    3.5927   -0.5658 O.2       1 <0>        -0.9691
     15 N1          4.3274    2.5556    1.5551 N.pl3     1 <0>        -1.2517
     16 H1         -0.9591    1.9053    0.0259 H         1 <0>         0.1340
     17 H2          1.1563    3.1654    0.0076 H         1 <0>         0.1390
     18 H3          3.3385   -0.4987   -0.0326 H         1 <0>         0.1390
     19 H4          1.2231   -1.7588   -0.0179 H         1 <0>         0.1340
     20 H5         -1.1443   -1.7285    0.5180 H         1 <0>         0.0784
     21 H6         -2.0551   -0.1993    0.5352 H         1 <0>         0.0784
     22 H7         -1.8934   -0.0752   -1.9361 H         1 <0>         0.0598
     23 H8         -0.9826   -1.6044   -1.9533 H         1 <0>         0.0598
     24 H9          3.7682    2.2150    2.2708 H         1 <0>         0.4170
     25 H10         5.1421    3.0386    1.7642 H         1 <0>         0.4178
@<TRIPOS>BOND
     1    1    6 ar
     2    1    2 ar
     3    1   16 1
     4    2    3 ar
     5    2   17 1
     6    3    4 ar
     7    3   12 1
     8    4    5 ar
     9    4   18 1
    10    5    6 ar
    11    5   19 1
    12    6    7 1
    13    7    8 1
    14    7   20 1
    15    7   21 1
    16    8    9 1
    17    8   22 1
    18    8   23 1
    19    9   10 2
    20    9   11 1
    21   12   13 2
    22   12   14 2
    23   12   15 1
    24   15   24 1
    25   15   25 1
@<TRIPOS>MOLECULE
ZINC00164581
   20    20     0     0     0
SMALL
USER_CHARGES

@<TRIPOS>ATOM
      1 C1         -0.0167    1.3784    0.0096 C.ar      1 <0>        -0.0976
      2 C2          1.1695    2.0865    0.0021 C.ar      1 <0>        -0.1432
      3 C3          2.3802    1.4093   -0.0131 C.ar      1 <0>         0.1032
      4 C4          2.3963    0.0221   -0.0206 C.ar      1 <0>        -0.1432
      5 C5          1.2074   -0.6814   -0.0130 C.ar      1 <0>        -0.0976
      6 C6          0.0021   -0.0041    0.0020 C.ar      1 <0>        -0.0939
      7 C7         -1.2934   -0.7740    0.0107 C.3       1 <0>        -0.0807
      8 C8         -1.7461   -1.0268   -1.4288 C.3       1 <0>         0.0802
      9 O1         -2.9745   -1.7569   -1.4205 O.3       1 <0>        -0.5758
     10 O2          3.5484    2.1036   -0.0209 O.3       1 <0>        -0.5001
     11 H1         -0.9594    1.9052    0.0259 H         1 <0>         0.1282
     12 H2          1.1543    3.1664    0.0076 H         1 <0>         0.1301
     13 H3          3.3375   -0.5074   -0.0328 H         1 <0>         0.1301
     14 H4          1.2194   -1.7613   -0.0189 H         1 <0>         0.1281
     15 H5         -1.1460   -1.7274    0.5180 H         1 <0>         0.0810
     16 H6         -2.0553   -0.1973    0.5352 H         1 <0>         0.0810
     17 H7         -1.8934   -0.0734   -1.9361 H         1 <0>         0.0477
     18 H8         -0.9842   -1.6035   -1.9533 H         1 <0>         0.0476
     19 H9         -3.3213   -1.9531   -2.3016 H         1 <0>         0.3830
     20 H10         3.8951    2.3001    0.8601 H         1 <0>         0.3920
@<TRIPOS>BOND
     1    1    6 ar
     2    1    2 ar
     3    1   11 1
     4    2    3 ar
     5    2   12 1
     6    3    4 ar
     7    3   10 1
     8    4    5 ar
     9    4   13 1
    10    5    6 ar
    11    5   14 1
    12    6    7 1
    13    7    8 1
    14    7   15 1
    15    7   16 1
    16    8    9 1
    17    8   17 1
    18    8   18 1
    19    9   19 1
    20   10   20 1
@<TRIPOS>MOLECULE
ZINC01688380
   20    20     0     0     0
SMALL
USER_CHARGES
anilinomethanesulfonic acid
@<TRIPOS>ATOM
      1 C1         -0.0544    4.1592    0.0240 C.ar      1 <0>        -0.1890
      2 C2          1.1533    3.4858    0.0093 C.ar      1 <0>        -0.0780
      3 C3          1.1756    2.1049    0.0021 C.ar      1 <0>        -0.2022
      4 C4         -0.0169    1.3925    0.0097 C.ar      1 <0>         0.2170
      5 C5         -1.2283    2.0722    0.0191 C.ar      1 <0>        -0.1847
      6 C6         -1.2434    3.4532    0.0311 C.ar      1 <0>        -0.0716
      7 N1          0.0021   -0.0041    0.0020 N.pl3     1 <0>        -0.7252
      8 C7         -1.2565   -0.7538    0.0100 C.3       1 <0>        -0.4319
      9 S1         -1.7160   -1.1821   -1.6918 S.o2      1 <0>         2.6263
     10 O1         -2.0551   -0.0083   -2.4174 O.2       1 <0>        -1.0399
     11 O2         -0.7944   -2.1228   -2.2255 O.2       1 <0>        -1.0515
     12 H1         -0.0690    5.2391    0.0295 H         1 <0>         0.1131
     13 H2          2.0801    4.0403    0.0038 H         1 <0>         0.1160
     14 H3          2.1192    1.5796   -0.0097 H         1 <0>         0.1172
     15 H4         -2.1573    1.5214    0.0209 H         1 <0>         0.1240
     16 H5         -2.1848    3.9822    0.0422 H         1 <0>         0.1185
     17 H6          0.8486   -0.4776   -0.0086 H         1 <0>         0.4029
     18 H7         -1.1323   -1.6661    0.5934 H         1 <0>         0.1091
     19 H8         -2.0411   -0.1419    0.4551 H         1 <0>         0.1138
     20 O3         -3.0237   -1.9500   -1.5623 O.3       1 <0>        -1.0835
@<TRIPOS>BOND
     1    1    6 ar
     2    1    2 ar
     3    1   12 1
     4    2    3 ar
     5    2   13 1
     6    3    4 ar
     7    3   14 1
     8    4    5 ar
     9    4    7 1
    10    5    6 ar
    11    5   15 1
    12    6   16 1
    13    7    8 1
    14    7   17 1
    15    8    9 1
    16    8   18 1
    17    8   19 1
    18    9   10 2
    19    9   11 2
    20    9   20 1
@<TRIPOS>MOLECULE
ZINC01609839
   23    23     0     0     0
SMALL
USER_CHARGES
(methyl-phenyl-amino)methanesulfonic acid
@<TRIPOS>ATOM
      1 C1          1.2806   -0.7192   -0.0140 C.3       1 <0>         0.0863
      2 N1          0.0021   -0.0041    0.0020 N.pl3     1 <0>        -0.6117
      3 C2         -1.2565   -0.7538    0.0100 C.3       1 <0>        -0.4275
      4 S1         -1.7924   -1.0540   -1.6968 S.o2      1 <0>         2.6254
      5 O1         -2.1609    0.1704   -2.3167 O.2       1 <0>        -1.0386
      6 O2         -0.8975   -1.9510   -2.3401 O.2       1 <0>        -1.0501
      7 C3         -0.0169    1.3925    0.0097 C.ar      1 <0>         0.2143
      8 C4         -1.2283    2.0722    0.0191 C.ar      1 <0>        -0.1780
      9 C5         -1.2434    3.4532    0.0311 C.ar      1 <0>        -0.0723
     10 C6         -0.0544    4.1592    0.0240 C.ar      1 <0>        -0.1881
     11 C7          1.1533    3.4858    0.0093 C.ar      1 <0>        -0.0798
     12 C8          1.1756    2.1049    0.0021 C.ar      1 <0>        -0.2033
     13 H1          1.6074   -0.9021    1.0096 H         1 <0>         0.0449
     14 H2          1.1583   -1.6705   -0.5318 H         1 <0>         0.0790
     15 H3          2.0272   -0.1171   -0.5318 H         1 <0>         0.0707
     16 H4         -1.1084   -1.7071    0.5173 H         1 <0>         0.1103
     17 H5         -2.0192   -0.1778    0.5342 H         1 <0>         0.1119
     18 H6         -2.1573    1.5214    0.0208 H         1 <0>         0.1243
     19 H7         -2.1848    3.9822    0.0422 H         1 <0>         0.1184
     20 H8         -0.0690    5.2391    0.0295 H         1 <0>         0.1126
     21 H9          2.0801    4.0403    0.0038 H         1 <0>         0.1153
     22 H10         2.1192    1.5796   -0.0097 H         1 <0>         0.1195
     23 O3         -3.0946   -1.8310   -1.5670 O.3       1 <0>        -1.0836
@<TRIPOS>BOND
     1    1    2 1
     2    1   13 1
     3    1   14 1
     4    1   15 1
     5    2    3 1
     6    2    7 1
     7    3    4 1
     8    3   16 1
     9    3   17 1
    10    4    5 2
    11    4    6 2
    12    4   23 1
    13    7   12 ar
    14    7    8 ar
    15    8    9 ar
    16    8   18 1
    17    9   10 ar
    18    9   19 1
    19   10   11 ar
    20   10   20 1
    21   11   12 ar
    22   11   21 1
    23   12   22 1
@<TRIPOS>MOLECULE
ZINC00388056
   20    20     0     0     0
SMALL
USER_CHARGES

@<TRIPOS>ATOM
      1 C1         -0.0184    1.5028    0.0103 C.3       1 <0>        -0.1275
      2 C2          0.0021   -0.0041    0.0020 C.ar      1 <0>        -0.0241
      3 C3          0.0057   -0.6887   -1.1989 C.ar      1 <0>        -0.1437
      4 C4          0.0245   -2.0709   -1.2065 C.ar      1 <0>        -0.0144
      5 C5          0.0400   -2.7685   -0.0132 C.ar      1 <0>        -0.6833
      6 C6          0.0373   -2.0839    1.1877 C.ar      1 <0>        -0.0144
      7 C7          0.0229   -0.7016    1.1953 C.ar      1 <0>        -0.1437
      8 S1          0.0628   -4.5303   -0.0229 S.o2      1 <0>         2.7023
      9 O1         -0.4759   -4.9503    1.2232 O.2       1 <0>        -0.9636
     10 O2         -0.4897   -4.9367   -1.2674 O.2       1 <0>        -0.9636
     11 N1          1.6509   -4.9994   -0.0343 N.pl3     1 <0>        -1.2501
     12 H1          1.0042    1.8801    0.0026 H         1 <0>         0.0812
     13 H2         -0.5455    1.8639   -0.8728 H         1 <0>         0.0745
     14 H3         -0.5286    1.8543    0.9071 H         1 <0>         0.0745
     15 H4         -0.0064   -0.1436   -2.1312 H         1 <0>         0.1350
     16 H5          0.0266   -2.6057   -2.1448 H         1 <0>         0.1438
     17 H6          0.0491   -2.6289    2.1200 H         1 <0>         0.1438
     18 H7          0.0245   -0.1667    2.1335 H         1 <0>         0.1350
     19 H8          2.3540   -4.3312   -0.0345 H         1 <0>         0.4166
     20 H9          1.8780   -5.9424   -0.0406 H         1 <0>         0.4215
@<TRIPOS>BOND
     1    1    2 1
     2    1   12 1
     3    1   13 1
     4    1   14 1
     5    2    7 ar
     6    2    3 ar
     7    3    4 ar
     8    3   15 1
     9    4    5 ar
    10    4   16 1
    11    5    6 ar
    12    5    8 1
    13    6    7 ar
    14    6   17 1
    15    7   18 1
    16    8    9 2
    17    8   10 2
    18    8   11 1
    19   11   19 1
    20   11   20 1
@<TRIPOS>MOLECULE
ZINC14676741
   25    26     0     0     0
SMALL
USER_CHARGES

@<TRIPOS>ATOM
      1 C1         -0.0588    1.4171    0.1090 C.ar      1 <0>        -0.1200
      2 C2          1.1113    2.1428    0.1596 C.ar      1 <0>        -0.1242
      3 C3          2.3371    1.4910    0.1655 C.ar      1 <0>         0.0892
      4 C4          2.3915    0.0979    0.1203 C.ar      1 <0>         0.0891
      5 C5          1.2245   -0.6377    0.0700 C.ar      1 <0>        -0.1080
      6 C6         -0.0129    0.0186    0.0639 C.ar      1 <0>        -0.0557
      7 C7         -1.2580   -0.7577    0.0105 C.2       1 <0>        -0.0439
      8 C8         -2.3919   -0.1893   -0.4719 C.2       1 <0>         0.0009
      9 C9         -3.7580   -0.7440   -0.4469 C.2       1 <0>         0.5373
     10 O1         -4.1033   -1.8191    0.0166 O.2       1 <0>        -0.4655
     11 N1         -4.5450    0.1680   -1.0348 N.2       1 <0>        -0.6406
     12 C10        -3.8378    1.2092   -1.4164 C.2       1 <0>         0.6549
     13 N2         -2.5241    1.0557   -1.0976 N.pl3     1 <0>        -0.6748
     14 N3         -4.3570    2.3070   -2.0476 N.pl3     1 <0>        -0.8032
     15 O2          3.5947   -0.5358    0.1255 O.3       1 <0>        -0.4856
     16 O3          3.4871    2.2123    0.2150 O.3       1 <0>        -0.4862
     17 H1         -1.0110    1.9267    0.1087 H         1 <0>         0.1303
     18 H2          1.0748    3.2216    0.1943 H         1 <0>         0.1390
     19 H3          1.2655   -1.7163    0.0346 H         1 <0>         0.1436
     20 H4         -1.2715   -1.7812    0.3551 H         1 <0>         0.1619
     21 H5         -1.8115    1.6901   -1.2729 H         1 <0>         0.4265
     22 H6         -5.3065    2.3515   -2.2408 H         1 <0>         0.4340
     23 H7         -3.7754    3.0405   -2.3018 H         1 <0>         0.4172
     24 H8          3.9235   -0.7484    1.0096 H         1 <0>         0.3920
     25 H9          3.8003    2.3920    1.1120 H         1 <0>         0.3916
@<TRIPOS>BOND
     1    1    6 ar
     2    1    2 ar
     3    1   17 1
     4    2    3 ar
     5    2   18 1
     6    3    4 ar
     7    3   16 1
     8    4    5 ar
     9    4   15 1
    10    5    6 ar
    11    5   19 1
    12    6    7 1
    13    7    8 2
    14    7   20 1
    15    8   13 1
    16    8    9 1
    17    9   10 2
    18    9   11 1
    19   11   12 2
    20   12   13 1
    21   12   14 1
    22   13   21 1
    23   14   22 1
    24   14   23 1
    25   15   24 1
    26   16   25 1
@<TRIPOS>MOLECULE
ZINC00056465
   29    30     0     0     0
SMALL
USER_CHARGES

@<TRIPOS>ATOM
      1 C1         -0.0199    1.3777    0.2035 C.ar      1 <0>        -0.1402
      2 C2          1.1642    2.0884    0.2096 C.ar      1 <0>         0.0022
      3 C3          2.3676    1.4313    0.0296 C.ar      1 <0>        -0.6984
      4 C4          2.3898    0.0613   -0.1574 C.ar      1 <0>         0.0056
      5 C5          1.2093   -0.6553   -0.1646 C.ar      1 <0>        -0.1753
      6 C6         -0.0012    0.0015    0.0163 C.ar      1 <0>         0.2244
      7 N1         -1.1980   -0.7210    0.0101 N.pl3     1 <0>        -0.6525
      8 C7         -2.3560   -0.1396   -0.4827 C.ar      1 <0>         0.4621
      9 C8         -3.5801   -0.8053   -0.3850 C.ar      1 <0>        -0.3322
     10 C9         -4.7077   -0.1881   -0.8897 C.ar      1 <0>         0.2214
     11 N2         -4.5969    1.0087   -1.4477 N.ar      1 <0>        -0.5970
     12 C10        -3.4228    1.6171   -1.5269 C.ar      1 <0>         0.6015
     13 N3         -2.3187    1.0617   -1.0502 N.ar      1 <0>        -0.6120
     14 N4         -3.3487    2.8665   -2.1176 N.pl3     1 <0>        -0.8176
     15 S1          3.8761    2.3418    0.0380 S.o2      1 <0>         2.7031
     16 O1          4.8193    1.5720   -0.6948 O.2       1 <0>        -0.9653
     17 O2          3.5458    3.6783   -0.3139 O.2       1 <0>        -0.9648
     18 N5          4.4139    2.3839    1.6037 N.pl3     1 <0>        -1.2508
     19 H1         -0.9591    1.8909    0.3485 H         1 <0>         0.1460
     20 H2          1.1503    3.1585    0.3547 H         1 <0>         0.1447
     21 H3          3.3313   -0.4487   -0.2984 H         1 <0>         0.1464
     22 H4          1.2272   -1.7252   -0.3111 H         1 <0>         0.1365
     23 H5         -1.2181   -1.6290    0.3506 H         1 <0>         0.4264
     24 H6         -3.6432   -1.7807    0.0744 H         1 <0>         0.1442
     25 H7         -5.6695   -0.6757   -0.8304 H         1 <0>         0.1716
     26 H8         -4.1504    3.2859   -2.4674 H         1 <0>         0.4175
     27 H9         -2.4951    3.3228   -2.1819 H         1 <0>         0.4153
     28 H10         3.9030    1.9484    2.3039 H         1 <0>         0.4164
     29 H11         5.2398    2.8440    1.8207 H         1 <0>         0.4208
@<TRIPOS>BOND
     1    1    6 ar
     2    1    2 ar
     3    1   19 1
     4    2    3 ar
     5    2   20 1
     6    3    4 ar
     7    3   15 1
     8    4    5 ar
     9    4   21 1
    10    5    6 ar
    11    5   22 1
    12    6    7 1
    13    7    8 1
    14    7   23 1
    15    8   13 ar
    16    8    9 ar
    17    9   10 ar
    18    9   24 1
    19   10   11 ar
    20   10   25 1
    21   11   12 ar
    22   12   13 ar
    23   12   14 1
    24   14   26 1
    25   14   27 1
    26   15   16 2
    27   15   17 2
    28   15   18 1
    29   18   28 1
    30   18   29 1
@<TRIPOS>MOLECULE
ZINC00056465
   30    31     0     0     0
SMALL
USER_CHARGES

@<TRIPOS>ATOM
      1 C1         -0.0199    1.3777    0.2035 C.ar      1 <0>        -0.1319
      2 C2          1.1642    2.0884    0.2096 C.ar      1 <0>         0.0025
      3 C3          2.3676    1.4313    0.0296 C.ar      1 <0>        -0.6759
      4 C4          2.3898    0.0613   -0.1574 C.ar      1 <0>         0.0076
      5 C5          1.2093   -0.6553   -0.1646 C.ar      1 <0>        -0.1486
      6 C6         -0.0012    0.0015    0.0163 C.ar      1 <0>         0.1749
      7 N1         -1.1980   -0.7210    0.0101 N.pl3     1 <0>        -0.6051
      8 C7         -2.3560   -0.1396   -0.4827 C.ar      1 <0>         0.5179
      9 C8         -3.5801   -0.8053   -0.3850 C.ar      1 <0>        -0.2622
     10 C9         -4.7077   -0.1881   -0.8897 C.ar      1 <0>         0.2215
     11 N2         -4.5969    1.0087   -1.4477 N.ar      1 <0>        -0.5707
     12 C10        -3.4227    1.6169   -1.5273 C.ar      1 <0>         0.6609
     13 N3         -2.3187    1.0617   -1.0502 N.ar      1 <0>        -0.5663
     14 N4         -3.3486    2.8661   -2.1184 N.pl3     1 <0>        -0.7875
     15 S1          3.8761    2.3418    0.0380 S.o2      1 <0>         2.7008
     16 O1          4.8193    1.5720   -0.6948 O.2       1 <0>        -0.9549
     17 O2          3.5458    3.6783   -0.3139 O.2       1 <0>        -0.9573
     18 N5          4.4139    2.3839    1.6037 N.pl3     1 <0>        -1.2482
     19 H1         -0.9591    1.8909    0.3485 H         1 <0>         0.1447
     20 H2          1.1503    3.1585    0.3547 H         1 <0>         0.1536
     21 H3          3.3313   -0.4487   -0.2984 H         1 <0>         0.1570
     22 H4          1.2272   -1.7252   -0.3111 H         1 <0>         0.1457
     23 H5         -1.2181   -1.6290    0.3506 H         1 <0>         0.4424
     24 H6         -3.6432   -1.7807    0.0744 H         1 <0>         0.1906
     25 H7         -5.6695   -0.6757   -0.8304 H         1 <0>         0.2208
     26 H8         -4.1502    3.2855   -2.4681 H         1 <0>         0.4325
     27 H9         -2.4949    3.3222   -2.1830 H         1 <0>         0.4464
     28 H10         3.9030    1.9484    2.3039 H         1 <0>         0.4167
     29 H11         5.2398    2.8440    1.8207 H         1 <0>         0.4256
     30 H12        -5.3866    1.4455   -1.8033 H         1 <0>         0.4467
@<TRIPOS>BOND
     1    1    6 ar
     2    1    2 ar
     3    1   19 1
     4    2    3 ar
     5    2   20 1
     6    3    4 ar
     7    3   15 1
     8    4    5 ar
     9    4   21 1
    10    5    6 ar
    11    5   22 1
    12    6    7 1
    13    7    8 1
    14    7   23 1
    15    8   13 ar
    16    8    9 ar
    17    9   10 ar
    18    9   24 1
    19   10   11 ar
    20   10   25 1
    21   11   12 ar
    22   11   30 1
    23   12   13 ar
    24   12   14 1
    25   14   26 1
    26   14   27 1
    27   15   16 2
    28   15   17 2
    29   15   18 1
    30   18   28 1
    31   18   29 1
@<TRIPOS>MOLECULE
ZINC00163348
   19    19     0     0     0
SMALL
USER_CHARGES

@<TRIPOS>ATOM
      1 C1         -0.0166    1.3766    0.0096 C.ar      1 <0>        -0.0148
      2 C2          1.1707    2.0859    0.0021 C.ar      1 <0>        -0.1944
      3 C3          2.3799    1.4157   -0.0135 C.ar      1 <0>         0.0238
      4 C4          2.4059    0.0347   -0.0211 C.ar      1 <0>        -0.7501
      5 C5          1.2154   -0.6807   -0.0131 C.ar      1 <0>         0.3076
      6 C6          0.0021   -0.0041    0.0020 C.ar      1 <0>        -0.2142
      7 N1          1.2380   -2.0772   -0.0208 N.pl3     1 <0>        -0.8689
      8 S1          3.9474   -0.8184   -0.0415 S.o2      1 <0>         2.7017
      9 O1          3.8584   -1.7934   -1.0714 O.2       1 <0>        -0.9671
     10 O2          4.9622    0.1761   -0.0196 O.2       1 <0>        -0.9638
     11 N2          4.0669   -1.6480    1.3867 N.pl3     1 <0>        -1.2533
     12 H1         -0.9594    1.9032    0.0259 H         1 <0>         0.1324
     13 H2          1.1532    3.1658    0.0080 H         1 <0>         0.1322
     14 H3          3.3052    1.9726   -0.0200 H         1 <0>         0.1448
     15 H4         -0.9254   -0.5574    0.0082 H         1 <0>         0.1321
     16 H5          2.0857   -2.5485   -0.0317 H         1 <0>         0.4032
     17 H6          0.4060   -2.5758   -0.0152 H         1 <0>         0.4103
     18 H7          3.3512   -1.5955    2.0394 H         1 <0>         0.4166
     19 H8          4.8524   -2.1865    1.5706 H         1 <0>         0.4220
@<TRIPOS>BOND
     1    1    6 ar
     2    1    2 ar
     3    1   12 1
     4    2    3 ar
     5    2   13 1
     6    3    4 ar
     7    3   14 1
     8    4    5 ar
     9    4    8 1
    10    5    6 ar
    11    5    7 1
    12    6   15 1
    13    7   16 1
    14    7   17 1
    15    8    9 2
    16    8   10 2
    17    8   11 1
    18   11   18 1
    19   11   19 1
@<TRIPOS>MOLECULE
ZINC12522340
   19    19     0     0     0
SMALL
USER_CHARGES

@<TRIPOS>ATOM
      1 C1         -0.0167    1.3783    0.0096 C.ar      1 <0>         0.0432
      2 C2          1.1691    2.0872    0.0021 C.ar      1 <0>        -0.2113
      3 C3          2.3811    1.4099   -0.0131 C.ar      1 <0>         0.2994
      4 C4          2.3969    0.0199   -0.0208 C.ar      1 <0>        -0.1966
      5 C5          1.2073   -0.6825   -0.0132 C.ar      1 <0>         0.0609
      6 C6          0.0021   -0.0041    0.0020 C.ar      1 <0>        -0.7307
      7 S1         -1.5129   -0.9037    0.0117 S.o2      1 <0>         2.7071
      8 O1         -1.2211   -2.1848    0.5529 O.2       1 <0>        -0.9643
      9 O2         -2.4926   -0.0432    0.5765 O.2       1 <0>        -0.9644
     10 N1         -1.9490   -1.1452   -1.5675 N.pl3     1 <0>        -1.2510
     11 Br1         4.0443   -0.9082   -0.0421 Br        1 <0>        -0.0366
     12 N2          3.5822    2.1238   -0.0212 N.pl3     1 <0>        -0.8542
     13 H1         -0.9595    1.9048    0.0260 H         1 <0>         0.1500
     14 H2          1.1534    3.1670    0.0077 H         1 <0>         0.1423
     15 H3          1.2184   -1.7624   -0.0191 H         1 <0>         0.1521
     16 H4         -1.3892   -0.8049   -2.2828 H         1 <0>         0.4166
     17 H5         -2.7644   -1.6270   -1.7772 H         1 <0>         0.4210
     18 H6          3.5700    3.0937   -0.0162 H         1 <0>         0.4089
     19 H7          4.4283    1.6495   -0.0319 H         1 <0>         0.4077
@<TRIPOS>BOND
     1    1    6 ar
     2    1    2 ar
     3    1   13 1
     4    2    3 ar
     5    2   14 1
     6    3    4 ar
     7    3   12 1
     8    4    5 ar
     9    4   11 1
    10    5    6 ar
    11    5   15 1
    12    6    7 1
    13    7    8 2
    14    7    9 2
    15    7   10 1
    16   10   16 1
    17   10   17 1
    18   12   18 1
    19   12   19 1
@<TRIPOS>MOLECULE
ZINC13442505
   24    24     0     0     0
SMALL
USER_CHARGES

@<TRIPOS>ATOM
      1 C1         -0.0167    1.3781    0.0096 C.ar      1 <0>        -0.1362
      2 C2          1.1709    2.0855    0.0021 C.ar      1 <0>        -0.0152
      3 C3          2.3773    1.4107   -0.0130 C.ar      1 <0>        -0.6784
      4 C4          2.3960    0.0285   -0.0201 C.ar      1 <0>        -0.0153
      5 C5          1.2085   -0.6789   -0.0117 C.ar      1 <0>        -0.1362
      6 C6          0.0021   -0.0041    0.0020 C.ar      1 <0>        -0.0228
      7 C7         -1.2926   -0.7753    0.0107 C.3       1 <0>        -0.0918
      8 C8         -1.7450   -1.0285   -1.4288 C.3       1 <0>         0.0810
      9 O1         -2.9727   -1.7598   -1.4206 O.3       1 <0>        -0.5741
     10 S1          3.8911    2.3124   -0.0238 S.o2      1 <0>         2.7020
     11 O2          4.8717    1.4529   -0.5884 O.2       1 <0>        -0.9626
     12 O3          3.5973    3.5927   -0.5658 O.2       1 <0>        -0.9626
     13 N1          4.3274    2.5556    1.5551 N.pl3     1 <0>        -1.2498
     14 H1         -0.9591    1.9053    0.0259 H         1 <0>         0.1363
     15 H2          1.1563    3.1654    0.0076 H         1 <0>         0.1453
     16 H3          3.3385   -0.4987   -0.0326 H         1 <0>         0.1453
     17 H4          1.2231   -1.7588   -0.0179 H         1 <0>         0.1363
     18 H5         -1.1443   -1.7285    0.5180 H         1 <0>         0.0875
     19 H6         -2.0551   -0.1993    0.5352 H         1 <0>         0.0875
     20 H7         -1.8934   -0.0752   -1.9361 H         1 <0>         0.0499
     21 H8         -0.9826   -1.6044   -1.9533 H         1 <0>         0.0499
     22 H9         -3.3194   -1.9563   -2.3016 H         1 <0>         0.3854
     23 H10         3.7682    2.2150    2.2708 H         1 <0>         0.4169
     24 H11         5.1421    3.0386    1.7642 H         1 <0>         0.4218
@<TRIPOS>BOND
     1    1    6 ar
     2    1    2 ar
     3    1   14 1
     4    2    3 ar
     5    2   15 1
     6    3    4 ar
     7    3   10 1
     8    4    5 ar
     9    4   16 1
    10    5    6 ar
    11    5   17 1
    12    6    7 1
    13    7    8 1
    14    7   18 1
    15    7   19 1
    16    8    9 1
    17    8   20 1
    18    8   21 1
    19    9   22 1
    20   10   11 2
    21   10   12 2
    22   10   13 1
    23   13   23 1
    24   13   24 1
@<TRIPOS>MOLECULE
ZINC06925827
   19    19     0     0     0
SMALL
USER_CHARGES

@<TRIPOS>ATOM
      1 C1         -0.0167    1.3781    0.0096 C.ar      1 <0>         0.0242
      2 C2          1.1692    2.0876    0.0021 C.ar      1 <0>        -0.1967
      3 C3          2.3811    1.4114   -0.0131 C.ar      1 <0>         0.2470
      4 C4          2.3976    0.0203   -0.0208 C.ar      1 <0>        -0.0015
      5 C5          1.2074   -0.6827   -0.0132 C.ar      1 <0>        -0.0028
      6 C6          0.0021   -0.0041    0.0020 C.ar      1 <0>        -0.7114
      7 S1         -1.5130   -0.9036    0.0117 S.o2      1 <0>         2.7084
      8 O1         -1.2212   -2.1847    0.5529 O.2       1 <0>        -0.9645
      9 O2         -2.4926   -0.0431    0.5765 O.2       1 <0>        -0.9636
     10 N1         -1.9491   -1.1451   -1.5675 N.pl3     1 <0>        -1.2509
     11 F1          3.5748   -0.6424   -0.0360 F         1 <0>        -0.1362
     12 N2          3.5828    2.1266   -0.0212 N.pl3     1 <0>        -0.8574
     13 H1         -0.9596    1.9043    0.0260 H         1 <0>         0.1506
     14 H2          1.1529    3.1674    0.0077 H         1 <0>         0.1433
     15 H3          1.2185   -1.7627   -0.0195 H         1 <0>         0.1554
     16 H4         -1.3892   -0.8048   -2.2828 H         1 <0>         0.4167
     17 H5         -2.7645   -1.6268   -1.7772 H         1 <0>         0.4211
     18 H6          3.5699    3.0965   -0.0162 H         1 <0>         0.4096
     19 H7          4.4291    1.6528   -0.0319 H         1 <0>         0.4087
@<TRIPOS>BOND
     1    1    6 ar
     2    1    2 ar
     3    1   13 1
     4    2    3 ar
     5    2   14 1
     6    3    4 ar
     7    3   12 1
     8    4    5 ar
     9    4   11 1
    10    5    6 ar
    11    5   15 1
    12    6    7 1
    13    7    8 2
    14    7    9 2
    15    7   10 1
    16   10   16 1
    17   10   17 1
    18   12   18 1
    19   12   19 1
@<TRIPOS>MOLECULE
ZINC13442503
   21    21     0     0     0
SMALL
USER_CHARGES

@<TRIPOS>ATOM
      1 C1         -0.0167    1.3781    0.0096 C.ar      1 <0>        -0.1208
      2 C2          1.1709    2.0855    0.0021 C.ar      1 <0>        -0.0206
      3 C3          2.3773    1.4107   -0.0130 C.ar      1 <0>        -0.6712
      4 C4          2.3960    0.0285   -0.0201 C.ar      1 <0>        -0.0206
      5 C5          1.2085   -0.6789   -0.0117 C.ar      1 <0>        -0.1209
      6 C6          0.0021   -0.0041    0.0020 C.ar      1 <0>        -0.0340
      7 C7         -1.2926   -0.7753    0.0107 C.3       1 <0>         0.1076
      8 O1         -1.7152   -1.0118   -1.3338 O.3       1 <0>        -0.5648
      9 S1          3.8911    2.3124   -0.0238 S.o2      1 <0>         2.7023
     10 O2          4.8717    1.4529   -0.5884 O.2       1 <0>        -0.9616
     11 O3          3.5973    3.5927   -0.5658 O.2       1 <0>        -0.9616
     12 N1          4.3274    2.5556    1.5551 N.pl3     1 <0>        -1.2496
     13 H1         -0.9591    1.9053    0.0259 H         1 <0>         0.1364
     14 H2          1.1563    3.1654    0.0076 H         1 <0>         0.1464
     15 H3          3.3385   -0.4987   -0.0326 H         1 <0>         0.1464
     16 H4          1.2231   -1.7588   -0.0179 H         1 <0>         0.1364
     17 H5         -1.1443   -1.7285    0.5180 H         1 <0>         0.0623
     18 H6         -2.0551   -0.1993    0.5352 H         1 <0>         0.0623
     19 H7         -2.5441   -1.5047   -1.4046 H         1 <0>         0.3868
     20 H8          3.7682    2.2150    2.2708 H         1 <0>         0.4167
     21 H9          5.1421    3.0386    1.7642 H         1 <0>         0.4220
@<TRIPOS>BOND
     1    1    6 ar
     2    1    2 ar
     3    1   13 1
     4    2    3 ar
     5    2   14 1
     6    3    4 ar
     7    3    9 1
     8    4    5 ar
     9    4   15 1
    10    5    6 ar
    11    5   16 1
    12    6    7 1
    13    7    8 1
    14    7   17 1
    15    7   18 1
    16    8   19 1
    17    9   10 2
    18    9   11 2
    19    9   12 1
    20   12   20 1
    21   12   21 1
@<TRIPOS>MOLECULE
ZINC00056629
   26    26     0     0     0
SMALL
USER_CHARGES

@<TRIPOS>ATOM
      1 C1         -0.0167    1.3781    0.0096 C.ar      1 <0>        -0.1310
      2 C2          1.1709    2.0855    0.0021 C.ar      1 <0>        -0.0118
      3 C3          2.3773    1.4107   -0.0130 C.ar      1 <0>        -0.6631
      4 C4          2.3960    0.0285   -0.0201 C.ar      1 <0>        -0.0118
      5 C5          1.2085   -0.6789   -0.0117 C.ar      1 <0>        -0.1310
      6 C6          0.0021   -0.0041    0.0020 C.ar      1 <0>        -0.0517
      7 C7         -1.2926   -0.7753    0.0107 C.3       1 <0>        -0.1123
      8 C8         -1.7450   -1.0285   -1.4288 C.3       1 <0>        -0.0066
      9 N1         -3.0071   -1.7802   -1.4203 N.4       1 <0>        -0.6375
     10 S1          3.8911    2.3124   -0.0238 S.o2      1 <0>         2.6984
     11 O1          4.8717    1.4529   -0.5884 O.2       1 <0>        -0.9553
     12 O2          3.5973    3.5927   -0.5658 O.2       1 <0>        -0.9553
     13 N2          4.3274    2.5556    1.5551 N.pl3     1 <0>        -1.2477
     14 H1         -0.9591    1.9053    0.0259 H         1 <0>         0.1380
     15 H2          1.1563    3.1654    0.0076 H         1 <0>         0.1512
     16 H3          3.3385   -0.4987   -0.0326 H         1 <0>         0.1512
     17 H4          1.2231   -1.7588   -0.0179 H         1 <0>         0.1380
     18 H5         -1.1443   -1.7285    0.5180 H         1 <0>         0.1028
     19 H6         -2.0551   -0.1993    0.5352 H         1 <0>         0.1028
     20 H7         -1.8934   -0.0752   -1.9361 H         1 <0>         0.1377
     21 H8         -0.9826   -1.6044   -1.9533 H         1 <0>         0.1377
     22 H9         -2.8698   -2.6627   -0.9508 H         1 <0>         0.4365
     23 H10        -3.7129   -1.2471   -0.9348 H         1 <0>         0.4365
     24 H11         3.7682    2.2150    2.2708 H         1 <0>         0.4166
     25 H12         5.1421    3.0386    1.7642 H         1 <0>         0.4261
     26 H13        -3.3055   -1.9473   -2.3696 H         1 <0>         0.4414
@<TRIPOS>BOND
     1    1    6 ar
     2    1    2 ar
     3    1   14 1
     4    2    3 ar
     5    2   15 1
     6    3    4 ar
     7    3   10 1
     8    4    5 ar
     9    4   16 1
    10    5    6 ar
    11    5   17 1
    12    6    7 1
    13    7    8 1
    14    7   18 1
    15    7   19 1
    16    8    9 1
    17    8   20 1
    18    8   21 1
    19    9   22 1
    20    9   23 1
    21    9   26 1
    22   10   11 2
    23   10   12 2
    24   10   13 1
    25   13   24 1
    26   13   25 1
@<TRIPOS>MOLECULE
ZINC01420707
   19    19     0     0     0
SMALL
USER_CHARGES

@<TRIPOS>ATOM
      1 C1         -0.0167    1.3783    0.0096 C.ar      1 <0>         0.0352
      2 C2          1.1691    2.0872    0.0021 C.ar      1 <0>        -0.2082
      3 C3          2.3811    1.4102   -0.0131 C.ar      1 <0>         0.2843
      4 C4          2.3970    0.0200   -0.0206 C.ar      1 <0>        -0.1395
      5 C5          1.2073   -0.6826   -0.0130 C.ar      1 <0>         0.0407
      6 C6          0.0021   -0.0041    0.0020 C.ar      1 <0>        -0.7255
      7 S1         -1.5129   -0.9037    0.0116 S.o2      1 <0>         2.7076
      8 O1         -1.2211   -2.1848    0.5528 O.2       1 <0>        -0.9645
      9 O2         -2.4926   -0.0432    0.5764 O.2       1 <0>        -0.9644
     10 N1         -1.9490   -1.1452   -1.5676 N.pl3     1 <0>        -1.2510
     11 Cl1         3.9094   -0.8320   -0.0402 Cl        1 <0>        -0.0582
     12 N2          3.5823    2.1243   -0.0212 N.pl3     1 <0>        -0.8554
     13 H1         -0.9596    1.9047    0.0259 H         1 <0>         0.1498
     14 H2          1.1533    3.1671    0.0077 H         1 <0>         0.1426
     15 H3          1.2184   -1.7625   -0.0193 H         1 <0>         0.1528
     16 H4         -1.3890   -0.8048   -2.2828 H         1 <0>         0.4166
     17 H5         -2.7643   -1.6269   -1.7774 H         1 <0>         0.4209
     18 H6          3.5700    3.0943   -0.0162 H         1 <0>         0.4088
     19 H7          4.4285    1.6502   -0.0317 H         1 <0>         0.4074
@<TRIPOS>BOND
     1    1    6 ar
     2    1    2 ar
     3    1   13 1
     4    2    3 ar
     5    2   14 1
     6    3    4 ar
     7    3   12 1
     8    4    5 ar
     9    4   11 1
    10    5    6 ar
    11    5   15 1
    12    6    7 1
    13    7    8 2
    14    7    9 2
    15    7   10 1
    16   10   16 1
    17   10   17 1
    18   12   18 1
    19   12   19 1
@<TRIPOS>MOLECULE
ZINC00600748
   35    37     0     0     0
SMALL
USER_CHARGES

@<TRIPOS>ATOM
      1 C1         -0.0167    1.3833    0.0096 C.ar      1 <0>        -0.0658
      2 C2          1.1498    2.0946    0.0023 C.ar      1 <0>        -0.1810
      3 C3          2.3755    1.4227   -0.0129 C.ar      1 <0>        -0.0578
      4 C4          3.7743    1.8589   -0.0239 C.2       1 <0>        -0.1424
      5 C5          4.5318    0.7499   -0.0371 C.2       1 <0>         0.0589
      6 N1          3.7312   -0.3608   -0.0354 N.pl3     1 <0>        -0.5639
      7 H1          4.0489   -1.2772   -0.0431 H         1 <0>         0.4204
      8 C6          2.4060    0.0182   -0.0207 C.ar      1 <0>         0.0672
      9 C7          1.2031   -0.6918   -0.0131 C.ar      1 <0>         0.2887
     10 C8          0.0021   -0.0041    0.0020 C.ar      1 <0>        -0.2774
     11 N2          1.2123   -2.0901   -0.0211 N.2       1 <0>        -1.0983
     12 S1         -0.2163   -2.9276   -0.0119 S.o2      1 <0>         2.6015
     13 O1         -0.8331   -2.6648    1.2410 O.2       1 <0>        -1.0191
     14 O2         -0.8573   -2.6507   -1.2495 O.2       1 <0>        -1.0191
     15 C9          0.1854   -4.6431   -0.0255 C.ar      1 <0>        -0.5600
     16 C10         0.3368   -5.3080   -1.2280 C.ar      1 <0>        -0.0460
     17 C11         0.6520   -6.6539   -1.2387 C.ar      1 <0>        -0.0477
     18 C12         0.8161   -7.3348   -0.0469 C.ar      1 <0>        -0.6465
     19 C13         0.6655   -6.6697    1.1555 C.ar      1 <0>        -0.0424
     20 C14         0.3546   -5.3228    1.1662 C.ar      1 <0>        -0.0463
     21 S2          1.2166   -9.0506   -0.0605 S.o2      1 <0>         2.7037
     22 O3          0.7798   -9.5795    1.1839 O.2       1 <0>        -0.9626
     23 O4          0.7653   -9.5632   -1.3067 O.2       1 <0>        -0.9604
     24 N3          2.8684   -9.1678   -0.0709 N.pl3     1 <0>        -1.2473
     25 Cl1         4.3444    3.4986   -0.0211 Cl        1 <0>        -0.0680
     26 H2         -0.9619    1.9056    0.0260 H         1 <0>         0.1063
     27 H3          1.1249    3.1743    0.0080 H         1 <0>         0.1067
     28 H4          5.6116    0.7362   -0.0475 H         1 <0>         0.1666
     29 H5         -0.9285   -0.5521    0.0079 H         1 <0>         0.1011
     30 H6          0.2086   -4.7760   -2.1591 H         1 <0>         0.1487
     31 H7          0.7696   -7.1735   -2.1781 H         1 <0>         0.1471
     32 H8          0.7934   -7.2018    2.0866 H         1 <0>         0.1469
     33 H9          0.2406   -4.8024    2.1056 H         1 <0>         0.1487
     34 H10         3.3032   -9.9305    0.3415 H         1 <0>         0.4207
     35 H11         3.4012   -8.4736   -0.4895 H         1 <0>         0.4189
@<TRIPOS>BOND
     1    1   10 ar
     2    1    2 ar
     3    1   26 1
     4    2    3 ar
     5    2   27 1
     6    3    8 ar
     7    3    4 1
     8    4    5 2
     9    4   25 1
    10    5    6 1
    11    5   28 1
    12    6    7 1
    13    6    8 1
    14    8    9 ar
    15    9   10 ar
    16    9   11 1
    17   10   29 1
    18   11   12 1
    19   12   13 2
    20   12   14 2
    21   12   15 1
    22   15   20 ar
    23   15   16 ar
    24   16   17 ar
    25   16   30 1
    26   17   18 ar
    27   17   31 1
    28   18   19 ar
    29   18   21 1
    30   19   20 ar
    31   19   32 1
    32   20   33 1
    33   21   22 2
    34   21   23 2
    35   21   24 1
    36   24   34 1
    37   24   35 1
@<TRIPOS>MOLECULE
ZINC00600748
   36    38     0     0     0
SMALL
USER_CHARGES

@<TRIPOS>ATOM
      1 C1          0.2502    1.4460   -0.4043 C.ar      1 <0>        -0.1113
      2 C2          1.4669    2.0589   -0.5079 C.ar      1 <0>        -0.0735
      3 C3          2.6379    1.2975   -0.4512 C.ar      1 <0>        -0.0765
      4 C4          4.0652    1.6198   -0.5268 C.2       1 <0>        -0.1256
      5 C5          4.7363    0.4622   -0.4108 C.2       1 <0>         0.0791
      6 N1          3.8541   -0.5749   -0.2670 N.pl3     1 <0>        -0.5841
      7 H1          4.1015   -1.5073   -0.1654 H         1 <0>         0.4226
      8 C6          2.5619   -0.0957   -0.2878 C.ar      1 <0>         0.0904
      9 C7          1.3090   -0.7046   -0.1836 C.ar      1 <0>         0.1406
     10 C8          0.1639    0.0706   -0.2427 C.ar      1 <0>        -0.1486
     11 N2          1.2123   -2.0901   -0.0211 N.pl3     1 <0>        -1.0520
     12 S1         -0.0312   -2.9222   -0.7308 S.o2      1 <0>         2.6886
     13 O1          0.2181   -4.3017   -0.4978 O.2       1 <0>        -0.9397
     14 O2         -1.2330   -2.2852   -0.3196 O.2       1 <0>        -0.9336
     15 C9          0.1012   -2.6733   -2.4701 C.ar      1 <0>        -0.6263
     16 C10        -0.5398   -1.6032   -3.0659 C.ar      1 <0>        -0.0338
     17 C11        -0.4359   -1.4079   -4.4304 C.ar      1 <0>        -0.0391
     18 C12         0.3092   -2.2825   -5.1991 C.ar      1 <0>        -0.6257
     19 C13         0.9509   -3.3521   -4.6032 C.ar      1 <0>        -0.0368
     20 C14         0.8506   -3.5449   -3.2380 C.ar      1 <0>        -0.0396
     21 S2          0.4406   -2.0342   -6.9386 S.o2      1 <0>         2.6987
     22 O3          0.7453   -3.3001   -7.5076 O.2       1 <0>        -0.9535
     23 O4         -0.6977   -1.2780   -7.3280 O.2       1 <0>        -0.9494
     24 N3          1.7611   -1.0689   -7.1970 N.pl3     1 <0>        -1.2449
     25 Cl1         4.7577    3.1988   -0.7287 Cl        1 <0>        -0.0341
     26 H2         -0.6523    2.0378   -0.4440 H         1 <0>         0.1378
     27 H3          1.5239    3.1300   -0.6338 H         1 <0>         0.1317
     28 H4          5.8117    0.3641   -0.4283 H         1 <0>         0.1831
     29 H5         -0.8052   -0.3992   -0.1623 H         1 <0>         0.1668
     30 H6         -1.1219   -0.9200   -2.4654 H         1 <0>         0.1548
     31 H7         -0.9373   -0.5723   -4.8960 H         1 <0>         0.1569
     32 H8          1.5328   -4.0355   -5.2037 H         1 <0>         0.1552
     33 H9          1.3549   -4.3784   -2.7718 H         1 <0>         0.1524
     34 H10         2.2685   -1.1512   -8.0197 H         1 <0>         0.4250
     35 H11         2.0273   -0.4213   -6.5257 H         1 <0>         0.4186
     36 H12         1.8735   -2.5638    0.5074 H         1 <0>         0.4258
@<TRIPOS>BOND
     1    1   10 ar
     2    1    2 ar
     3    1   26 1
     4    2    3 ar
     5    2   27 1
     6    3    8 ar
     7    3    4 1
     8    4    5 2
     9    4   25 1
    10    5    6 1
    11    5   28 1
    12    6    7 1
    13    6    8 1
    14    8    9 ar
    15    9   10 ar
    16    9   11 1
    17   10   29 1
    18   11   12 1
    19   11   36 1
    20   12   13 2
    21   12   14 2
    22   12   15 1
    23   15   20 ar
    24   15   16 ar
    25   16   17 ar
    26   16   30 1
    27   17   18 ar
    28   17   31 1
    29   18   19 ar
    30   18   21 1
    31   19   20 ar
    32   19   32 1
    33   20   33 1
    34   21   22 2
    35   21   23 2
    36   21   24 1
    37   24   34 1
    38   24   35 1
