@<TRIPOS>MOLECULE
ZINC05649661
   68    71     0     0     0
SMALL
USER_CHARGES
N,N-diethyl-trimethyl-oxo-BLAHcarboxamide
@<TRIPOS>ATOM
      1 C1         -1.0937    1.9102    0.8728 C.3       1 <0>        -0.1685
      2 C2         -1.0974    1.0026    2.1045 C.3       1 <0>         0.1116
      3 N1         -2.4534    0.4984    2.3355 N.am      1 <0>        -0.6144
      4 C3         -3.3784    1.2485    3.1887 C.3       1 <0>         0.0999
      5 C4         -4.2576    2.1495    2.3192 C.3       1 <0>        -0.1766
      6 C5         -2.8499   -0.6555    1.7630 C.2       1 <0>         0.5282
      7 O1         -2.1192   -1.2275    0.9821 O.2       1 <0>        -0.5325
      8 C6         -4.1989   -1.2340    2.0925 C.3       1 <0>        -0.1153
      9 H1         -4.8693   -0.4805    2.4925 H         1 <0>         0.0938
     10 C7         -4.8174   -1.9384    0.8540 C.3       1 <0>        -0.1110
     11 C8         -5.5371   -3.2033    1.3912 C.3       1 <0>        -0.1145
     12 C9         -5.4219   -3.0797    2.9123 C.3       1 <0>        -0.0706
     13 H2         -6.2006   -2.3543    3.2308 H         1 <0>         0.0668
     14 C10        -4.0476   -2.4054    3.0972 C.3       1 <0>        -0.0385
     15 C11        -3.8425   -1.9638    4.5253 C.3       1 <0>        -0.1086
     16 C12        -4.5252   -2.9337    5.5048 C.3       1 <0>        -0.1064
     17 C13        -4.5997   -4.3284    4.9036 C.3       1 <0>        -0.0711
     18 H3         -3.6112   -4.6220    4.5464 H         1 <0>         0.0853
     19 C14        -5.5905   -4.3167    3.7323 C.3       1 <0>        -0.0741
     20 H4         -6.6092   -4.2696    4.1669 H         1 <0>         0.0685
     21 C15        -5.4833   -5.6309    2.9741 C.3       1 <0>        -0.1056
     22 C16        -5.8420   -6.7767    3.9389 C.3       1 <0>        -0.1260
     23 C17        -6.1827   -6.2182    5.3111 C.3       1 <0>         0.1568
     24 H5         -7.0470   -5.5509    5.2043 H         1 <0>         0.0680
     25 C18        -5.0284   -5.4028    5.8954 C.3       1 <0>        -0.0627
     26 C19        -5.4730   -4.8030    7.2262 C.3       1 <0>        -0.1132
     27 C20        -5.7541   -5.9219    8.2296 C.3       1 <0>        -0.1350
     28 C21        -6.4198   -7.0983    7.5848 C.2       1 <0>         0.5164
     29 O2         -6.8439   -7.9794    8.3040 O.2       1 <0>        -0.5574
     30 N2         -6.5804   -7.2451    6.2636 N.am      1 <0>        -0.6023
     31 C22        -7.1932   -8.4827    5.7815 C.3       1 <0>         0.0700
     32 C23        -3.8242   -6.3247    6.1382 C.3       1 <0>        -0.1454
     33 C24        -2.8877   -3.2762    2.6082 C.3       1 <0>        -0.1421
     34 H6         -1.4235    1.3430    0.0025 H         1 <0>         0.0593
     35 H7         -0.0848    2.2854    0.7010 H         1 <0>         0.0644
     36 H8         -1.7701    2.7490    1.0375 H         1 <0>         0.0559
     37 H9         -0.4211    0.1638    1.9398 H         1 <0>         0.0813
     38 H10        -0.7676    1.5699    2.9749 H         1 <0>         0.0746
     39 H11        -4.0078    0.5519    3.7426 H         1 <0>         0.0818
     40 H12        -2.8109    1.8612    3.8891 H         1 <0>         0.0806
     41 H13        -3.6253    2.7881    1.7023 H         1 <0>         0.0624
     42 H14        -4.8872    1.5330    1.6776 H         1 <0>         0.0575
     43 H15        -4.8866    2.7693    2.9581 H         1 <0>         0.0683
     44 H16        -5.5379   -1.2792    0.3703 H         1 <0>         0.0635
     45 H17        -4.0369   -2.2213    0.1498 H         1 <0>         0.0825
     46 H18        -5.0475   -4.1040    1.0355 H         1 <0>         0.0731
     47 H19        -6.5853   -3.1922    1.0938 H         1 <0>         0.0654
     48 H20        -2.7694   -1.9162    4.7489 H         1 <0>         0.0628
     49 H21        -4.2599   -0.9576    4.6638 H         1 <0>         0.0628
     50 H22        -3.9507   -2.9623    6.4348 H         1 <0>         0.0671
     51 H23        -5.5338   -2.5755    5.7269 H         1 <0>         0.0642
     52 H24        -4.4694   -5.7747    2.6057 H         1 <0>         0.0697
     53 H25        -6.1831   -5.6358    2.1378 H         1 <0>         0.0700
     54 H26        -5.0118   -7.4763    3.9960 H         1 <0>         0.0725
     55 H27        -6.7130   -7.2951    3.5206 H         1 <0>         0.0688
     56 H28        -4.6843   -4.1583    7.6223 H         1 <0>         0.0827
     57 H29        -6.3777   -4.2092    7.0782 H         1 <0>         0.0712
     58 H30        -4.8215   -6.2415    8.6962 H         1 <0>         0.1009
     59 H31        -6.4090   -5.5342    9.0170 H         1 <0>         0.0987
     60 H32        -7.4341   -9.1233    6.6299 H         1 <0>         0.0913
     61 H33        -8.1055   -8.2470    5.2336 H         1 <0>         0.0583
     62 H34        -6.4966   -9.0001    5.1218 H         1 <0>         0.0597
     63 H35        -2.9973   -5.7427    6.5450 H         1 <0>         0.0607
     64 H36        -4.1016   -7.1059    6.8460 H         1 <0>         0.0540
     65 H37        -3.5193   -6.7798    5.1959 H         1 <0>         0.0600
     66 H38        -1.9629   -2.7001    2.6389 H         1 <0>         0.0580
     67 H39        -2.7928   -4.1502    3.2525 H         1 <0>         0.0577
     68 H40        -3.0813   -3.5983    1.5851 H         1 <0>         0.0651
@<TRIPOS>BOND
     1    1    2 1
     2    1   34 1
     3    1   35 1
     4    1   36 1
     5    2    3 1
     6    2   37 1
     7    2   38 1
     8    3    4 1
     9    3    6 am
    10    4    5 1
    11    4   39 1
    12    4   40 1
    13    5   41 1
    14    5   42 1
    15    5   43 1
    16    6    7 2
    17    6    8 1
    18    8    9 1
    19    8   14 1
    20    8   10 1
    21   10   11 1
    22   10   44 1
    23   10   45 1
    24   11   12 1
    25   11   46 1
    26   11   47 1
    27   12   13 1
    28   12   19 1
    29   12   14 1
    30   14   15 1
    31   14   33 1
    32   15   16 1
    33   15   48 1
    34   15   49 1
    35   16   17 1
    36   16   50 1
    37   16   51 1
    38   17   18 1
    39   17   25 1
    40   17   19 1
    41   19   20 1
    42   19   21 1
    43   21   22 1
    44   21   52 1
    45   21   53 1
    46   22   23 1
    47   22   54 1
    48   22   55 1
    49   23   24 1
    50   23   30 1
    51   23   25 1
    52   25   26 1
    53   25   32 1
    54   26   27 1
    55   26   56 1
    56   26   57 1
    57   27   28 1
    58   27   58 1
    59   27   59 1
    60   28   29 2
    61   28   30 am
    62   30   31 1
    63   31   60 1
    64   31   61 1
    65   31   62 1
    66   32   63 1
    67   32   64 1
    68   32   65 1
    69   33   66 1
    70   33   67 1
    71   33   68 1
@<TRIPOS>MOLECULE
ZINC05649664
   68    71     0     0     0
SMALL
USER_CHARGES
N,N-diethyl-trimethyl-oxo-BLAHcarboxamide
@<TRIPOS>ATOM
      1 C1         -0.1675   -3.9970    2.9733 C.3       1 <0>        -0.1669
      2 C2          1.1931   -3.3170    3.1380 C.3       1 <0>         0.1089
      3 N1          1.4903   -2.5236    1.9428 N.am      1 <0>        -0.6151
      4 C3          2.2053   -3.1326    0.8184 C.3       1 <0>         0.1024
      5 C4          3.7039   -2.8581    0.9582 C.3       1 <0>        -0.1844
      6 C5          1.1060   -1.2334    1.8777 C.2       1 <0>         0.5220
      7 O1          0.5866   -0.7062    2.8385 O.2       1 <0>        -0.5283
      8 C6          1.3217   -0.4460    0.6110 C.3       1 <0>        -0.1067
      9 H1          1.8562   -1.0506   -0.1217 H         1 <0>         0.0933
     10 C7         -0.0324    0.0145    0.0342 C.3       1 <0>        -0.1066
     11 C8          0.0048    1.5583    0.0068 C.3       1 <0>        -0.1218
     12 C9          1.5253    1.8924   -0.0449 C.3       1 <0>        -0.0714
     13 H2          1.7395    2.9102    0.2811 H         1 <0>         0.0870
     14 C10         2.1077    0.8367    0.9129 C.3       1 <0>        -0.0369
     15 C11         3.5987    0.6608    0.7350 C.3       1 <0>        -0.1133
     16 C12         3.9888    0.3878   -0.6963 C.3       1 <0>        -0.1185
     17 C13         3.5056    1.5575   -1.5613 C.3       1 <0>        -0.0659
     18 H3          3.9336    2.4891   -1.1910 H         1 <0>         0.0815
     19 C14         1.9812    1.6241   -1.4810 C.3       1 <0>        -0.0806
     20 H4          1.5663    0.6725   -1.8133 H         1 <0>         0.0768
     21 C15         1.4690    2.7379   -2.3966 C.3       1 <0>        -0.1121
     22 C16         1.8470    2.4202   -3.8485 C.3       1 <0>        -0.1323
     23 C17         2.6727    1.1357   -3.8719 C.3       1 <0>         0.1518
     24 H5          2.0752    0.3279   -3.4495 H         1 <0>         0.0737
     25 C18         3.9237    1.3220   -3.0123 C.3       1 <0>        -0.0643
     26 C19         4.7868    0.0639   -3.1265 C.3       1 <0>        -0.1141
     27 C20         5.3289    0.0067   -4.5788 C.3       1 <0>        -0.1379
     28 C21         4.2172    0.2423   -5.5592 C.2       1 <0>         0.5154
     29 O2          4.3984   -0.0767   -6.7152 O.2       1 <0>        -0.5559
     30 N2          3.0400    0.7822   -5.2332 N.am      1 <0>        -0.6008
     31 C22         2.0691    1.0304   -6.3018 C.3       1 <0>         0.0764
     32 C23         4.7145    2.5303   -3.5177 C.3       1 <0>        -0.1473
     33 C24         1.8251    1.2644    2.3545 C.3       1 <0>        -0.1388
     34 H6         -0.9389   -3.2386    2.8396 H         1 <0>         0.0576
     35 H7         -0.1444   -4.6496    2.1006 H         1 <0>         0.0546
     36 H8         -0.3887   -4.5873    3.8626 H         1 <0>         0.0662
     37 H9          1.9645   -4.0754    3.2717 H         1 <0>         0.0744
     38 H10         1.1700   -2.6645    4.0108 H         1 <0>         0.0837
     39 H11         2.0315   -4.2087    0.8174 H         1 <0>         0.0799
     40 H12         1.8433   -2.7052   -0.1166 H         1 <0>         0.0787
     41 H13         4.2359   -3.3112    0.1217 H         1 <0>         0.0687
     42 H14         3.8777   -1.7821    0.9593 H         1 <0>         0.0692
     43 H15         4.0659   -3.2855    1.8933 H         1 <0>         0.0590
     44 H16        -0.8466   -0.3284    0.6725 H         1 <0>         0.0677
     45 H17        -0.1599   -0.3742   -0.9761 H         1 <0>         0.0681
     46 H18        -0.5009    1.9377   -0.8811 H         1 <0>         0.0708
     47 H19        -0.4467    1.9681    0.9103 H         1 <0>         0.0700
     48 H20         4.1067    1.5679    1.0623 H         1 <0>         0.0668
     49 H21         3.9349   -0.1760    1.3473 H         1 <0>         0.0631
     50 H22         3.5082   -0.5341   -1.0239 H         1 <0>         0.0640
     51 H23         5.0708    0.2894   -0.7832 H         1 <0>         0.0738
     52 H24         0.3838    2.8026   -2.3179 H         1 <0>         0.0688
     53 H25         1.9121    3.6874   -2.0964 H         1 <0>         0.0675
     54 H26         2.4385    3.2422   -4.2517 H         1 <0>         0.0731
     55 H27         0.9479    2.2876   -4.4503 H         1 <0>         0.0705
     56 H28         5.6206    0.1256   -2.4271 H         1 <0>         0.0845
     57 H29         4.1841   -0.8165   -2.9037 H         1 <0>         0.0741
     58 H30         5.7647   -0.9763   -4.7571 H         1 <0>         0.0981
     59 H31         6.0951    0.7704   -4.7121 H         1 <0>         0.1019
     60 H32         2.2207    2.0317   -6.7051 H         1 <0>         0.0549
     61 H33         2.2055    0.2949   -7.0947 H         1 <0>         0.0794
     62 H34         1.0588    0.9493   -5.9009 H         1 <0>         0.0693
     63 H35         5.6030    2.6668   -2.9011 H         1 <0>         0.0613
     64 H36         5.0128    2.3623   -4.5526 H         1 <0>         0.0552
     65 H37         4.0912    3.4226   -3.4595 H         1 <0>         0.0627
     66 H38         2.2429    0.5277    3.0406 H         1 <0>         0.0555
     67 H39         2.2827    2.2358    2.5416 H         1 <0>         0.0426
     68 H40         0.7483    1.3344    2.5082 H         1 <0>         0.0751
@<TRIPOS>BOND
     1    1    2 1
     2    1   34 1
     3    1   35 1
     4    1   36 1
     5    2    3 1
     6    2   37 1
     7    2   38 1
     8    3    4 1
     9    3    6 am
    10    4    5 1
    11    4   39 1
    12    4   40 1
    13    5   41 1
    14    5   42 1
    15    5   43 1
    16    6    7 2
    17    6    8 1
    18    8    9 1
    19    8   14 1
    20    8   10 1
    21   10   11 1
    22   10   44 1
    23   10   45 1
    24   11   12 1
    25   11   46 1
    26   11   47 1
    27   12   13 1
    28   12   19 1
    29   12   14 1
    30   14   15 1
    31   14   33 1
    32   15   16 1
    33   15   48 1
    34   15   49 1
    35   16   17 1
    36   16   50 1
    37   16   51 1
    38   17   18 1
    39   17   25 1
    40   17   19 1
    41   19   20 1
    42   19   21 1
    43   21   22 1
    44   21   52 1
    45   21   53 1
    46   22   23 1
    47   22   54 1
    48   22   55 1
    49   23   24 1
    50   23   30 1
    51   23   25 1
    52   25   26 1
    53   25   32 1
    54   26   27 1
    55   26   56 1
    56   26   57 1
    57   27   28 1
    58   27   58 1
    59   27   59 1
    60   28   29 2
    61   28   30 am
    62   30   31 1
    63   31   60 1
    64   31   61 1
    65   31   62 1
    66   32   63 1
    67   32   64 1
    68   32   65 1
    69   33   66 1
    70   33   67 1
    71   33   68 1
@<TRIPOS>MOLECULE
ZINC03796232
   65    68     0     0     0
SMALL
USER_CHARGES
10,13-dimethyl-17-(tert-butylcarbamoyl)-2,7,8,9,11,12,14,15,16,17-decahydro-1H-cyclopenta[a]phenanthrene-3-carboxylic acid
@<TRIPOS>ATOM
      1 C1          2.2633   -0.6643    1.6689 C.3       1 <0>        -0.1505
      2 C2          1.7000   -0.4742    0.2591 C.3       1 <0>        -0.0495
      3 C3          1.8910   -1.7447   -0.5492 C.3       1 <0>        -0.1022
      4 C4          3.3867   -2.0873   -0.4975 C.3       1 <0>        -0.1226
      5 C5          4.2674   -0.9510   -1.0103 C.3       1 <0>        -0.0644
      6 H1          4.1197   -0.8343   -2.0840 H         1 <0>         0.0691
      7 C6          3.9562    0.3805   -0.3020 C.3       1 <0>        -0.0739
      8 H2          4.2152    0.3203    0.7550 H         1 <0>         0.0858
      9 C7          2.4723    0.6560   -0.4710 C.3       1 <0>        -0.0784
     10 H3          2.2019    0.6790   -1.5267 H         1 <0>         0.0758
     11 C8          1.9432    1.9063    0.2403 C.3       1 <0>        -0.1144
     12 C9          0.4256    1.6091    0.3827 C.3       1 <0>        -0.1095
     13 C10         0.2760    0.0681    0.3373 C.3       1 <0>        -0.1022
     14 H4         -0.2920   -0.2303   -0.5439 H         1 <0>         0.0866
     15 C11        -0.4034   -0.4275    1.5878 C.2       1 <0>         0.5309
     16 O1         -0.2923    0.1921    2.6245 O.2       1 <0>        -0.5327
     17 N1         -1.1345   -1.5592    1.5541 N.am      1 <0>        -0.7268
     18 C12        -1.7950   -2.0410    2.7698 C.3       1 <0>         0.1687
     19 C13        -2.7779   -0.9808    3.2706 C.3       1 <0>        -0.1629
     20 C14        -2.5530   -3.3335    2.4603 C.3       1 <0>        -0.1559
     21 C15        -0.7439   -2.3119    3.8481 C.3       1 <0>        -0.1641
     22 C16         4.7511    1.4982   -0.9863 C.3       1 <0>        -0.0740
     23 C17         6.1883    1.1067   -1.1433 C.2       1 <0>        -0.1747
     24 C18         6.6292   -0.1355   -1.0445 C.2       1 <0>        -0.0558
     25 C19         5.7343   -1.3023   -0.7455 C.3       1 <0>        -0.0145
     26 C20         6.1175   -2.5265   -1.5635 C.3       1 <0>        -0.1030
     27 C21         7.1513   -2.2158   -2.6352 C.3       1 <0>        -0.0777
     28 C22         8.3354   -1.4860   -2.0499 C.2       1 <0>        -0.1199
     29 C23         8.0684   -0.4106   -1.2364 C.2       1 <0>        -0.1252
     30 C24         9.6659   -1.8960   -2.3184 C.2       1 <0>         0.4800
     31 O2         10.5999   -1.2872   -1.8318 O.co2     1 <0>        -0.6391
     32 C25         5.8737   -1.6500    0.7380 C.3       1 <0>        -0.1425
     33 H5          1.7094   -1.4530    2.1782 H         1 <0>         0.0485
     34 H6          3.3154   -0.9421    1.6054 H         1 <0>         0.0703
     35 H7          2.1663    0.2666    2.2275 H         1 <0>         0.0646
     36 H8          1.3020   -2.5532   -0.1163 H         1 <0>         0.0600
     37 H9          1.5902   -1.5765   -1.5833 H         1 <0>         0.0637
     38 H10         3.5676   -2.9758   -1.1026 H         1 <0>         0.0643
     39 H11         3.6546   -2.3035    0.5367 H         1 <0>         0.0730
     40 H12         2.1066    2.7951   -0.3693 H         1 <0>         0.0663
     41 H13         2.4079    2.0185    1.2199 H         1 <0>         0.0704
     42 H14        -0.1235    2.0627   -0.4424 H         1 <0>         0.0643
     43 H15         0.0568    1.9929    1.3339 H         1 <0>         0.0800
     44 H16        -1.2234   -2.0547    0.7250 H         1 <0>         0.3975
     45 H17        -3.5267   -0.7878    2.5024 H         1 <0>         0.0517
     46 H18        -3.2693   -1.3393    4.1751 H         1 <0>         0.0603
     47 H19        -2.2379   -0.0600    3.4910 H         1 <0>         0.0785
     48 H20        -1.8528   -4.0888    2.1036 H         1 <0>         0.0620
     49 H21        -3.0444   -3.6920    3.3648 H         1 <0>         0.0717
     50 H22        -3.3018   -3.1405    1.6921 H         1 <0>         0.0606
     51 H23        -0.2039   -1.3911    4.0686 H         1 <0>         0.0795
     52 H24        -1.2354   -2.6704    4.7526 H         1 <0>         0.0598
     53 H25        -0.0437   -3.0672    3.4914 H         1 <0>         0.0537
     54 H26         4.3227    1.6932   -1.9694 H         1 <0>         0.0669
     55 H27         4.6902    2.4035   -0.3823 H         1 <0>         0.0664
     56 H28         6.9072    1.8858   -1.3500 H         1 <0>         0.1024
     57 H29         6.5222   -3.2850   -0.8934 H         1 <0>         0.0614
     58 H30         5.2229   -2.9230   -2.0438 H         1 <0>         0.0636
     59 H31         7.4922   -3.1485   -3.0847 H         1 <0>         0.0828
     60 H32         6.6931   -1.5950   -3.4051 H         1 <0>         0.0590
     61 H33         8.8414    0.1940   -0.7853 H         1 <0>         0.1296
     62 H34         5.4772   -0.8334    1.3414 H         1 <0>         0.0547
     63 H35         5.3171   -2.5626    0.9511 H         1 <0>         0.0579
     64 H36         6.9260   -1.8017    0.9783 H         1 <0>         0.0576
     65 O3          9.8961   -2.9615   -3.1136 O.co2     1 <0>        -0.7636
@<TRIPOS>BOND
     1    1    2 1
     2    1   33 1
     3    1   34 1
     4    1   35 1
     5    2    9 1
     6    2   13 1
     7    2    3 1
     8    3    4 1
     9    3   36 1
    10    3   37 1
    11    4    5 1
    12    4   38 1
    13    4   39 1
    14    5    6 1
    15    5   25 1
    16    5    7 1
    17    7    8 1
    18    7    9 1
    19    7   22 1
    20    9   10 1
    21    9   11 1
    22   11   12 1
    23   11   40 1
    24   11   41 1
    25   12   13 1
    26   12   42 1
    27   12   43 1
    28   13   14 1
    29   13   15 1
    30   15   16 2
    31   15   17 am
    32   17   18 1
    33   17   44 1
    34   18   19 1
    35   18   20 1
    36   18   21 1
    37   19   45 1
    38   19   46 1
    39   19   47 1
    40   20   48 1
    41   20   49 1
    42   20   50 1
    43   21   51 1
    44   21   52 1
    45   21   53 1
    46   22   23 1
    47   22   54 1
    48   22   55 1
    49   23   24 2
    50   23   56 1
    51   24   29 1
    52   24   25 1
    53   25   26 1
    54   25   32 1
    55   26   27 1
    56   26   57 1
    57   26   58 1
    58   27   28 1
    59   27   59 1
    60   27   60 1
    61   28   29 2
    62   28   30 1
    63   29   61 1
    64   30   31 2
    65   30   65 1
    66   32   62 1
    67   32   63 1
    68   32   64 1
@<TRIPOS>MOLECULE
ZINC29345122
   65    68     0     0     0
SMALL
USER_CHARGES
(8R,9R,10R,13S,14S,17S)-17-(tert-butylcarbamoyl)-10,13-dimethyl-2,7,8,9,11,12,14,15,16,17-decahydro-1H-cyclopenta[a]phenanthrene-3-carboxylic acid
@<TRIPOS>ATOM
      1 C1         -3.5950    3.5714    1.2146 C.3       1 <0>        -0.1594
      2 C2         -2.9114    2.2073    1.0977 C.3       1 <0>        -0.0137
      3 C3         -1.6371    2.3085    0.3019 C.3       1 <0>        -0.0968
      4 C4         -1.8846    2.0459   -1.1915 C.3       1 <0>        -0.1111
      5 C5         -3.3241    2.3509   -1.5692 C.3       1 <0>        -0.0670
      6 H1         -3.5171    3.3799   -1.2316 H         1 <0>         0.0757
      7 C6         -4.2711    1.3729   -0.8718 C.3       1 <0>        -0.0753
      8 H2         -4.2227    0.3604   -1.2991 H         1 <0>         0.0616
      9 C7         -3.8531    1.1224    0.5375 C.3       1 <0>        -0.0872
     10 H3         -3.4106    0.1303    0.3641 H         1 <0>         0.0707
     11 C8         -4.9500    1.0722    1.6112 C.3       1 <0>        -0.1152
     12 C9         -4.1494    1.2100    2.9363 C.3       1 <0>        -0.1139
     13 C10        -2.7271    1.6827    2.5405 C.3       1 <0>        -0.1064
     14 H4         -1.9589    0.9019    2.6419 H         1 <0>         0.0994
     15 C11        -2.2707    2.7999    3.4357 C.2       1 <0>         0.5216
     16 O1         -1.6376    3.7261    2.9750 O.2       1 <0>        -0.5310
     17 N1         -2.5649    2.7727    4.7507 N.am      1 <0>        -0.7384
     18 C12        -2.1200    3.8620    5.6235 C.3       1 <0>         0.1723
     19 C13        -2.7205    5.1826    5.1375 C.3       1 <0>        -0.1649
     20 C14        -2.5817    3.5884    7.0563 C.3       1 <0>        -0.1559
     21 C15        -0.5931    3.9525    5.5882 C.3       1 <0>        -0.1652
     22 C16        -5.6961    1.9016   -1.0535 C.3       1 <0>        -0.0746
     23 C17        -5.9635    1.7930   -2.5413 C.2       1 <0>        -0.1756
     24 C18        -4.9873    1.9805   -3.4212 C.2       1 <0>        -0.0561
     25 C19        -3.5789    2.3664   -3.0602 C.3       1 <0>        -0.0119
     26 C20        -2.6063    1.4929   -3.8406 C.3       1 <0>        -0.1012
     27 C21        -2.8179    1.6677   -5.3424 C.3       1 <0>        -0.0714
     28 C22        -4.2641    1.6615   -5.7280 C.2       1 <0>        -0.1220
     29 C23        -5.2775    1.7925   -4.8527 C.2       1 <0>        -0.1228
     30 C24        -4.5866    1.5065   -7.1007 C.2       1 <0>         0.4725
     31 O2         -5.7503    1.4963   -7.4546 O.co2     1 <0>        -0.6410
     32 O3         -3.6024    1.3704   -8.0137 O.co2     1 <0>        -0.7656
     33 C25        -3.3828    3.8186   -3.5141 C.3       1 <0>        -0.1456
     34 H5         -2.8818    4.3056    1.6176 H         1 <0>         0.0834
     35 H6         -4.4598    3.4915    1.8897 H         1 <0>         0.0474
     36 H7         -3.9347    3.8976    0.2205 H         1 <0>         0.0606
     37 H8         -1.2148    3.3181    0.4128 H         1 <0>         0.0699
     38 H9         -0.9143    1.5661    0.6711 H         1 <0>         0.0554
     39 H10        -1.2204    2.6856   -1.7912 H         1 <0>         0.0639
     40 H11        -1.6780    0.9893   -1.4172 H         1 <0>         0.0591
     41 H12        -5.6545    1.9024    1.4548 H         1 <0>         0.0738
     42 H13        -5.4889    0.1158    1.5405 H         1 <0>         0.0655
     43 H14        -4.6425    1.9466    3.5877 H         1 <0>         0.0686
     44 H15        -4.1134    0.2359    3.4460 H         1 <0>         0.0689
     45 H16        -3.1390    1.9326    5.1686 H         1 <0>         0.4153
     46 H17        -2.3864    6.0005    5.7929 H         1 <0>         0.0585
     47 H18        -3.8183    5.1175    5.1628 H         1 <0>         0.0521
     48 H19        -2.3885    5.3792    4.1074 H         1 <0>         0.0801
     49 H20        -2.2477    4.4063    7.7116 H         1 <0>         0.0704
     50 H21        -2.1499    2.6389    7.4057 H         1 <0>         0.0605
     51 H22        -3.6795    3.5233    7.0816 H         1 <0>         0.0612
     52 H23        -0.2590    4.7704    6.2435 H         1 <0>         0.0589
     53 H24        -0.2612    4.1491    4.5581 H         1 <0>         0.0798
     54 H25        -0.1614    3.0030    5.9376 H         1 <0>         0.0511
     55 H26        -6.3936    1.2845   -0.4681 H         1 <0>         0.0670
     56 H27        -5.7477    2.9438   -0.7053 H         1 <0>         0.0692
     57 H28        -6.9797    1.5560   -2.8894 H         1 <0>         0.1094
     58 H29        -1.5742    1.7786   -3.5894 H         1 <0>         0.0661
     59 H30        -2.7689    0.4374   -3.5772 H         1 <0>         0.0570
     60 H31        -2.3882    2.6279   -5.6639 H         1 <0>         0.0704
     61 H32        -2.3228    0.8460   -5.8806 H         1 <0>         0.0789
     62 H33        -6.3183    1.7590   -5.2072 H         1 <0>         0.1261
     63 H34        -3.5565    3.8906   -4.5979 H         1 <0>         0.0644
     64 H35        -2.3556    4.1387   -3.2853 H         1 <0>         0.0532
     65 H36        -4.0957    4.4677   -2.9845 H         1 <0>         0.0495
@<TRIPOS>BOND
     1    1    2 1
     2    1   34 1
     3    1   35 1
     4    1   36 1
     5    2    9 1
     6    2   13 1
     7    2    3 1
     8    3    4 1
     9    3   37 1
    10    3   38 1
    11    4    5 1
    12    4   39 1
    13    4   40 1
    14    5    6 1
    15    5   25 1
    16    5    7 1
    17    7    8 1
    18    7    9 1
    19    7   22 1
    20    9   10 1
    21    9   11 1
    22   11   12 1
    23   11   41 1
    24   11   42 1
    25   12   13 1
    26   12   43 1
    27   12   44 1
    28   13   14 1
    29   13   15 1
    30   15   16 2
    31   15   17 am
    32   17   18 1
    33   17   45 1
    34   18   19 1
    35   18   20 1
    36   18   21 1
    37   19   46 1
    38   19   47 1
    39   19   48 1
    40   20   49 1
    41   20   50 1
    42   20   51 1
    43   21   52 1
    44   21   53 1
    45   21   54 1
    46   22   23 1
    47   22   55 1
    48   22   56 1
    49   23   24 2
    50   23   57 1
    51   24   29 1
    52   24   25 1
    53   25   26 1
    54   25   33 1
    55   26   27 1
    56   26   58 1
    57   26   59 1
    58   27   28 1
    59   27   60 1
    60   27   61 1
    61   28   29 2
    62   28   30 1
    63   29   62 1
    64   30   31 2
    65   30   32 1
    66   33   63 1
    67   33   64 1
    68   33   65 1
@<TRIPOS>MOLECULE
ZINC34307313
   65    68     0     0     0
SMALL
USER_CHARGES

@<TRIPOS>ATOM
      1 C1          1.6884    1.6783   -0.2628 C.3       1 <0>        -0.1624
      2 C2          0.9544    0.3867    0.0862 C.3       1 <0>        -0.0290
      3 C3         -0.3536    0.6818    0.7795 C.3       1 <0>        -0.1036
      4 C4         -0.0624    1.2903    2.1657 C.3       1 <0>        -0.1054
      5 C5          0.7659    0.3472    3.0201 C.3       1 <0>        -0.0617
      6 H1          0.1760   -0.5836    3.1133 H         1 <0>         0.0574
      7 C6          2.0735   -0.0559    2.3269 C.3       1 <0>        -0.0607
      8 H2          2.5096   -0.8864    2.9236 H         1 <0>         0.0655
      9 C7          1.7858   -0.5752    0.9578 C.3       1 <0>        -0.0747
     10 H3          1.1957   -1.5169    1.0732 H         1 <0>         0.0638
     11 C8          2.9570   -0.9079    0.0265 C.3       1 <0>        -0.1136
     12 C9          2.2468   -1.0977   -1.3450 C.3       1 <0>        -0.1232
     13 C10         0.8484   -0.4403   -1.2105 C.3       1 <0>        -0.1118
     14 H4          0.0745   -1.1922   -1.1072 H         1 <0>         0.1025
     15 C11         0.5783    0.4694   -2.3771 C.2       1 <0>         0.5308
     16 O1         -0.1418    1.4354   -2.2388 O.2       1 <0>        -0.5276
     17 N1          1.1364    0.2112   -3.5764 N.am      1 <0>        -0.7279
     18 C12         0.8733    1.0974   -4.7129 C.3       1 <0>         0.1678
     19 C13         1.3528    2.5114   -4.3787 C.3       1 <0>        -0.1636
     20 C14         1.6211    0.5831   -5.9446 C.3       1 <0>        -0.1558
     21 C15        -0.6289    1.1234   -5.0022 C.3       1 <0>        -0.1635
     22 C16         3.0551    1.1105    2.3928 C.3       1 <0>        -0.0753
     23 C17         3.3893    1.2938    3.8584 C.2       1 <0>        -0.1829
     24 C18         2.4315    1.1436    4.7675 C.2       1 <0>        -0.0584
     25 C19         1.0026    0.8267    4.4323 C.3       1 <0>        -0.0104
     26 C20         0.4886   -0.2072    5.4397 C.3       1 <0>        -0.1017
     27 C21         0.5790    0.3295    6.8634 C.3       1 <0>        -0.0694
     28 C22         1.9071    0.9611    7.1470 C.2       1 <0>        -0.1432
     29 C23         2.7781    1.3250    6.1856 C.2       1 <0>        -0.1213
     30 C24         2.2644    1.1885    8.4954 C.2       1 <0>         0.5035
     31 O2          3.3431    1.7033    8.7649 O.co2     1 <0>        -0.6980
     32 O3          1.4955    0.8708    9.3949 O.co2     1 <0>        -0.6996
     33 C25         0.2087    2.1123    4.6613 C.3       1 <0>        -0.1419
     34 H5          2.6493    1.4385   -0.7179 H         1 <0>         0.0487
     35 H6          1.0889    2.2588   -0.9641 H         1 <0>         0.0778
     36 H7          1.8511    2.2603    0.6444 H         1 <0>         0.0649
     37 H8         -0.9383    1.3941    0.1922 H         1 <0>         0.0722
     38 H9         -0.9292   -0.2382    0.9036 H         1 <0>         0.0553
     39 H10         0.4435    2.2412    2.0393 H         1 <0>         0.0663
     40 H11        -1.0409    1.4552    2.6316 H         1 <0>         0.0613
     41 H12         3.6855   -0.1051   -0.0130 H         1 <0>         0.0734
     42 H13         3.4343   -1.8410    0.3355 H         1 <0>         0.0649
     43 H14         2.8173   -0.6083   -2.1324 H         1 <0>         0.0673
     44 H15         2.1387   -2.1599   -1.5630 H         1 <0>         0.0692
     45 H16         1.7124   -0.5614   -3.6871 H         1 <0>         0.3978
     46 H17         2.4230    2.4929   -4.1726 H         1 <0>         0.0531
     47 H18         1.1570    3.1708   -5.2243 H         1 <0>         0.0599
     48 H19         0.8201    2.8779   -3.5012 H         1 <0>         0.0800
     49 H20         1.2794   -0.4243   -6.1826 H         1 <0>         0.0604
     50 H21         1.4253    1.2424   -6.7902 H         1 <0>         0.0720
     51 H22         2.6912    0.5645   -5.7385 H         1 <0>         0.0612
     52 H23        -1.1616    1.4899   -4.1247 H         1 <0>         0.0794
     53 H24        -0.8247    1.7828   -5.8478 H         1 <0>         0.0603
     54 H25        -0.9705    0.1161   -5.2403 H         1 <0>         0.0517
     55 H26         3.9610    0.8869    1.8358 H         1 <0>         0.0649
     56 H27         2.6000    2.0342    2.0409 H         1 <0>         0.0766
     57 H28         4.3916    1.5437    4.1552 H         1 <0>         0.1092
     58 H29        -0.5507   -0.4493    5.2044 H         1 <0>         0.0597
     59 H30         1.0889   -1.1166    5.3526 H         1 <0>         0.0557
     60 H31        -0.2179    1.0429    7.0550 H         1 <0>         0.0704
     61 H32         0.4480   -0.5102    7.5584 H         1 <0>         0.0715
     62 H33         3.7334    1.7560    6.4569 H         1 <0>         0.1234
     63 H34        -0.8531    1.9148    4.5135 H         1 <0>         0.0533
     64 H35         0.3744    2.4652    5.6792 H         1 <0>         0.0621
     65 H36         0.5385    2.8738    3.9546 H         1 <0>         0.0518
@<TRIPOS>BOND
     1    1    2 1
     2    1   34 1
     3    1   35 1
     4    1   36 1
     5    2    9 1
     6    2   13 1
     7    2    3 1
     8    3    4 1
     9    3   37 1
    10    3   38 1
    11    4    5 1
    12    4   39 1
    13    4   40 1
    14    5    6 1
    15    5   25 1
    16    5    7 1
    17    7    8 1
    18    7    9 1
    19    7   22 1
    20    9   10 1
    21    9   11 1
    22   11   12 1
    23   11   41 1
    24   11   42 1
    25   12   13 1
    26   12   43 1
    27   12   44 1
    28   13   14 1
    29   13   15 1
    30   15   16 2
    31   15   17 am
    32   17   18 1
    33   17   45 1
    34   18   19 1
    35   18   20 1
    36   18   21 1
    37   19   46 1
    38   19   47 1
    39   19   48 1
    40   20   49 1
    41   20   50 1
    42   20   51 1
    43   21   52 1
    44   21   53 1
    45   21   54 1
    46   22   23 1
    47   22   55 1
    48   22   56 1
    49   23   24 2
    50   23   57 1
    51   24   29 1
    52   24   25 1
    53   25   26 1
    54   25   33 1
    55   26   27 1
    56   26   58 1
    57   26   59 1
    58   27   28 1
    59   27   60 1
    60   27   61 1
    61   28   29 2
    62   28   30 1
    63   29   62 1
    64   30   31 2
    65   30   32 1
    66   33   63 1
    67   33   64 1
    68   33   65 1
