@<TRIPOS>MOLECULE
ZINC03782599
   63    66     0     0     0
SMALL
USER_CHARGES

@<TRIPOS>ATOM
      1 C1          0.1611    1.5762    0.0269 C.3       1 <0>        -0.1519
      2 C2          0.0931    0.0477    0.0325 C.3       1 <0>        -0.0508
      3 C3         -1.3313   -0.4004    0.2938 C.3       1 <0>        -0.1037
      4 C4         -1.7878    0.2661    1.6027 C.3       1 <0>        -0.1184
      5 C5         -0.8623   -0.0918    2.7601 C.3       1 <0>        -0.0624
      6 H1         -0.9324   -1.1624    2.9522 H         1 <0>         0.0754
      7 C6          0.6001    0.2648    2.4436 C.3       1 <0>        -0.0813
      8 H2          0.6869    1.3376    2.2713 H         1 <0>         0.0894
      9 C7          0.9758   -0.5123    1.1810 C.3       1 <0>        -0.0784
     10 H3          0.7937   -1.5782    1.3175 H         1 <0>         0.0796
     11 C8          2.3865   -0.2593    0.6380 C.3       1 <0>        -0.1139
     12 C9          2.2587   -0.6506   -0.8596 C.3       1 <0>        -0.1121
     13 C10         0.7603   -0.5021   -1.2236 C.3       1 <0>        -0.1024
     14 H4          0.3366   -1.4724   -1.4826 H         1 <0>         0.0888
     15 C11         0.5943    0.4637   -2.3685 C.2       1 <0>         0.5290
     16 O1          1.4311    1.3190   -2.5666 O.2       1 <0>        -0.5313
     17 N1         -0.4841    0.3771   -3.1722 N.am      1 <0>        -0.7256
     18 C12        -0.6455    1.3160   -4.2852 C.3       1 <0>         0.1688
     19 C13         0.5406    1.1812   -5.2422 C.3       1 <0>        -0.1642
     20 C14        -1.9426    1.0020   -5.0333 C.3       1 <0>        -0.1566
     21 C15        -0.7029    2.7453   -3.7424 C.3       1 <0>        -0.1634
     22 C16         1.4910   -0.1409    3.6173 C.3       1 <0>        -0.1099
     23 C17         1.0452    0.5929    4.8861 C.3       1 <0>        -0.1296
     24 C18        -0.4081    0.2320    5.1868 C.3       1 <0>         0.1496
     25 H5         -0.4905   -0.8471    5.3165 H         1 <0>         0.0775
     26 C19        -1.2751    0.6663    4.0195 C.3       1 <0>        -0.0478
     27 C20        -2.7176    0.4002    4.3570 C.2       1 <0>        -0.0886
     28 C21        -3.1281    0.5935    5.6129 C.2       1 <0>        -0.1980
     29 C22        -2.1595    1.0710    6.6166 C.2       1 <0>         0.5485
     30 O2         -2.5462    1.6436    7.6175 O.2       1 <0>        -0.5498
     31 N2         -0.8742    0.8996    6.4004 N.am      1 <0>        -0.7086
     32 C23        -1.0875    2.1676    3.7915 C.3       1 <0>        -0.1472
     33 H6          1.1969    1.8934   -0.0944 H         1 <0>         0.0663
     34 H7         -0.4365    1.9634   -0.7984 H         1 <0>         0.0523
     35 H8         -0.2286    1.9606    0.9694 H         1 <0>         0.0663
     36 H9         -1.9757   -0.0854   -0.5270 H         1 <0>         0.0638
     37 H10        -1.3657   -1.4848    0.3982 H         1 <0>         0.0675
     38 H11        -1.7910    1.3480    1.4699 H         1 <0>         0.0726
     39 H12        -2.7988   -0.0662    1.8385 H         1 <0>         0.0652
     40 H13         2.6562    0.7918    0.7403 H         1 <0>         0.0712
     41 H14         3.1136   -0.8959    1.1422 H         1 <0>         0.0674
     42 H15         2.8610    0.0187   -1.4739 H         1 <0>         0.0837
     43 H16         2.5786   -1.6823   -1.0054 H         1 <0>         0.0665
     44 H17        -1.1533   -0.3069   -3.0138 H         1 <0>         0.3972
     45 H18         0.5816    0.1629   -5.6289 H         1 <0>         0.0528
     46 H19         0.4206    1.8798   -6.0703 H         1 <0>         0.0621
     47 H20         1.4648    1.4049   -4.7093 H         1 <0>         0.0783
     48 H21        -2.7876    1.0981   -4.3515 H         1 <0>         0.0613
     49 H22        -2.0627    1.7006   -5.8613 H         1 <0>         0.0734
     50 H23        -1.9017   -0.0162   -5.4200 H         1 <0>         0.0615
     51 H24         0.2212    2.9690   -3.2094 H         1 <0>         0.0788
     52 H25        -0.8230    3.4439   -4.5704 H         1 <0>         0.0617
     53 H26        -1.5479    2.8413   -3.0606 H         1 <0>         0.0524
     54 H27         1.4146   -1.2167    3.7752 H         1 <0>         0.0668
     55 H28         2.5257    0.1186    3.3934 H         1 <0>         0.0738
     56 H29         1.6761    0.2915    5.7222 H         1 <0>         0.0737
     57 H30         1.1295    1.6689    4.7336 H         1 <0>         0.0780
     58 H31        -3.4069    0.0593    3.5986 H         1 <0>         0.1340
     59 H32        -4.1547    0.4031    5.8893 H         1 <0>         0.1433
     60 H33        -0.2383    1.2035    7.0669 H         1 <0>         0.4036
     61 H34        -1.7067    2.4880    2.9536 H         1 <0>         0.0645
     62 H35        -1.3817    2.7110    4.6894 H         1 <0>         0.0569
     63 H36        -0.0405    2.3732    3.5690 H         1 <0>         0.0722
@<TRIPOS>BOND
     1    1    2 1
     2    1   33 1
     3    1   34 1
     4    1   35 1
     5    2    9 1
     6    2   13 1
     7    2    3 1
     8    3    4 1
     9    3   36 1
    10    3   37 1
    11    4    5 1
    12    4   38 1
    13    4   39 1
    14    5    6 1
    15    5   26 1
    16    5    7 1
    17    7    8 1
    18    7    9 1
    19    7   22 1
    20    9   10 1
    21    9   11 1
    22   11   12 1
    23   11   40 1
    24   11   41 1
    25   12   13 1
    26   12   42 1
    27   12   43 1
    28   13   14 1
    29   13   15 1
    30   15   16 2
    31   15   17 am
    32   17   18 1
    33   17   44 1
    34   18   19 1
    35   18   20 1
    36   18   21 1
    37   19   45 1
    38   19   46 1
    39   19   47 1
    40   20   48 1
    41   20   49 1
    42   20   50 1
    43   21   51 1
    44   21   52 1
    45   21   53 1
    46   22   23 1
    47   22   54 1
    48   22   55 1
    49   23   24 1
    50   23   56 1
    51   23   57 1
    52   24   25 1
    53   24   31 1
    54   24   26 1
    55   26   27 1
    56   26   32 1
    57   27   28 2
    58   27   58 1
    59   28   29 1
    60   28   59 1
    61   29   30 2
    62   29   31 am
    63   31   60 1
    64   32   61 1
    65   32   62 1
    66   32   63 1
