@<TRIPOS>MOLECULE
ZINC52956332
   66    69     0     0     0
SMALL
USER_CHARGES

@<TRIPOS>ATOM
      1 C1         -0.2570   -0.0396   -0.2249 C.3       1 <0>        -0.1481
      2 C2         -0.4777   -1.5512   -0.1410 C.3       1 <0>         0.0719
      3 C3          0.2510   -2.1058    1.0847 C.3       1 <0>        -0.1743
      4 O1         -1.8760   -1.8229   -0.0272 O.3       1 <0>        -0.2968
      5 C4         -2.3308   -2.9699   -0.5993 C.ar      1 <0>         0.1238
      6 C5         -1.4369   -3.8709   -1.1538 C.ar      1 <0>        -0.2108
      7 C6         -1.9007   -5.0365   -1.7356 C.ar      1 <0>        -0.0833
      8 C7         -3.2562   -5.3067   -1.7656 C.ar      1 <0>        -0.1528
      9 C8         -4.1549   -4.4130   -1.2140 C.ar      1 <0>        -0.0865
     10 C9         -3.6965   -3.2442   -0.6239 C.ar      1 <0>         0.1375
     11 N1         -4.6040   -2.3403   -0.0596 N.pl3     1 <0>        -0.6674
     12 C10        -5.1972   -1.2631   -0.8665 C.3       1 <0>         0.1547
     13 C11        -5.0050    0.0635   -0.1240 C.3       1 <0>         0.0426
     14 N2         -5.5408   -0.0593    1.2382 N.3       1 <0>        -0.5278
     15 C12        -4.8056   -1.0693    2.0110 C.3       1 <0>         0.0391
     16 C13        -4.9943   -2.4462    1.3545 C.3       1 <0>         0.1554
     17 C14        -5.5326    1.2387    1.9262 C.3       1 <0>         0.0947
     18 C15        -6.3064    1.1292    3.2147 C.ar      1 <0>        -0.0813
     19 C16        -7.6662    1.3854    3.2273 C.ar      1 <0>        -0.0744
     20 C17        -8.3840    1.2867    4.4058 C.ar      1 <0>        -0.1211
     21 C18        -7.7471    0.9321    5.5774 C.ar      1 <0>        -0.0675
     22 C19        -6.3760    0.6723    5.5716 C.ar      1 <0>        -0.1273
     23 C20        -5.6587    0.7682    4.3778 C.ar      1 <0>        -0.0879
     24 C21        -5.6870    0.2923    6.8233 C.2       1 <0>         0.5617
     25 O2         -6.1780   -0.5424    7.5580 O.2       1 <0>        -0.5326
     26 N3         -4.5146    0.8713    7.1497 N.am      1 <0>        -0.6059
     27 C22        -3.8640    1.8148    6.2303 C.3       1 <0>         0.0916
     28 C23        -3.5771    3.1180    6.9827 C.3       1 <0>        -0.1360
     29 C24        -2.7654    2.8071    8.2423 C.3       1 <0>        -0.1214
     30 C25        -3.5758    1.8882    9.1594 C.3       1 <0>        -0.1356
     31 C26        -3.8657    0.5757    8.4343 C.3       1 <0>         0.1105
     32 H1          0.8096    0.1676   -0.3117 H         1 <0>         0.0754
     33 H2         -0.7761    0.3555   -1.0981 H         1 <0>         0.0627
     34 H3         -0.6472    0.4351    0.6754 H         1 <0>         0.0636
     35 H4         -0.0875   -2.0259   -1.0413 H         1 <0>         0.0742
     36 H5         -0.1393   -1.6311    1.9850 H         1 <0>         0.0650
     37 H6          0.0937   -3.1828    1.1445 H         1 <0>         0.0608
     38 H7          1.3176   -1.8986    0.9979 H         1 <0>         0.0710
     39 H8         -0.3773   -3.6629   -1.1321 H         1 <0>         0.1279
     40 H9         -1.2021   -5.7375   -2.1681 H         1 <0>         0.1235
     41 H10        -3.6139   -6.2182   -2.2214 H         1 <0>         0.1239
     42 H11        -5.2133   -4.6264   -1.2391 H         1 <0>         0.1282
     43 H12        -4.7006   -1.2157   -1.8356 H         1 <0>         0.0685
     44 H13        -6.2613   -1.4538   -1.0061 H         1 <0>         0.0563
     45 H14        -3.9427    0.3033   -0.0768 H         1 <0>         0.0406
     46 H15        -5.5341    0.8563   -0.6529 H         1 <0>         0.0772
     47 H16        -3.7461   -0.8138    2.0285 H         1 <0>         0.0394
     48 H17        -5.1901   -1.0982    3.0305 H         1 <0>         0.0783
     49 H18        -6.0393   -2.7483    1.4243 H         1 <0>         0.0563
     50 H19        -4.3636   -3.1812    1.8544 H         1 <0>         0.0674
     51 H20        -4.5044    1.5283    2.1433 H         1 <0>         0.0422
     52 H21        -5.9950    1.9913    1.2875 H         1 <0>         0.0858
     53 H22        -8.1693    1.6640    2.3132 H         1 <0>         0.1285
     54 H23        -9.4450    1.4880    4.4089 H         1 <0>         0.1309
     55 H24        -8.3085    0.8561    6.4969 H         1 <0>         0.1292
     56 H25        -4.5982    0.5642    4.3658 H         1 <0>         0.1264
     57 H26        -2.9283    1.3874    5.8698 H         1 <0>         0.0700
     58 H27        -4.5244    2.0175    5.3871 H         1 <0>         0.0990
     59 H28        -3.0089    3.7912    6.3407 H         1 <0>         0.0765
     60 H29        -4.5182    3.5906    7.2637 H         1 <0>         0.0681
     61 H30        -1.8355    2.3122    7.9621 H         1 <0>         0.0648
     62 H31        -2.5388    3.7354    8.7666 H         1 <0>         0.0672
     63 H32        -3.0066    1.6860   10.0668 H         1 <0>         0.0777
     64 H33        -4.5169    2.3723    9.4200 H         1 <0>         0.0669
     65 H34        -4.5272   -0.0389    9.0449 H         1 <0>         0.0936
     66 H35        -2.9302    0.0450    8.2576 H         1 <0>         0.0683
@<TRIPOS>BOND
     1    1    2 1
     2    1   32 1
     3    1   33 1
     4    1   34 1
     5    2    3 1
     6    2    4 1
     7    2   35 1
     8    3   36 1
     9    3   37 1
    10    3   38 1
    11    4    5 1
    12    5   10 ar
    13    5    6 ar
    14    6    7 ar
    15    6   39 1
    16    7    8 ar
    17    7   40 1
    18    8    9 ar
    19    8   41 1
    20    9   10 ar
    21    9   42 1
    22   10   11 1
    23   11   16 1
    24   11   12 1
    25   12   13 1
    26   12   43 1
    27   12   44 1
    28   13   14 1
    29   13   45 1
    30   13   46 1
    31   14   15 1
    32   14   17 1
    33   15   16 1
    34   15   47 1
    35   15   48 1
    36   16   49 1
    37   16   50 1
    38   17   18 1
    39   17   51 1
    40   17   52 1
    41   18   23 ar
    42   18   19 ar
    43   19   20 ar
    44   19   53 1
    45   20   21 ar
    46   20   54 1
    47   21   22 ar
    48   21   55 1
    49   22   23 ar
    50   22   24 1
    51   23   56 1
    52   24   25 2
    53   24   26 am
    54   26   31 1
    55   26   27 1
    56   27   28 1
    57   27   57 1
    58   27   58 1
    59   28   29 1
    60   28   59 1
    61   28   60 1
    62   29   30 1
    63   29   61 1
    64   29   62 1
    65   30   31 1
    66   30   63 1
    67   30   64 1
    68   31   65 1
    69   31   66 1
@<TRIPOS>MOLECULE
ZINC01488294
   49    52     0     0     0
SMALL
USER_CHARGES
4-fluoro-N-[3-(1-methyl-4-piperidyl)-1H-indol-5-yl]-benzamide
@<TRIPOS>ATOM
      1 C1         -8.7658   -6.3171   -0.6517 C.3       1 <0>        -0.0426
      2 C2         -6.7436   -5.5577   -1.7447 C.3       1 <0>        -0.0023
      3 C3         -5.2182   -5.6804   -1.7417 C.3       1 <0>        -0.1409
      4 C4         -4.6683   -5.1161   -0.4288 C.3       1 <0>        -0.0138
      5 C5         -5.2977   -5.8709    0.7454 C.3       1 <0>        -0.1414
      6 C6         -6.8208   -5.7426    0.6703 C.3       1 <0>        -0.0024
      7 C7         -3.1716   -5.2887   -0.3942 C.2       1 <0>        -0.1906
      8 C8         -2.5002   -6.4494   -0.4581 C.2       1 <0>         0.0731
      9 N1         -1.1539   -6.2137   -0.3978 N.pl3     1 <0>        -0.5885
     10 H1         -0.4666   -6.8976   -0.4259 H         1 <0>         0.4216
     11 C9         -0.9198   -4.8591   -0.2907 C.ar      1 <0>         0.0854
     12 C10        -2.1738   -4.2216   -0.2838 C.ar      1 <0>        -0.0776
     13 C11        -2.2497   -2.8313   -0.1836 C.ar      1 <0>        -0.1102
     14 C12        -1.0869   -2.0891   -0.0915 C.ar      1 <0>         0.1376
     15 C13         0.1538   -2.7240   -0.1044 C.ar      1 <0>        -0.0919
     16 C14         0.2386   -4.0950   -0.1972 C.ar      1 <0>        -0.1034
     17 N2         -1.1558   -0.6938    0.0094 N.am      1 <0>        -0.6708
     18 C15        -0.2361   -0.0241    0.7320 C.2       1 <0>         0.5645
     19 O1          0.5956   -0.6358    1.3741 O.2       1 <0>        -0.5103
     20 C16        -0.2385    1.4528    0.7437 C.ar      1 <0>        -0.1554
     21 C17        -1.1891    2.1580    0.0024 C.ar      1 <0>        -0.0559
     22 C18        -1.1910    3.5362    0.0224 C.ar      1 <0>        -0.1611
     23 C19        -0.2434    4.2226    0.7663 C.ar      1 <0>         0.1345
     24 C20         0.7065    3.5275    1.4991 C.ar      1 <0>        -0.1592
     25 C21         0.7134    2.1492    1.4917 C.ar      1 <0>        -0.0243
     26 F1         -0.2459    5.5736    0.7775 F         1 <0>        -0.1285
     27 H2         -9.0923   -6.8002   -1.5726 H         1 <0>         0.1211
     28 H3         -9.1500   -6.8707    0.2050 H         1 <0>         0.1212
     29 H4         -9.1444   -5.2953   -0.6234 H         1 <0>         0.1223
     30 H5         -7.0236   -4.5071   -1.6675 H         1 <0>         0.1298
     31 H6         -7.1394   -5.9717   -2.6721 H         1 <0>         0.1283
     32 H7         -4.8062   -5.1187   -2.5801 H         1 <0>         0.1131
     33 H8         -4.9374   -6.7297   -1.8327 H         1 <0>         0.0866
     34 H9         -4.9145   -4.0568   -0.3561 H         1 <0>         0.0923
     35 H10        -5.0181   -6.9231    0.6935 H         1 <0>         0.0867
     36 H11        -4.9425   -5.4452    1.6839 H         1 <0>         0.1132
     37 H12        -7.1004   -4.6911    0.7362 H         1 <0>         0.1299
     38 H13        -7.2727   -6.2909    1.4969 H         1 <0>         0.1284
     39 H14        -2.9554   -7.4249   -0.5447 H         1 <0>         0.1659
     40 H15        -3.2107   -2.3386   -0.1776 H         1 <0>         0.1239
     41 H16         1.0568   -2.1354   -0.0365 H         1 <0>         0.1422
     42 H17         1.2051   -4.5770   -0.2022 H         1 <0>         0.1292
     43 H18        -1.8655   -0.2094   -0.4408 H         1 <0>         0.4099
     44 H19        -1.9247    1.6244   -0.5812 H         1 <0>         0.1351
     45 H20        -1.9289    4.0825   -0.5464 H         1 <0>         0.1457
     46 H21         1.4422    4.0671    2.0771 H         1 <0>         0.1482
     47 H22         1.4533    1.6088    2.0634 H         1 <0>         0.1497
     48 N3         -7.2890   -6.3255   -0.6052 N.4       1 <0>        -0.3961
     49 H23        -6.9590   -7.2957   -0.6690 H         1 <0>         0.4279
@<TRIPOS>BOND
     1    1   27 1
     2    1   28 1
     3    1   29 1
     4    1   48 1
     5    2    3 1
     6    2   30 1
     7    2   31 1
     8    2   48 1
     9    3    4 1
    10    3   32 1
    11    3   33 1
    12    4    5 1
    13    4    7 1
    14    4   34 1
    15    5    6 1
    16    5   35 1
    17    5   36 1
    18    6   37 1
    19    6   38 1
    20    6   48 1
    21    7   12 1
    22    7    8 2
    23    8    9 1
    24    8   39 1
    25    9   10 1
    26    9   11 1
    27   11   16 ar
    28   11   12 ar
    29   12   13 ar
    30   13   14 ar
    31   13   40 1
    32   14   15 ar
    33   14   17 1
    34   15   16 ar
    35   15   41 1
    36   16   42 1
    37   17   18 am
    38   17   43 1
    39   18   19 2
    40   18   20 1
    41   20   25 ar
    42   20   21 ar
    43   21   22 ar
    44   21   44 1
    45   22   23 ar
    46   22   45 1
    47   23   24 ar
    48   23   26 1
    49   24   25 ar
    50   24   46 1
    51   25   47 1
    52   48   49 1
@<TRIPOS>MOLECULE
ZINC26817456
   44    47     0     0     0
SMALL
USER_CHARGES

@<TRIPOS>ATOM
      1 C1         -0.0167    1.3793    0.0096 C.ar      1 <0>        -0.1104
      2 C2          1.1684    2.0932    0.0021 C.ar      1 <0>        -0.1164
      3 C3          2.3774    1.4286   -0.0129 C.ar      1 <0>        -0.0775
      4 C4          2.4032    0.0335   -0.0206 C.ar      1 <0>        -0.0153
      5 C5          1.2044   -0.6805   -0.0130 C.ar      1 <0>        -0.1128
      6 C6          0.0021   -0.0041    0.0020 C.ar      1 <0>        -0.1159
      7 C7          3.6958   -0.6853   -0.0373 C.2       1 <0>         0.2504
      8 N1          3.8562   -2.0400   -0.0515 N.pl3     1 <0>        -0.5627
      9 H1          3.1497   -2.7046   -0.0529 H         1 <0>         0.4158
     10 C8          5.2032   -2.2835   -0.0640 C.2       1 <0>        -0.0107
     11 C9          5.8213   -1.0849   -0.0571 C.2       1 <0>         0.0050
     12 N2          4.8862   -0.1280   -0.0465 N.2       1 <0>        -0.4710
     13 C10         5.8693   -3.6351   -0.0813 C.3       1 <0>         0.1310
     14 N3          5.9669   -4.1152   -1.4662 N.3       1 <0>        -0.5324
     15 C11         4.6346   -4.3670   -2.0312 C.3       1 <0>         0.0392
     16 C12         4.7688   -4.6895   -3.5233 C.3       1 <0>         0.1346
     17 N4          5.7287   -5.7931   -3.6782 N.pl3     1 <0>        -0.5853
     18 C13         7.0397   -5.6723   -3.0225 C.3       1 <0>         0.1321
     19 C14         6.8160   -5.3110   -1.5501 C.3       1 <0>         0.0417
     20 C15         5.4071   -6.9153   -4.4218 C.ar      1 <0>         0.5656
     21 N5          4.2188   -6.9870   -5.0033 N.ar      1 <0>        -0.5736
     22 C16         3.8801   -8.0451   -5.7211 C.ar      1 <0>         0.1938
     23 C17         4.7853   -9.0854   -5.8607 C.ar      1 <0>        -0.2954
     24 C18         6.0194   -8.9777   -5.2391 C.ar      1 <0>         0.1941
     25 N6          6.2969   -7.8899   -4.5396 N.ar      1 <0>        -0.5721
     26 H2         -0.9604    1.9041    0.0260 H         1 <0>         0.1265
     27 H3          1.1470    3.1729    0.0078 H         1 <0>         0.1301
     28 H4          3.3018    1.9870   -0.0191 H         1 <0>         0.1377
     29 H5          1.2178   -1.7604   -0.0193 H         1 <0>         0.1155
     30 H6         -0.9265   -0.5556    0.0079 H         1 <0>         0.1274
     31 H7          6.8893   -0.9246   -0.0630 H         1 <0>         0.1742
     32 H8          6.8686   -3.5532    0.3462 H         1 <0>         0.1062
     33 H9          5.2793   -4.3385    0.5064 H         1 <0>         0.0435
     34 H10         4.1747   -5.2107   -1.5167 H         1 <0>         0.0378
     35 H11         4.0126   -3.4808   -1.9052 H         1 <0>         0.0817
     36 H12         3.7994   -4.9888   -3.9219 H         1 <0>         0.1014
     37 H13         5.1318   -3.8109   -4.0566 H         1 <0>         0.0742
     38 H14         7.5717   -6.6212   -3.0899 H         1 <0>         0.1038
     39 H15         7.6209   -4.8881   -3.5076 H         1 <0>         0.0755
     40 H16         7.7762   -5.1094   -1.0752 H         1 <0>         0.0946
     41 H17         6.3258   -6.1416   -1.0423 H         1 <0>         0.0399
     42 H18         2.9098   -8.0980   -6.1925 H         1 <0>         0.1668
     43 H19         4.5343   -9.9611   -6.4409 H         1 <0>         0.1443
     44 H20         6.7472   -9.7708   -5.3279 H         1 <0>         0.1674
@<TRIPOS>BOND
     1    1    6 ar
     2    1    2 ar
     3    1   26 1
     4    2    3 ar
     5    2   27 1
     6    3    4 ar
     7    3   28 1
     8    4    5 ar
     9    4    7 1
    10    5    6 ar
    11    5   29 1
    12    6   30 1
    13    7   12 2
    14    7    8 1
    15    8    9 1
    16    8   10 1
    17   10   11 2
    18   10   13 1
    19   11   12 1
    20   11   31 1
    21   13   14 1
    22   13   32 1
    23   13   33 1
    24   14   19 1
    25   14   15 1
    26   15   16 1
    27   15   34 1
    28   15   35 1
    29   16   17 1
    30   16   36 1
    31   16   37 1
    32   17   18 1
    33   17   20 1
    34   18   19 1
    35   18   38 1
    36   18   39 1
    37   19   40 1
    38   19   41 1
    39   20   25 ar
    40   20   21 ar
    41   21   22 ar
    42   22   23 ar
    43   22   42 1
    44   23   24 ar
    45   23   43 1
    46   24   25 ar
    47   24   44 1
@<TRIPOS>MOLECULE
ZINC26817456
   44    47     0     0     0
SMALL
USER_CHARGES
2-[4-[(2-phenyl-1H-imidazol-4-yl)methyl]piperazin-1-yl]pyrimidine
@<TRIPOS>ATOM
      1 C1         -4.3763    8.2024    1.5859 C.ar      1 <0>        -0.1117
      2 C2         -4.6249    6.8506    1.7438 C.ar      1 <0>        -0.1170
      3 C3         -3.8082    5.9202    1.1346 C.ar      1 <0>        -0.0786
      4 C4         -2.7300    6.3453    0.3576 C.ar      1 <0>        -0.0130
      5 C5         -2.4816    7.7101    0.2066 C.ar      1 <0>        -0.1116
      6 C6         -3.3089    8.6304    0.8168 C.ar      1 <0>        -0.1173
      7 C7         -1.8505    5.3534   -0.2984 C.2       1 <0>         0.2588
      8 N1         -0.7660    5.6379   -1.0756 N.pl3     1 <0>        -0.5674
      9 C8         -0.2359    4.4413   -1.4765 C.2       1 <0>        -0.0459
     10 C9         -1.0054    3.4702   -0.9440 C.2       1 <0>         0.0079
     11 N2         -1.9803    4.0470   -0.2322 N.2       1 <0>        -0.4559
     12 C10        -0.8000    1.9874   -1.1184 C.3       1 <0>         0.1374
     13 N3         -0.0179    1.4653    0.0101 N.3       1 <0>        -0.5327
     14 C11         1.3479    2.0078   -0.0000 C.3       1 <0>         0.0554
     15 C12         2.1033    1.5037    1.2320 C.3       1 <0>         0.0705
     16 N4          2.1232    0.0343    1.2239 N.pl3     1 <0>        -0.4613
     17 C13         0.7575   -0.5081    1.2340 C.3       1 <0>         0.0716
     18 C14         0.0021   -0.0041    0.0020 C.3       1 <0>         0.0540
     19 C15         2.8602   -0.4576    2.2871 C.ar      1 <0>         0.4956
     20 N5          2.2881   -1.2982    3.1366 N.ar      1 <0>        -0.5499
     21 C16         2.9660   -1.7911    4.1600 C.ar      1 <0>         0.1902
     22 C17         4.2856   -1.4091    4.3438 C.ar      1 <0>        -0.2548
     23 C18         4.8512   -0.5238    3.4396 C.ar      1 <0>         0.1889
     24 N6          4.1193   -0.0725    2.4344 N.ar      1 <0>        -0.5309
     25 H1         -5.0185    8.9267    2.0648 H         1 <0>         0.1258
     26 H2         -5.4597    6.5229    2.3455 H         1 <0>         0.1292
     27 H3         -4.0033    4.8653    1.2586 H         1 <0>         0.1370
     28 H4         -1.6460    8.0453   -0.3898 H         1 <0>         0.1174
     29 H5         -3.1202    9.6870    0.6974 H         1 <0>         0.1269
     30 H6          0.5491    4.2006   -2.0474 H         1 <0>         0.1662
     31 H7         -1.7771    1.4833   -1.1517 H         1 <0>         0.0919
     32 H8         -0.2587    1.8001   -2.0575 H         1 <0>         0.0504
     33 H9          1.8675    1.6760   -0.9110 H         1 <0>         0.0472
     34 H10         1.3061    3.1068    0.0186 H         1 <0>         0.0875
     35 H11         3.1347    1.8855    1.2113 H         1 <0>         0.0984
     36 H12         1.5989    1.8595    2.1424 H         1 <0>         0.0532
     37 H13         0.7993   -1.6071    1.2154 H         1 <0>         0.0941
     38 H14         0.2379   -0.1763    2.1450 H         1 <0>         0.0649
     39 H15        -1.0297   -0.3849    0.0221 H         1 <0>         0.0916
     40 H16         0.5062   -0.3589   -0.9090 H         1 <0>         0.0459
     41 H17         2.5244   -2.4277    4.7922 H         1 <0>         0.1530
     42 H18         4.8281   -1.7580    5.1080 H         1 <0>         0.1355
     43 H19         5.8017   -0.2340    3.5515 H         1 <0>         0.1544
     44 H20        -0.2999    6.5811   -1.3966 H         1 <0>         0.4476
@<TRIPOS>BOND
     1    1    6 ar
     2    1    2 ar
     3    1   25 1
     4    2    3 ar
     5    2   26 1
     6    3    4 ar
     7    3   27 1
     8    4    5 ar
     9    4    7 1
    10    5    6 ar
    11    5   28 1
    12    6   29 1
    13    7   11 2
    14    7    8 1
    15    8    9 1
    16    8   44 1
    17    9   10 2
    18    9   30 1
    19   10   11 1
    20   10   12 1
    21   12   13 1
    22   12   31 1
    23   12   32 1
    24   13   18 1
    25   13   14 1
    26   14   15 1
    27   14   33 1
    28   14   34 1
    29   15   16 1
    30   15   35 1
    31   15   36 1
    32   16   17 1
    33   16   19 1
    34   17   18 1
    35   17   37 1
    36   17   38 1
    37   18   39 1
    38   18   40 1
    39   19   24 ar
    40   19   20 ar
    41   20   21 ar
    42   21   22 ar
    43   21   41 1
    44   22   23 ar
    45   22   42 1
    46   23   24 ar
    47   23   43 1
@<TRIPOS>MOLECULE
ZINC26817456
   46    49     0     0     0
SMALL
USER_CHARGES
2-[4-[(2-phenyl-1H-imidazol-5-yl)methyl]piperazin-1-yl]pyrimidine
@<TRIPOS>ATOM
      1 C1          6.3079    0.9451   -0.0527 C.ar      1 <0>        -0.0491
      2 C2          5.5659    2.1127   -0.0398 C.ar      1 <0>        -0.1030
      3 C3          4.1874    2.0574   -0.0269 C.ar      1 <0>        -0.0681
      4 C4          3.5418    0.8204   -0.0274 C.ar      1 <0>        -0.1154
      5 C5          4.2960   -0.3535   -0.0351 C.ar      1 <0>        -0.0683
      6 C6          5.6739   -0.2845   -0.0533 C.ar      1 <0>        -0.1053
      7 C7          2.0642    0.7537   -0.0136 C.cat     1 <0>         0.4157
      8 N1          1.3161   -0.3871   -0.0126 N.pl3     1 <0>        -0.5357
      9 C8          0.0021   -0.0041    0.0020 C.2       1 <0>        -0.0234
     10 C9         -0.0162    1.3444    0.0096 C.2       1 <0>         0.0958
     11 N2          1.2475    1.7836   -0.0002 N.pl3     1 <0>        -0.4968
     12 C10        -1.1972   -0.9166    0.0093 C.3       1 <0>         0.0731
     13 N3         -1.5275   -1.3022   -1.3691 N.4       1 <0>        -0.4086
     14 C11        -1.9808   -0.1405   -2.1468 C.3       1 <0>        -0.0056
     15 C12        -2.2381   -0.5676   -3.5938 C.3       1 <0>         0.0369
     16 N4         -3.2456   -1.6371   -3.6144 N.pl3     1 <0>        -0.4606
     17 C13        -2.7924   -2.7988   -2.8368 C.3       1 <0>         0.0392
     18 C14        -2.5351   -2.3718   -1.3898 C.3       1 <0>        -0.0023
     19 C15        -3.5568   -2.0005   -4.9132 C.ar      1 <0>         0.4701
     20 N5         -3.4148   -3.2649   -5.2826 N.ar      1 <0>        -0.5493
     21 C16        -3.7087   -3.6463   -6.5147 C.ar      1 <0>         0.1969
     22 C17        -4.1587   -2.7032   -7.4253 C.ar      1 <0>        -0.2190
     23 C18        -4.2904   -1.3884   -7.0070 C.ar      1 <0>         0.1973
     24 N6         -3.9845   -1.0746   -5.7589 N.ar      1 <0>        -0.5224
     25 H1          7.3868    0.9938   -0.0628 H         1 <0>         0.1511
     26 H2          6.0668    3.0695   -0.0394 H         1 <0>         0.1526
     27 H3          3.6092    2.9696   -0.0168 H         1 <0>         0.1339
     28 H4          3.8022   -1.3141   -0.0310 H         1 <0>         0.1302
     29 H5          6.2588   -1.1924   -0.0634 H         1 <0>         0.1512
     30 H6         -0.8889    1.8326    0.0167 H         1 <0>         0.2082
     31 H7         -0.9687   -1.8177    0.5974 H         1 <0>         0.1639
     32 H8         -2.0537   -0.3928    0.4588 H         1 <0>         0.1738
     33 H9         -2.9098    0.2538   -1.7091 H         1 <0>         0.1524
     34 H10        -1.2057    0.6397   -2.1261 H         1 <0>         0.1327
     35 H11        -2.6049    0.2941   -4.1707 H         1 <0>         0.1456
     36 H12        -1.3022   -0.9356   -4.0395 H         1 <0>         0.0690
     37 H13        -3.5676   -3.5789   -2.8576 H         1 <0>         0.1432
     38 H14        -1.8635   -3.1932   -3.2744 H         1 <0>         0.0809
     39 H15        -2.1677   -3.2329   -0.8122 H         1 <0>         0.1507
     40 H16        -3.4704   -2.0031   -0.9435 H         1 <0>         0.1485
     41 H17        -3.6010   -4.6042   -6.7807 H         1 <0>         0.1619
     42 H18        -4.3870   -2.9538   -8.3661 H         1 <0>         0.1457
     43 H19        -4.6135   -0.6904   -7.6460 H         1 <0>         0.1638
     44 H20         1.6522    2.8065    0.0014 H         1 <0>         0.5098
     45 H21         1.8111   -1.3694   -0.0226 H         1 <0>         0.5011
     46 H22        -0.6114   -1.6893   -1.8391 H         1 <0>         0.4375
@<TRIPOS>BOND
     1    1    6 ar
     2    1    2 ar
     3    1   25 1
     4    2    3 ar
     5    2   26 1
     6    3    4 ar
     7    3   27 1
     8    4    5 ar
     9    4    7 1
    10    5    6 ar
    11    5   28 1
    12    6   29 1
    13    7    8 2
    14    7   11 1
    15    8    9 1
    16    8   45 1
    17    9   10 2
    18    9   12 1
    19   10   11 1
    20   10   30 1
    21   11   44 1
    22   12   13 1
    23   12   31 1
    24   12   32 1
    25   13   18 1
    26   13   14 1
    27   13   46 1
    28   14   15 1
    29   14   33 1
    30   14   34 1
    31   15   16 1
    32   15   35 1
    33   15   36 1
    34   16   17 1
    35   16   19 1
    36   17   18 1
    37   17   37 1
    38   17   38 1
    39   18   39 1
    40   18   40 1
    41   19   24 ar
    42   19   20 ar
    43   20   21 ar
    44   21   22 ar
    45   21   41 1
    46   22   23 ar
    47   22   42 1
    48   23   24 ar
    49   23   43 1
@<TRIPOS>MOLECULE
ZINC26817456
   45    48     0     0     0
SMALL
USER_CHARGES

@<TRIPOS>ATOM
      1 C1         -0.0167    1.3793    0.0096 C.ar      1 <0>        -0.0641
      2 C2          1.1684    2.0932    0.0021 C.ar      1 <0>        -0.1064
      3 C3          2.3774    1.4286   -0.0129 C.ar      1 <0>        -0.0743
      4 C4          2.4032    0.0335   -0.0206 C.ar      1 <0>        -0.0957
      5 C5          1.2044   -0.6805   -0.0130 C.ar      1 <0>        -0.0728
      6 C6          0.0021   -0.0041    0.0020 C.ar      1 <0>        -0.1070
      7 C7          3.6958   -0.6853   -0.0373 C.cat     1 <0>         0.3863
      8 N1          3.8575   -2.0353   -0.1479 N.pl3     1 <0>        -0.5144
      9 H1          3.1522   -2.6961   -0.2298 H         1 <0>         0.4588
     10 C8          5.2039   -2.2807   -0.1218 C.2       1 <0>         0.0694
     11 C9          5.8205   -1.0877    0.0025 C.2       1 <0>         0.0293
     12 N2          4.8852   -0.1320    0.0463 N.pl3     1 <0>        -0.4740
     13 C10         5.8711   -3.6289   -0.2139 C.3       1 <0>         0.1108
     14 N3          6.0277   -4.0024   -1.6259 N.3       1 <0>        -0.5344
     15 C11         4.7206   -4.2069   -2.2644 C.3       1 <0>         0.0338
     16 C12         4.9182   -4.4152   -3.7697 C.3       1 <0>         0.1359
     17 N4          5.8845   -5.5063   -3.9675 N.pl3     1 <0>        -0.5910
     18 C13         7.1664   -5.4391   -3.2495 C.3       1 <0>         0.1320
     19 C14         6.8803   -5.1905   -1.7648 C.3       1 <0>         0.0420
     20 C15         5.5954   -6.5677   -4.8073 C.ar      1 <0>         0.5616
     21 N5          4.4328   -6.5919   -5.4424 N.ar      1 <0>        -0.5742
     22 C16         4.1255   -7.5914   -6.2524 C.ar      1 <0>         0.1935
     23 C17         5.0365   -8.6204   -6.4324 C.ar      1 <0>        -0.2853
     24 C18         6.2432   -8.5636   -5.7527 C.ar      1 <0>         0.1955
     25 N6          6.4900   -7.5328   -4.9613 N.ar      1 <0>        -0.5699
     26 H2         -0.9604    1.9041    0.0260 H         1 <0>         0.1451
     27 H3          1.1470    3.1729    0.0078 H         1 <0>         0.1471
     28 H4          3.3018    1.9870   -0.0191 H         1 <0>         0.1327
     29 H5          1.2178   -1.7604   -0.0193 H         1 <0>         0.1304
     30 H6         -0.9265   -0.5556    0.0079 H         1 <0>         0.1465
     31 H7          6.8877   -0.9303    0.0540 H         1 <0>         0.2286
     32 H8          6.8513   -3.5823    0.2605 H         1 <0>         0.1284
     33 H9          5.2571   -4.3734    0.2930 H         1 <0>         0.0702
     34 H10         4.2399   -5.0862   -1.8356 H         1 <0>         0.0491
     35 H11         4.0933   -3.3312   -2.0977 H         1 <0>         0.0704
     36 H12         3.9668   -4.6807   -4.2306 H         1 <0>         0.1056
     37 H13         5.3028   -3.4995   -4.2187 H         1 <0>         0.0730
     38 H14         7.7014   -6.3816   -3.3665 H         1 <0>         0.1094
     39 H15         7.7672   -4.6218   -3.6485 H         1 <0>         0.0764
     40 H16         7.8193   -5.0282   -1.2356 H         1 <0>         0.1004
     41 H17         6.3695   -6.0561   -1.3428 H         1 <0>         0.0491
     42 H18         3.1761   -7.6058   -6.7671 H         1 <0>         0.1696
     43 H19         4.8109   -9.4487   -7.0878 H         1 <0>         0.1482
     44 H20         6.9745   -9.3494   -5.8708 H         1 <0>         0.1708
     45 H21         5.0575    0.8190    0.1288 H         1 <0>         0.4633
@<TRIPOS>BOND
     1    1    6 ar
     2    1    2 ar
     3    1   26 1
     4    2    3 ar
     5    2   27 1
     6    3    4 ar
     7    3   28 1
     8    4    5 ar
     9    4    7 1
    10    5    6 ar
    11    5   29 1
    12    6   30 1
    13    7   12 2
    14    7    8 1
    15    8    9 1
    16    8   10 1
    17   10   11 2
    18   10   13 1
    19   11   12 1
    20   11   31 1
    21   12   45 1
    22   13   14 1
    23   13   32 1
    24   13   33 1
    25   14   19 1
    26   14   15 1
    27   15   16 1
    28   15   34 1
    29   15   35 1
    30   16   17 1
    31   16   36 1
    32   16   37 1
    33   17   18 1
    34   17   20 1
    35   18   19 1
    36   18   38 1
    37   18   39 1
    38   19   40 1
    39   19   41 1
    40   20   25 ar
    41   20   21 ar
    42   21   22 ar
    43   22   23 ar
    44   22   42 1
    45   23   24 ar
    46   23   43 1
    47   24   25 ar
    48   24   44 1
@<TRIPOS>MOLECULE
ZINC00200993
   31    32     0     0     0
SMALL
USER_CHARGES
2-(5-ethyl-1H-indol-3-yl)ethanamine
@<TRIPOS>ATOM
      1 C1          4.9139    4.0881    2.4716 C.3       1 <0>        -0.1472
      2 C2          3.7539    4.4310    3.4085 C.3       1 <0>        -0.0863
      3 C3          2.9491    3.1878    3.6875 C.ar      1 <0>        -0.0907
      4 C4          3.2803    2.3810    4.7677 C.ar      1 <0>        -0.0904
      5 C5          2.5580    1.2401    5.0400 C.ar      1 <0>        -0.1179
      6 C6          1.4854    0.8906    4.2259 C.ar      1 <0>         0.0900
      7 C7          1.1578    1.7080    3.1289 C.ar      1 <0>        -0.0968
      8 C8          1.8996    2.8634    2.8750 C.ar      1 <0>        -0.0842
      9 C9          0.0000    1.0800    2.4877 C.2       1 <0>        -0.2092
     10 C10        -0.2849   -0.0276    3.1905 C.2       1 <0>         0.0853
     11 N1          0.5921   -0.1571    4.2328 N.pl3     1 <0>        -0.5876
     12 H1          0.5858   -0.8797    4.8799 H         1 <0>         0.4231
     13 C11        -0.7288    1.5792    1.2668 C.3       1 <0>        -0.0613
     14 C12        -0.0127    1.0858    0.0080 C.3       1 <0>        -0.0037
     15 H2          5.5520    3.3401    2.9421 H         1 <0>         0.0573
     16 H3          4.5200    3.6926    1.5354 H         1 <0>         0.0512
     17 H4          5.4959    4.9873    2.2699 H         1 <0>         0.0611
     18 H5          3.1157    5.1790    2.9380 H         1 <0>         0.0710
     19 H6          4.1478    4.8265    4.3448 H         1 <0>         0.0754
     20 H7          4.1129    2.6504    5.4006 H         1 <0>         0.1308
     21 H8          2.8233    0.6192    5.8829 H         1 <0>         0.1260
     22 H9          1.6480    3.4956    2.0363 H         1 <0>         0.1171
     23 H10        -1.0874   -0.7147    2.9665 H         1 <0>         0.1726
     24 H11        -0.7436    2.6691    1.2728 H         1 <0>         0.0916
     25 H12        -1.7514    1.2020    1.2746 H         1 <0>         0.0910
     26 H13         0.0021   -0.0041    0.0020 H         1 <0>         0.1307
     27 H14         1.0099    1.4631    0.0003 H         1 <0>         0.1341
     28 H15        -0.8068    2.5779   -1.1674 H         1 <0>         0.4367
     29 H16        -0.2694    1.2597   -2.0273 H         1 <0>         0.4395
     30 N2         -0.7456    1.5611   -1.1787 N.4       1 <0>        -0.6479
     31 H17        -1.6942    1.1683   -1.1693 H         1 <0>         0.4385
@<TRIPOS>BOND
     1    1    2 1
     2    1   15 1
     3    1   16 1
     4    1   17 1
     5    2    3 1
     6    2   18 1
     7    2   19 1
     8    3    8 ar
     9    3    4 ar
    10    4    5 ar
    11    4   20 1
    12    5    6 ar
    13    5   21 1
    14    6   11 1
    15    6    7 ar
    16    7    8 ar
    17    7    9 1
    18    8   22 1
    19    9   10 2
    20    9   13 1
    21   10   11 1
    22   10   23 1
    23   11   12 1
    24   13   14 1
    25   13   24 1
    26   13   25 1
    27   14   26 1
    28   14   27 1
    29   14   30 1
    30   28   30 1
    31   29   30 1
    32   30   31 1
@<TRIPOS>MOLECULE
ZINC07653962
   45    47     0     0     0
SMALL
USER_CHARGES

@<TRIPOS>ATOM
      1 C1         -0.0167    1.3777    0.0096 C.ar      1 <0>        -0.0981
      2 C2          1.1697    2.0876    0.0021 C.ar      1 <0>        -0.1086
      3 C3          2.3784    1.4177   -0.0116 C.ar      1 <0>        -0.1049
      4 C4          2.4042    0.0310   -0.0192 C.ar      1 <0>         0.0371
      5 C5          1.2117   -0.6826   -0.0141 C.ar      1 <0>         0.0507
      6 C6          0.0021   -0.0041    0.0020 C.ar      1 <0>        -0.1079
      7 O1          1.2143   -2.0435   -0.0292 O.3       1 <0>        -0.2930
      8 C7          2.4407   -2.6888    0.3305 C.3       1 <0>         0.0340
      9 C8          3.5869   -1.9932   -0.4162 C.3       1 <0>         0.0189
     10 H1          3.4262   -2.0716   -1.4914 H         1 <0>         0.1101
     11 O2          3.6023   -0.6148   -0.0295 O.3       1 <0>        -0.3187
     12 C9          4.9182   -2.6493   -0.0444 C.3       1 <0>         0.0069
     13 N1          6.0113   -1.9797   -0.7618 N.4       1 <0>        -0.5019
     14 C10         7.2895   -2.6096   -0.4048 C.3       1 <0>        -0.0419
     15 C11         8.4280   -1.9122   -1.1520 C.3       1 <0>         0.0853
     16 H2          8.4524   -0.8582   -0.8750 H         1 <0>         0.1375
     17 C12         9.7592   -2.5683   -0.7802 C.3       1 <0>         0.0291
     18 O3         10.8324   -1.8447   -1.3858 O.3       1 <0>        -0.2949
     19 C13        12.0923   -2.3000   -1.1537 C.ar      1 <0>         0.0843
     20 C14        12.2907   -3.4227   -0.3645 C.ar      1 <0>        -0.1824
     21 C15        13.5720   -3.8837   -0.1298 C.ar      1 <0>        -0.0890
     22 C16        14.6569   -3.2269   -0.6804 C.ar      1 <0>        -0.1166
     23 C17        14.4636   -2.1068   -1.4675 C.ar      1 <0>        -0.1127
     24 C18        13.1828   -1.6446   -1.7113 C.ar      1 <0>         0.0778
     25 F1         12.9931   -0.5538   -2.4854 F         1 <0>        -0.1285
     26 O4          8.2159   -2.0297   -2.5603 O.3       1 <0>        -0.5415
     27 H3         -0.9596    1.9040    0.0259 H         1 <0>         0.1418
     28 H4          1.1518    3.1674    0.0066 H         1 <0>         0.1410
     29 H5          3.3037    1.9746   -0.0169 H         1 <0>         0.1377
     30 H6         -0.9261   -0.5562    0.0086 H         1 <0>         0.1424
     31 H7          2.5984   -2.6053    1.4058 H         1 <0>         0.0892
     32 H8          2.4005   -3.7400    0.0450 H         1 <0>         0.1319
     33 H9          5.0799   -2.5596    1.0298 H         1 <0>         0.1471
     34 H10         4.8937   -3.7032   -0.3214 H         1 <0>         0.1566
     35 H11         5.8615   -2.0627   -1.7562 H         1 <0>         0.4349
     36 H12         7.4512   -2.5199    0.6694 H         1 <0>         0.1496
     37 H13         7.2650   -3.6635   -0.6818 H         1 <0>         0.1426
     38 H14         9.8795   -2.5576    0.3031 H         1 <0>         0.0843
     39 H15         9.7687   -3.5983   -1.1367 H         1 <0>         0.0792
     40 H16        11.4442   -3.9363    0.0668 H         1 <0>         0.1342
     41 H17        13.7262   -4.7582    0.4850 H         1 <0>         0.1371
     42 H18        15.6573   -3.5892   -0.4949 H         1 <0>         0.1412
     43 H19        15.3128   -1.5951   -1.8958 H         1 <0>         0.1487
     44 H20         8.1829   -2.9424   -2.8782 H         1 <0>         0.3899
     45 H21         6.0339   -1.0041   -0.5054 H         1 <0>         0.4393
@<TRIPOS>BOND
     1    1    6 ar
     2    1    2 ar
     3    1   27 1
     4    2    3 ar
     5    2   28 1
     6    3    4 ar
     7    3   29 1
     8    4   11 1
     9    4    5 ar
    10    5    6 ar
    11    5    7 1
    12    6   30 1
    13    7    8 1
    14    8    9 1
    15    8   31 1
    16    8   32 1
    17    9   10 1
    18    9   11 1
    19    9   12 1
    20   12   13 1
    21   12   33 1
    22   12   34 1
    23   13   14 1
    24   13   35 1
    25   13   45 1
    26   14   15 1
    27   14   36 1
    28   14   37 1
    29   15   16 1
    30   15   17 1
    31   15   26 1
    32   17   18 1
    33   17   38 1
    34   17   39 1
    35   18   19 1
    36   19   24 ar
    37   19   20 ar
    38   20   21 ar
    39   20   40 1
    40   21   22 ar
    41   21   41 1
    42   22   23 ar
    43   22   42 1
    44   23   24 ar
    45   23   43 1
    46   24   25 1
    47   26   44 1
@<TRIPOS>MOLECULE
ZINC07653962
   44    46     0     0     0
SMALL
USER_CHARGES

@<TRIPOS>ATOM
      1 C1         -0.0167    1.3777    0.0096 C.ar      1 <0>        -0.1176
      2 C2          1.1697    2.0876    0.0021 C.ar      1 <0>        -0.1143
      3 C3          2.3784    1.4177   -0.0116 C.ar      1 <0>        -0.1131
      4 C4          2.4042    0.0310   -0.0192 C.ar      1 <0>         0.0523
      5 C5          1.2117   -0.6826   -0.0141 C.ar      1 <0>         0.0426
      6 C6          0.0021   -0.0041    0.0020 C.ar      1 <0>        -0.1135
      7 O1          1.2143   -2.0435   -0.0292 O.3       1 <0>        -0.3054
      8 C7          2.4407   -2.6888    0.3305 C.3       1 <0>         0.0271
      9 C8          3.5869   -1.9932   -0.4162 C.3       1 <0>         0.0549
     10 H1          3.4262   -2.0716   -1.4914 H         1 <0>         0.0842
     11 O2          3.6023   -0.6148   -0.0295 O.3       1 <0>        -0.2850
     12 C9          4.9182   -2.6493   -0.0444 C.3       1 <0>         0.0688
     13 N1          6.0113   -1.9797   -0.7618 N.3       1 <0>        -0.6744
     14 C10         7.3079   -2.5845   -0.4286 C.3       1 <0>         0.0325
     15 C11         8.4191   -1.8622   -1.1931 C.3       1 <0>         0.1119
     16 H2          8.4270   -0.8087   -0.9134 H         1 <0>         0.1215
     17 C12         9.7695   -2.4921   -0.8461 C.3       1 <0>         0.0275
     18 O3         10.8173   -1.7453   -1.4678 O.3       1 <0>        -0.2947
     19 C13        12.0899   -2.1756   -1.2586 C.ar      1 <0>         0.0961
     20 C14        12.3245   -3.2961   -0.4763 C.ar      1 <0>        -0.1852
     21 C15        13.6187   -3.7317   -0.2649 C.ar      1 <0>        -0.0895
     22 C16        14.6805   -3.0515   -0.8320 C.ar      1 <0>        -0.1282
     23 C17        14.4511   -1.9335   -1.6124 C.ar      1 <0>        -0.1154
     24 C18        13.1572   -1.4968   -1.8329 C.ar      1 <0>         0.0702
     25 F1         12.9322   -0.4080   -2.6003 F         1 <0>        -0.1301
     26 O4          8.1853   -1.9803   -2.5979 O.3       1 <0>        -0.5456
     27 H3         -0.9596    1.9040    0.0259 H         1 <0>         0.1324
     28 H4          1.1518    3.1674    0.0066 H         1 <0>         0.1327
     29 H5          3.3037    1.9746   -0.0169 H         1 <0>         0.1355
     30 H6         -0.9261   -0.5562    0.0086 H         1 <0>         0.1337
     31 H7          2.5984   -2.6053    1.4058 H         1 <0>         0.0794
     32 H8          2.4005   -3.7400    0.0450 H         1 <0>         0.1214
     33 H9          5.0799   -2.5596    1.0298 H         1 <0>         0.0882
     34 H10         4.8937   -3.7032   -0.3214 H         1 <0>         0.0571
     35 H11         7.4862   -2.4944    0.6429 H         1 <0>         0.0883
     36 H12         7.3000   -3.6380   -0.7083 H         1 <0>         0.0379
     37 H13         9.9082   -2.4818    0.2350 H         1 <0>         0.0758
     38 H14         9.7937   -3.5208   -1.2057 H         1 <0>         0.0676
     39 H15        11.4961   -3.8279   -0.0321 H         1 <0>         0.1357
     40 H16        13.8011   -4.6045    0.3445 H         1 <0>         0.1332
     41 H17        15.6910   -3.3940   -0.6648 H         1 <0>         0.1360
     42 H18        15.2822   -1.4036   -2.0537 H         1 <0>         0.1438
     43 H19         8.1652   -2.8926   -2.9179 H         1 <0>         0.3714
     44 H20         5.8515   -1.9928   -1.7580 H         1 <0>         0.3524
@<TRIPOS>BOND
     1    1    6 ar
     2    1    2 ar
     3    1   27 1
     4    2    3 ar
     5    2   28 1
     6    3    4 ar
     7    3   29 1
     8    4   11 1
     9    4    5 ar
    10    5    6 ar
    11    5    7 1
    12    6   30 1
    13    7    8 1
    14    8    9 1
    15    8   31 1
    16    8   32 1
    17    9   10 1
    18    9   11 1
    19    9   12 1
    20   12   13 1
    21   12   33 1
    22   12   34 1
    23   13   14 1
    24   13   44 1
    25   14   15 1
    26   14   35 1
    27   14   36 1
    28   15   16 1
    29   15   17 1
    30   15   26 1
    31   17   18 1
    32   17   37 1
    33   17   38 1
    34   18   19 1
    35   19   24 ar
    36   19   20 ar
    37   20   21 ar
    38   20   39 1
    39   21   22 ar
    40   21   40 1
    41   22   23 ar
    42   22   41 1
    43   23   24 ar
    44   23   42 1
    45   24   25 1
    46   26   43 1
@<TRIPOS>MOLECULE
ZINC07653965
   45    47     0     0     0
SMALL
USER_CHARGES

@<TRIPOS>ATOM
      1 C1         -0.0167    1.3777    0.0096 C.ar      1 <0>        -0.0984
      2 C2          1.1697    2.0876    0.0021 C.ar      1 <0>        -0.1085
      3 C3          2.3783    1.4178   -0.0143 C.ar      1 <0>        -0.1046
      4 C4          2.4042    0.0310   -0.0230 C.ar      1 <0>         0.0368
      5 C5          1.2117   -0.6826   -0.0129 C.ar      1 <0>         0.0501
      6 C6          0.0021   -0.0041    0.0020 C.ar      1 <0>        -0.1080
      7 O1          1.2145   -2.0436   -0.0133 O.3       1 <0>        -0.2932
      8 C7          2.4336   -2.6847   -0.4041 C.3       1 <0>         0.0340
      9 C8          3.5941   -1.9974    0.3280 C.3       1 <0>         0.0189
     10 H1          3.4543   -2.0880    1.4052 H         1 <0>         0.1091
     11 O2          3.6022   -0.6147   -0.0433 O.3       1 <0>        -0.3162
     12 C9          4.9178   -2.6491   -0.0771 C.3       1 <0>         0.0063
     13 N1          6.0113   -2.0694    0.7143 N.4       1 <0>        -0.5026
     14 C10         7.2823   -2.6951    0.3254 C.3       1 <0>        -0.0421
     15 C11         8.4212   -2.0914    1.1496 C.3       1 <0>         0.0854
     16 H2          8.2373   -2.2702    2.2090 H         1 <0>         0.1371
     17 C12         9.7449   -2.7431    0.7446 C.3       1 <0>         0.0289
     18 O3         10.7905   -2.2647    1.5930 O.3       1 <0>        -0.2949
     19 C13        12.0404   -2.7487    1.3650 C.ar      1 <0>         0.0843
     20 C14        12.2565   -3.6603    0.3428 C.ar      1 <0>        -0.1823
     21 C15        13.5276   -4.1510    0.1128 C.ar      1 <0>        -0.0890
     22 C16        14.5846   -3.7347    0.9009 C.ar      1 <0>        -0.1166
     23 C17        14.3735   -2.8263    1.9216 C.ar      1 <0>        -0.1127
     24 C18        13.1043   -2.3267    2.1521 C.ar      1 <0>         0.0778
     25 F1         12.8987   -1.4344    3.1455 F         1 <0>        -0.1285
     26 O4          8.4895   -0.6845    0.9088 O.3       1 <0>        -0.5412
     27 H3         -0.9596    1.9040    0.0259 H         1 <0>         0.1417
     28 H4          1.1518    3.1674    0.0087 H         1 <0>         0.1410
     29 H5          3.3037    1.9746   -0.0208 H         1 <0>         0.1379
     30 H6         -0.9261   -0.5562    0.0079 H         1 <0>         0.1423
     31 H7          2.3988   -3.7390   -0.1298 H         1 <0>         0.1318
     32 H8          2.5703   -2.5889   -1.4813 H         1 <0>         0.0892
     33 H9          4.8657   -3.7223    0.1066 H         1 <0>         0.1573
     34 H10         5.1017   -2.4704   -1.1365 H         1 <0>         0.1475
     35 H11         6.0596   -1.0761    0.5442 H         1 <0>         0.4414
     36 H12         7.2301   -3.7683    0.5091 H         1 <0>         0.1499
     37 H13         7.4661   -2.5164   -0.7340 H         1 <0>         0.1424
     38 H14         9.6625   -3.8254    0.8444 H         1 <0>         0.0842
     39 H15         9.9726   -2.4899   -0.2909 H         1 <0>         0.0792
     40 H16        11.4317   -3.9868   -0.2732 H         1 <0>         0.1342
     41 H17        13.6956   -4.8610   -0.6835 H         1 <0>         0.1371
     42 H18        15.5770   -4.1202    0.7192 H         1 <0>         0.1412
     43 H19        15.2006   -2.5033    2.5363 H         1 <0>         0.1487
     44 H20         8.6514   -0.4511   -0.0156 H         1 <0>         0.3907
     45 H21         5.8412   -2.2349    1.6950 H         1 <0>         0.4324
@<TRIPOS>BOND
     1    1    6 ar
     2    1    2 ar
     3    1   27 1
     4    2    3 ar
     5    2   28 1
     6    3    4 ar
     7    3   29 1
     8    4   11 1
     9    4    5 ar
    10    5    6 ar
    11    5    7 1
    12    6   30 1
    13    7    8 1
    14    8    9 1
    15    8   31 1
    16    8   32 1
    17    9   10 1
    18    9   11 1
    19    9   12 1
    20   12   13 1
    21   12   33 1
    22   12   34 1
    23   13   14 1
    24   13   35 1
    25   13   45 1
    26   14   15 1
    27   14   36 1
    28   14   37 1
    29   15   16 1
    30   15   17 1
    31   15   26 1
    32   17   18 1
    33   17   38 1
    34   17   39 1
    35   18   19 1
    36   19   24 ar
    37   19   20 ar
    38   20   21 ar
    39   20   40 1
    40   21   22 ar
    41   21   41 1
    42   22   23 ar
    43   22   42 1
    44   23   24 ar
    45   23   43 1
    46   24   25 1
    47   26   44 1
@<TRIPOS>MOLECULE
ZINC07653965
   44    46     0     0     0
SMALL
USER_CHARGES

@<TRIPOS>ATOM
      1 C1         -0.0167    1.3777    0.0096 C.ar      1 <0>        -0.1157
      2 C2          1.1697    2.0876    0.0021 C.ar      1 <0>        -0.1147
      3 C3          2.3783    1.4178   -0.0143 C.ar      1 <0>        -0.1136
      4 C4          2.4042    0.0310   -0.0230 C.ar      1 <0>         0.0539
      5 C5          1.2117   -0.6826   -0.0129 C.ar      1 <0>         0.0466
      6 C6          0.0021   -0.0041    0.0020 C.ar      1 <0>        -0.1136
      7 O1          1.2145   -2.0436   -0.0133 O.3       1 <0>        -0.3046
      8 C7          2.4336   -2.6847   -0.4041 C.3       1 <0>         0.0280
      9 C8          3.5941   -1.9974    0.3280 C.3       1 <0>         0.0523
     10 H1          3.4543   -2.0880    1.4052 H         1 <0>         0.0968
     11 O2          3.6022   -0.6147   -0.0433 O.3       1 <0>        -0.3061
     12 C9          4.9178   -2.6491   -0.0771 C.3       1 <0>         0.0706
     13 N1          6.0113   -2.0694    0.7143 N.3       1 <0>        -0.6810
     14 C10         7.3008   -2.6726    0.3516 C.3       1 <0>         0.0311
     15 C11         8.4125   -2.0450    1.1948 C.3       1 <0>         0.1118
     16 H2          8.2122   -2.2235    2.2512 H         1 <0>         0.1207
     17 C12         9.7555   -2.6732    0.8170 C.3       1 <0>         0.0274
     18 O3         10.7760   -2.1725    1.6831 O.3       1 <0>        -0.2947
     19 C13        12.0387   -2.6339    1.4804 C.ar      1 <0>         0.0961
     20 C14        12.2909   -3.5447    0.4657 C.ar      1 <0>        -0.1852
     21 C15        13.5750   -4.0123    0.2614 C.ar      1 <0>        -0.0895
     22 C16        14.6091   -3.5738    1.0677 C.ar      1 <0>        -0.1282
     23 C17        14.3620   -2.6660    2.0808 C.ar      1 <0>        -0.1154
     24 C18        13.0796   -2.1894    2.2857 C.ar      1 <0>         0.0701
     25 F1         12.8388   -1.2977    3.2717 F         1 <0>        -0.1302
     26 O4          8.4593   -0.6378    0.9500 O.3       1 <0>        -0.5452
     27 H3         -0.9596    1.9040    0.0259 H         1 <0>         0.1331
     28 H4          1.1518    3.1674    0.0087 H         1 <0>         0.1331
     29 H5          3.3037    1.9746   -0.0208 H         1 <0>         0.1348
     30 H6         -0.9261   -0.5562    0.0079 H         1 <0>         0.1347
     31 H7          2.3988   -3.7390   -0.1298 H         1 <0>         0.1239
     32 H8          2.5703   -2.5889   -1.4813 H         1 <0>         0.0772
     33 H9          4.8657   -3.7223    0.1066 H         1 <0>         0.0976
     34 H10         5.1017   -2.4704   -1.1365 H         1 <0>         0.0458
     35 H11         7.2651   -3.7459    0.5383 H         1 <0>         0.0879
     36 H12         7.5011   -2.4940   -0.7048 H         1 <0>         0.0391
     37 H13         9.6915   -3.7565    0.9193 H         1 <0>         0.0757
     38 H14         9.9979   -2.4193   -0.2149 H         1 <0>         0.0678
     39 H15        11.4840   -3.8886   -0.1644 H         1 <0>         0.1358
     40 H16        13.7712   -4.7217   -0.5289 H         1 <0>         0.1332
     41 H17        15.6117   -3.9413    0.9060 H         1 <0>         0.1361
     42 H18        15.1712   -2.3255    2.7097 H         1 <0>         0.1438
     43 H19         8.6341   -0.4046    0.0280 H         1 <0>         0.3723
     44 H20         6.0398   -1.0661    0.6113 H         1 <0>         0.3603
@<TRIPOS>BOND
     1    1    6 ar
     2    1    2 ar
     3    1   27 1
     4    2    3 ar
     5    2   28 1
     6    3    4 ar
     7    3   29 1
     8    4   11 1
     9    4    5 ar
    10    5    6 ar
    11    5    7 1
    12    6   30 1
    13    7    8 1
    14    8    9 1
    15    8   31 1
    16    8   32 1
    17    9   10 1
    18    9   11 1
    19    9   12 1
    20   12   13 1
    21   12   33 1
    22   12   34 1
    23   13   14 1
    24   13   44 1
    25   14   15 1
    26   14   35 1
    27   14   36 1
    28   15   16 1
    29   15   17 1
    30   15   26 1
    31   17   18 1
    32   17   37 1
    33   17   38 1
    34   18   19 1
    35   19   24 ar
    36   19   20 ar
    37   20   21 ar
    38   20   39 1
    39   21   22 ar
    40   21   40 1
    41   22   23 ar
    42   22   41 1
    43   23   24 ar
    44   23   42 1
    45   24   25 1
    46   26   43 1
@<TRIPOS>MOLECULE
ZINC07653967
   45    47     0     0     0
SMALL
USER_CHARGES

@<TRIPOS>ATOM
      1 C1         -0.0167    1.3777    0.0096 C.ar      1 <0>        -0.0982
      2 C2          1.1697    2.0876    0.0021 C.ar      1 <0>        -0.1086
      3 C3          2.3784    1.4177   -0.0116 C.ar      1 <0>        -0.1046
      4 C4          2.4042    0.0310   -0.0192 C.ar      1 <0>         0.0371
      5 C5          1.2117   -0.6826   -0.0141 C.ar      1 <0>         0.0505
      6 C6          0.0021   -0.0041    0.0020 C.ar      1 <0>        -0.1080
      7 O1          1.2143   -2.0435   -0.0292 O.3       1 <0>        -0.2930
      8 C7          2.4407   -2.6888    0.3305 C.3       1 <0>         0.0340
      9 C8          3.5869   -1.9932   -0.4162 C.3       1 <0>         0.0186
     10 H1          3.4262   -2.0716   -1.4914 H         1 <0>         0.1100
     11 O2          3.6023   -0.6148   -0.0295 O.3       1 <0>        -0.3182
     12 C9          4.9182   -2.6493   -0.0444 C.3       1 <0>         0.0069
     13 N1          6.0113   -1.9797   -0.7618 N.4       1 <0>        -0.5026
     14 C10         7.2895   -2.6096   -0.4048 C.3       1 <0>        -0.0420
     15 C11         8.4280   -1.9122   -1.1520 C.3       1 <0>         0.0856
     16 H2          8.2214   -1.9243   -2.2222 H         1 <0>         0.1362
     17 C12         9.7425   -2.6456   -0.8780 C.3       1 <0>         0.0290
     18 O3         10.7843   -2.0665   -1.6661 O.3       1 <0>        -0.2950
     19 C13        12.0260   -2.6058   -1.5402 C.ar      1 <0>         0.0843
     20 C14        12.2356   -3.6735   -0.6807 C.ar      1 <0>        -0.1824
     21 C15        13.4983   -4.2202   -0.5542 C.ar      1 <0>        -0.0890
     22 C16        14.5536   -3.7038   -1.2832 C.ar      1 <0>        -0.1166
     23 C17        14.3491   -2.6390   -2.1410 C.ar      1 <0>        -0.1127
     24 C18        13.0858   -2.0920   -2.2766 C.ar      1 <0>         0.0778
     25 F1         12.8844   -1.0554   -3.1192 F         1 <0>        -0.1285
     26 O4          8.5345   -0.5598   -0.7027 O.3       1 <0>        -0.5405
     27 H3         -0.9596    1.9040    0.0259 H         1 <0>         0.1417
     28 H4          1.1518    3.1674    0.0066 H         1 <0>         0.1411
     29 H5          3.3037    1.9746   -0.0169 H         1 <0>         0.1380
     30 H6         -0.9261   -0.5562    0.0086 H         1 <0>         0.1423
     31 H7          2.5984   -2.6053    1.4058 H         1 <0>         0.0890
     32 H8          2.4005   -3.7400    0.0450 H         1 <0>         0.1320
     33 H9          5.0799   -2.5596    1.0298 H         1 <0>         0.1465
     34 H10         4.8937   -3.7032   -0.3214 H         1 <0>         0.1572
     35 H11         5.8615   -2.0627   -1.7562 H         1 <0>         0.4322
     36 H12         7.4512   -2.5199    0.6694 H         1 <0>         0.1428
     37 H13         7.2650   -3.6635   -0.6818 H         1 <0>         0.1492
     38 H14         9.9944   -2.5573    0.1788 H         1 <0>         0.0795
     39 H15         9.6323   -3.6983   -1.1385 H         1 <0>         0.0838
     40 H16        11.4124   -4.0775   -0.1102 H         1 <0>         0.1342
     41 H17        13.6613   -5.0519    0.1153 H         1 <0>         0.1371
     42 H18        15.5395   -4.1329   -1.1821 H         1 <0>         0.1412
     43 H19        15.1752   -2.2370   -2.7087 H         1 <0>         0.1487
     44 H20         8.7182   -0.4727    0.2427 H         1 <0>         0.3910
     45 H21         6.0339   -1.0041   -0.5054 H         1 <0>         0.4423
@<TRIPOS>BOND
     1    1    6 ar
     2    1    2 ar
     3    1   27 1
     4    2    3 ar
     5    2   28 1
     6    3    4 ar
     7    3   29 1
     8    4   11 1
     9    4    5 ar
    10    5    6 ar
    11    5    7 1
    12    6   30 1
    13    7    8 1
    14    8    9 1
    15    8   31 1
    16    8   32 1
    17    9   10 1
    18    9   11 1
    19    9   12 1
    20   12   13 1
    21   12   33 1
    22   12   34 1
    23   13   14 1
    24   13   35 1
    25   13   45 1
    26   14   15 1
    27   14   36 1
    28   14   37 1
    29   15   16 1
    30   15   17 1
    31   15   26 1
    32   17   18 1
    33   17   38 1
    34   17   39 1
    35   18   19 1
    36   19   24 ar
    37   19   20 ar
    38   20   21 ar
    39   20   40 1
    40   21   22 ar
    41   21   41 1
    42   22   23 ar
    43   22   42 1
    44   23   24 ar
    45   23   43 1
    46   24   25 1
    47   26   44 1
@<TRIPOS>MOLECULE
ZINC07653967
   44    46     0     0     0
SMALL
USER_CHARGES

@<TRIPOS>ATOM
      1 C1         -0.0167    1.3777    0.0096 C.ar      1 <0>        -0.1178
      2 C2          1.1697    2.0876    0.0021 C.ar      1 <0>        -0.1143
      3 C3          2.3784    1.4177   -0.0116 C.ar      1 <0>        -0.1127
      4 C4          2.4042    0.0310   -0.0192 C.ar      1 <0>         0.0524
      5 C5          1.2117   -0.6826   -0.0141 C.ar      1 <0>         0.0422
      6 C6          0.0021   -0.0041    0.0020 C.ar      1 <0>        -0.1137
      7 O1          1.2143   -2.0435   -0.0292 O.3       1 <0>        -0.3056
      8 C7          2.4407   -2.6888    0.3305 C.3       1 <0>         0.0270
      9 C8          3.5869   -1.9932   -0.4162 C.3       1 <0>         0.0550
     10 H1          3.4262   -2.0716   -1.4914 H         1 <0>         0.0837
     11 O2          3.6023   -0.6148   -0.0295 O.3       1 <0>        -0.2838
     12 C9          4.9182   -2.6493   -0.0444 C.3       1 <0>         0.0688
     13 N1          6.0113   -1.9797   -0.7618 N.3       1 <0>        -0.6699
     14 C10         7.3079   -2.5845   -0.4286 C.3       1 <0>         0.0313
     15 C11         8.4191   -1.8622   -1.1931 C.3       1 <0>         0.1149
     16 H2          8.1944   -1.8757   -2.2596 H         1 <0>         0.1090
     17 C12         9.7526   -2.5695   -0.9438 C.3       1 <0>         0.0264
     18 O3         10.7689   -1.9673   -1.7479 O.3       1 <0>        -0.2948
     19 C13        12.0231   -2.4817   -1.6449 C.ar      1 <0>         0.0961
     20 C14        12.2690   -3.5472   -0.7923 C.ar      1 <0>        -0.1852
     21 C15        13.5446   -4.0685   -0.6890 C.ar      1 <0>        -0.0894
     22 C16        14.5765   -3.5289   -1.4344 C.ar      1 <0>        -0.1283
     23 C17        14.3359   -2.4662   -2.2854 C.ar      1 <0>        -0.1154
     24 C18        13.0596   -1.9446   -2.3978 C.ar      1 <0>         0.0700
     25 F1         12.8228   -0.9100   -3.2338 F         1 <0>        -0.1302
     26 O4          8.5059   -0.5091   -0.7417 O.3       1 <0>        -0.5349
     27 H3         -0.9596    1.9040    0.0259 H         1 <0>         0.1323
     28 H4          1.1518    3.1674    0.0066 H         1 <0>         0.1326
     29 H5          3.3037    1.9746   -0.0169 H         1 <0>         0.1359
     30 H6         -0.9261   -0.5562    0.0086 H         1 <0>         0.1336
     31 H7          2.5984   -2.6053    1.4058 H         1 <0>         0.0792
     32 H8          2.4005   -3.7400    0.0450 H         1 <0>         0.1213
     33 H9          5.0799   -2.5596    1.0298 H         1 <0>         0.0880
     34 H10         4.8937   -3.7032   -0.3214 H         1 <0>         0.0570
     35 H11         7.4862   -2.4944    0.6429 H         1 <0>         0.0828
     36 H12         7.3000   -3.6380   -0.7083 H         1 <0>         0.0440
     37 H13        10.0208   -2.4789    0.1088 H         1 <0>         0.0699
     38 H14         9.6593   -3.6235   -1.2055 H         1 <0>         0.0729
     39 H15        11.4641   -3.9692   -0.2089 H         1 <0>         0.1358
     40 H16        13.7358   -4.8984   -0.0249 H         1 <0>         0.1332
     41 H17        15.5725   -3.9381   -1.3514 H         1 <0>         0.1360
     42 H18        15.1438   -2.0460   -2.8660 H         1 <0>         0.1438
     43 H19         8.7040   -0.4208    0.2006 H         1 <0>         0.3741
     44 H20         5.8515   -1.9928   -1.7580 H         1 <0>         0.3466
@<TRIPOS>BOND
     1    1    6 ar
     2    1    2 ar
     3    1   27 1
     4    2    3 ar
     5    2   28 1
     6    3    4 ar
     7    3   29 1
     8    4   11 1
     9    4    5 ar
    10    5    6 ar
    11    5    7 1
    12    6   30 1
    13    7    8 1
    14    8    9 1
    15    8   31 1
    16    8   32 1
    17    9   10 1
    18    9   11 1
    19    9   12 1
    20   12   13 1
    21   12   33 1
    22   12   34 1
    23   13   14 1
    24   13   44 1
    25   14   15 1
    26   14   35 1
    27   14   36 1
    28   15   16 1
    29   15   17 1
    30   15   26 1
    31   17   18 1
    32   17   37 1
    33   17   38 1
    34   18   19 1
    35   19   24 ar
    36   19   20 ar
    37   20   21 ar
    38   20   39 1
    39   21   22 ar
    40   21   40 1
    41   22   23 ar
    42   22   41 1
    43   23   24 ar
    44   23   42 1
    45   24   25 1
    46   26   43 1
@<TRIPOS>MOLECULE
ZINC07653971
   45    47     0     0     0
SMALL
USER_CHARGES

@<TRIPOS>ATOM
      1 C1         -0.0167    1.3777    0.0096 C.ar      1 <0>        -0.0983
      2 C2          1.1697    2.0876    0.0021 C.ar      1 <0>        -0.1085
      3 C3          2.3783    1.4178   -0.0143 C.ar      1 <0>        -0.1049
      4 C4          2.4042    0.0310   -0.0230 C.ar      1 <0>         0.0368
      5 C5          1.2117   -0.6826   -0.0129 C.ar      1 <0>         0.0504
      6 C6          0.0021   -0.0041    0.0020 C.ar      1 <0>        -0.1079
      7 O1          1.2145   -2.0436   -0.0133 O.3       1 <0>        -0.2932
      8 C7          2.4336   -2.6847   -0.4041 C.3       1 <0>         0.0340
      9 C8          3.5941   -1.9974    0.3280 C.3       1 <0>         0.0190
     10 H1          3.4543   -2.0880    1.4052 H         1 <0>         0.1093
     11 O2          3.6022   -0.6147   -0.0433 O.3       1 <0>        -0.3168
     12 C9          4.9178   -2.6491   -0.0771 C.3       1 <0>         0.0063
     13 N1          6.0113   -2.0694    0.7143 N.4       1 <0>        -0.5030
     14 C10         7.2823   -2.6951    0.3254 C.3       1 <0>        -0.0416
     15 C11         8.4212   -2.0914    1.1496 C.3       1 <0>         0.0855
     16 H2          8.4174   -1.0074    1.0352 H         1 <0>         0.1366
     17 C12         9.7579   -2.6514    0.6594 C.3       1 <0>         0.0291
     18 O3         10.8280   -2.0020    1.3488 O.3       1 <0>        -0.2950
     19 C13        12.0921   -2.3864    1.0282 C.ar      1 <0>         0.0843
     20 C14        12.2980   -3.3638    0.0665 C.ar      1 <0>        -0.1824
     21 C15        13.5836   -3.7531   -0.2578 C.ar      1 <0>        -0.0890
     22 C16        14.6653   -3.1697    0.3758 C.ar      1 <0>        -0.1166
     23 C17        14.4644   -2.1952    1.3357 C.ar      1 <0>        -0.1127
     24 C18        13.1799   -1.7968    1.6596 C.ar      1 <0>         0.0778
     25 F1         12.9834   -0.8402    2.5931 F         1 <0>        -0.1285
     26 O4          8.2412   -2.4256    2.5273 O.3       1 <0>        -0.5410
     27 H3         -0.9596    1.9040    0.0259 H         1 <0>         0.1417
     28 H4          1.1518    3.1674    0.0087 H         1 <0>         0.1410
     29 H5          3.3037    1.9746   -0.0208 H         1 <0>         0.1377
     30 H6         -0.9261   -0.5562    0.0079 H         1 <0>         0.1423
     31 H7          2.3988   -3.7390   -0.1298 H         1 <0>         0.1318
     32 H8          2.5703   -2.5889   -1.4813 H         1 <0>         0.0894
     33 H9          4.8657   -3.7223    0.1066 H         1 <0>         0.1568
     34 H10         5.1017   -2.4704   -1.1365 H         1 <0>         0.1480
     35 H11         6.0596   -1.0761    0.5442 H         1 <0>         0.4386
     36 H12         7.2301   -3.7683    0.5091 H         1 <0>         0.1433
     37 H13         7.4661   -2.5164   -0.7340 H         1 <0>         0.1492
     38 H14         9.7968   -3.7229    0.8553 H         1 <0>         0.0795
     39 H15         9.8552   -2.4742   -0.4117 H         1 <0>         0.0840
     40 H16        11.4541   -3.8208   -0.4287 H         1 <0>         0.1342
     41 H17        13.7437   -4.5143   -1.0070 H         1 <0>         0.1371
     42 H18        15.6689   -3.4762    0.1206 H         1 <0>         0.1412
     43 H19        15.3109   -1.7415    1.8296 H         1 <0>         0.1487
     44 H20         8.2342   -3.3763    2.7037 H         1 <0>         0.3905
     45 H21         5.8412   -2.2349    1.6950 H         1 <0>         0.4353
@<TRIPOS>BOND
     1    1    6 ar
     2    1    2 ar
     3    1   27 1
     4    2    3 ar
     5    2   28 1
     6    3    4 ar
     7    3   29 1
     8    4   11 1
     9    4    5 ar
    10    5    6 ar
    11    5    7 1
    12    6   30 1
    13    7    8 1
    14    8    9 1
    15    8   31 1
    16    8   32 1
    17    9   10 1
    18    9   11 1
    19    9   12 1
    20   12   13 1
    21   12   33 1
    22   12   34 1
    23   13   14 1
    24   13   35 1
    25   13   45 1
    26   14   15 1
    27   14   36 1
    28   14   37 1
    29   15   16 1
    30   15   17 1
    31   15   26 1
    32   17   18 1
    33   17   38 1
    34   17   39 1
    35   18   19 1
    36   19   24 ar
    37   19   20 ar
    38   20   21 ar
    39   20   40 1
    40   21   22 ar
    41   21   41 1
    42   22   23 ar
    43   22   42 1
    44   23   24 ar
    45   23   43 1
    46   24   25 1
    47   26   44 1
@<TRIPOS>MOLECULE
ZINC07653971
   44    46     0     0     0
SMALL
USER_CHARGES

@<TRIPOS>ATOM
      1 C1         -0.0167    1.3777    0.0096 C.ar      1 <0>        -0.1156
      2 C2          1.1697    2.0876    0.0021 C.ar      1 <0>        -0.1147
      3 C3          2.3783    1.4178   -0.0143 C.ar      1 <0>        -0.1140
      4 C4          2.4042    0.0310   -0.0230 C.ar      1 <0>         0.0539
      5 C5          1.2117   -0.6826   -0.0129 C.ar      1 <0>         0.0469
      6 C6          0.0021   -0.0041    0.0020 C.ar      1 <0>        -0.1135
      7 O1          1.2145   -2.0436   -0.0133 O.3       1 <0>        -0.3045
      8 C7          2.4336   -2.6847   -0.4041 C.3       1 <0>         0.0280
      9 C8          3.5941   -1.9974    0.3280 C.3       1 <0>         0.0526
     10 H1          3.4543   -2.0880    1.4052 H         1 <0>         0.0973
     11 O2          3.6022   -0.6147   -0.0433 O.3       1 <0>        -0.3069
     12 C9          4.9178   -2.6491   -0.0771 C.3       1 <0>         0.0708
     13 N1          6.0113   -2.0694    0.7143 N.3       1 <0>        -0.6764
     14 C10         7.3008   -2.6726    0.3516 C.3       1 <0>         0.0304
     15 C11         8.4125   -2.0450    1.1948 C.3       1 <0>         0.1144
     16 H2          8.3908   -0.9616    1.0763 H         1 <0>         0.1098
     17 C12         9.7685   -2.5816    0.7317 C.3       1 <0>         0.0266
     18 O3         10.8131   -1.9100    1.4386 O.3       1 <0>        -0.2949
     19 C13        12.0899   -2.2718    1.1433 C.ar      1 <0>         0.0960
     20 C14        12.3321   -3.2484    0.1891 C.ar      1 <0>        -0.1852
     21 C15        13.6306   -3.6147   -0.1095 C.ar      1 <0>        -0.0895
     22 C16        14.6891   -3.0091    0.5420 C.ar      1 <0>        -0.1282
     23 C17        14.4521   -2.0353    1.4944 C.ar      1 <0>        -0.1154
     24 C18        13.1545   -1.6599    1.7926 C.ar      1 <0>         0.0700
     25 F1         12.9228   -0.7040    2.7188 F         1 <0>        -0.1302
     26 O4          8.2130   -2.3778    2.5700 O.3       1 <0>        -0.5358
     27 H3         -0.9596    1.9040    0.0259 H         1 <0>         0.1332
     28 H4          1.1518    3.1674    0.0087 H         1 <0>         0.1331
     29 H5          3.3037    1.9746   -0.0208 H         1 <0>         0.1344
     30 H6         -0.9261   -0.5562    0.0079 H         1 <0>         0.1348
     31 H7          2.3988   -3.7390   -0.1298 H         1 <0>         0.1238
     32 H8          2.5703   -2.5889   -1.4813 H         1 <0>         0.0772
     33 H9          4.8657   -3.7223    0.1066 H         1 <0>         0.0974
     34 H10         5.1017   -2.4704   -1.1365 H         1 <0>         0.0458
     35 H11         7.2651   -3.7459    0.5383 H         1 <0>         0.0826
     36 H12         7.5011   -2.4940   -0.7048 H         1 <0>         0.0453
     37 H13         9.8235   -3.6515    0.9324 H         1 <0>         0.0699
     38 H14         9.8826   -2.4061   -0.3380 H         1 <0>         0.0733
     39 H15        11.5062   -3.7227   -0.3201 H         1 <0>         0.1358
     40 H16        13.8189   -4.3753   -0.8527 H         1 <0>         0.1332
     41 H17        15.7029   -3.2977    0.3068 H         1 <0>         0.1361
     42 H18        15.2806   -1.5643    2.0024 H         1 <0>         0.1438
     43 H19         8.2203   -3.3279    2.7499 H         1 <0>         0.3737
     44 H20         6.0398   -1.0661    0.6113 H         1 <0>         0.3544
@<TRIPOS>BOND
     1    1    6 ar
     2    1    2 ar
     3    1   27 1
     4    2    3 ar
     5    2   28 1
     6    3    4 ar
     7    3   29 1
     8    4   11 1
     9    4    5 ar
    10    5    6 ar
    11    5    7 1
    12    6   30 1
    13    7    8 1
    14    8    9 1
    15    8   31 1
    16    8   32 1
    17    9   10 1
    18    9   11 1
    19    9   12 1
    20   12   13 1
    21   12   33 1
    22   12   34 1
    23   13   14 1
    24   13   44 1
    25   14   15 1
    26   14   35 1
    27   14   36 1
    28   15   16 1
    29   15   17 1
    30   15   26 1
    31   17   18 1
    32   17   37 1
    33   17   38 1
    34   18   19 1
    35   19   24 ar
    36   19   20 ar
    37   20   21 ar
    38   20   39 1
    39   21   22 ar
    40   21   40 1
    41   22   23 ar
    42   22   41 1
    43   23   24 ar
    44   23   42 1
    45   24   25 1
    46   26   43 1
@<TRIPOS>MOLECULE
ZINC02654726
   48    50     0     0     0
SMALL
USER_CHARGES
1-[(2-chlorophenyl)methoxy]-3-(7,10-dioxabicyclo[4.4.0]deca-2,4,11-trien-8-ylmethylamino)propan-2-ol
@<TRIPOS>ATOM
      1 C1         -4.0314    9.8568   -5.1543 C.ar      1 <0>        -0.1144
      2 C2         -4.3236   11.2061   -5.2298 C.ar      1 <0>        -0.1013
      3 C3         -3.8598   12.0694   -4.2555 C.ar      1 <0>        -0.1062
      4 C4         -3.1032   11.5832   -3.2039 C.ar      1 <0>        -0.0322
      5 C5         -2.8115   10.2331   -3.1286 C.ar      1 <0>        -0.0906
      6 C6         -3.2716    9.3713   -4.1066 C.ar      1 <0>        -0.0862
      7 C7         -1.9871    9.7028   -1.9840 C.3       1 <0>         0.1075
      8 O1         -1.8242    8.2905   -2.1285 O.3       1 <0>        -0.3692
      9 C8         -1.0531    7.6850   -1.0888 C.3       1 <0>         0.0325
     10 C9         -0.9444    6.1805   -1.3447 C.3       1 <0>         0.0855
     11 H1         -0.5391    6.0099   -2.3421 H         1 <0>         0.1328
     12 C10        -0.0169    5.5517   -0.3029 C.3       1 <0>        -0.0393
     13 C11         1.0701    3.4930    0.3626 C.3       1 <0>         0.0110
     14 C12         1.2537    2.0178    0.0009 C.3       1 <0>         0.0187
     15 H2          1.7047    1.9345   -0.9879 H         1 <0>         0.1099
     16 C13         2.1559    1.3384    1.0402 C.3       1 <0>         0.0336
     17 O2          2.2957   -0.0400    0.6790 O.3       1 <0>        -0.2933
     18 C14         1.1559   -0.7016    0.3389 C.ar      1 <0>         0.0504
     19 C15         1.1513   -2.0886    0.3283 C.ar      1 <0>        -0.1081
     20 C16         0.0027   -2.7745   -0.0185 C.ar      1 <0>        -0.0985
     21 C17        -1.1444   -2.0806   -0.3558 C.ar      1 <0>        -0.1087
     22 C18        -1.1469   -0.6986   -0.3462 C.ar      1 <0>        -0.1048
     23 C19         0.0021   -0.0041    0.0020 C.ar      1 <0>         0.0376
     24 O3         -0.0164    1.3569    0.0095 O.3       1 <0>        -0.3187
     25 O4         -2.2404    5.5862   -1.2492 O.3       1 <0>        -0.5428
     26 Cl1        -2.5197   12.6672   -1.9799 Cl        1 <0>        -0.0648
     27 H3         -4.3935    9.1826   -5.9163 H         1 <0>         0.1326
     28 H4         -4.9141   11.5855   -6.0506 H         1 <0>         0.1366
     29 H5         -4.0875   13.1235   -4.3150 H         1 <0>         0.1389
     30 H6         -3.0402    8.3179   -4.0503 H         1 <0>         0.1392
     31 H7         -2.4934    9.9157   -1.0424 H         1 <0>         0.0724
     32 H8         -1.0089   10.1837   -1.9873 H         1 <0>         0.0723
     33 H9         -1.5399    7.8560   -0.1287 H         1 <0>         0.0670
     34 H10        -0.0555    8.1240   -1.0737 H         1 <0>         0.0713
     35 H11        -0.4657    5.6443    0.6861 H         1 <0>         0.1400
     36 H12         0.9444    6.0652   -0.3152 H         1 <0>         0.1465
     37 H13         0.6289    3.5714    1.3562 H         1 <0>         0.1449
     38 H14         2.0390    3.9923    0.3549 H         1 <0>         0.1557
     39 H15         1.7018    1.4154    2.0281 H         1 <0>         0.0888
     40 H16         3.1349    1.8176    1.0473 H         1 <0>         0.1319
     41 H17         2.0462   -2.6331    0.5910 H         1 <0>         0.1422
     42 H18         0.0012   -3.8545   -0.0257 H         1 <0>         0.1416
     43 H19        -2.0401   -2.6194   -0.6276 H         1 <0>         0.1409
     44 H20        -2.0444   -0.1589   -0.6100 H         1 <0>         0.1379
     45 H21        -2.6623    5.6991   -0.3864 H         1 <0>         0.3899
     46 N1          0.1783    4.1260   -0.6273 N.4       1 <0>        -0.5129
     47 H22         0.5975    4.0454   -1.5612 H         1 <0>         0.4356
     48 H23        -0.7309    3.6489   -0.6180 H         1 <0>         0.4463
@<TRIPOS>BOND
     1    1    6 ar
     2    1    2 ar
     3    1   27 1
     4    2    3 ar
     5    2   28 1
     6    3    4 ar
     7    3   29 1
     8    4    5 ar
     9    4   26 1
    10    5    6 ar
    11    5    7 1
    12    6   30 1
    13    7    8 1
    14    7   31 1
    15    7   32 1
    16    8    9 1
    17    9   10 1
    18    9   33 1
    19    9   34 1
    20   10   11 1
    21   10   12 1
    22   10   25 1
    23   12   35 1
    24   12   36 1
    25   12   46 1
    26   13   14 1
    27   13   37 1
    28   13   38 1
    29   13   46 1
    30   14   15 1
    31   14   24 1
    32   14   16 1
    33   16   17 1
    34   16   39 1
    35   16   40 1
    36   17   18 1
    37   18   23 ar
    38   18   19 ar
    39   19   20 ar
    40   19   41 1
    41   20   21 ar
    42   20   42 1
    43   21   22 ar
    44   21   43 1
    45   22   23 ar
    46   22   44 1
    47   23   24 1
    48   25   45 1
    49   46   47 1
    50   46   48 1
@<TRIPOS>MOLECULE
ZINC02654727
   48    50     0     0     0
SMALL
USER_CHARGES
1-[(2-chlorophenyl)methoxy]-3-(7,10-dioxabicyclo[4.4.0]deca-2,4,11-trien-8-ylmethylamino)propan-2-ol
@<TRIPOS>ATOM
      1 C1          2.3773    1.4115   -0.0126 C.ar      1 <0>        -0.1144
      2 C2          2.3967    0.0290   -0.0207 C.ar      1 <0>        -0.1013
      3 C3          1.2100   -0.6790   -0.0131 C.ar      1 <0>        -0.1062
      4 C4          0.0021   -0.0041    0.0020 C.ar      1 <0>        -0.0322
      5 C5         -0.0167    1.3791    0.0096 C.ar      1 <0>        -0.0907
      6 C6          1.1711    2.0862    0.0021 C.ar      1 <0>        -0.0862
      7 C7         -1.3318    2.1149    0.0198 C.3       1 <0>         0.1076
      8 O1         -1.0896    3.5232    0.0263 O.3       1 <0>        -0.3692
      9 C8         -2.2776    4.3173    0.0363 C.3       1 <0>         0.0327
     10 C9         -1.9001    5.7999    0.0426 C.3       1 <0>         0.0852
     11 H1         -1.2352    6.0020    0.8823 H         1 <0>         0.1341
     12 C10        -3.1662    6.6481    0.1789 C.3       1 <0>        -0.0392
     13 C11        -3.9971    8.9182    0.3147 C.3       1 <0>         0.0110
     14 C12        -3.5803   10.3904    0.3171 C.3       1 <0>         0.0191
     15 H2         -3.0770   10.6314   -0.6192 H         1 <0>         0.1099
     16 C13        -4.8205   11.2791    0.4827 C.3       1 <0>         0.0337
     17 O2         -4.3940   12.6458    0.4943 O.3       1 <0>        -0.2932
     18 C14        -3.3230   12.9454    1.2789 C.ar      1 <0>         0.0506
     19 C15        -3.0785   14.2672    1.6210 C.ar      1 <0>        -0.1079
     20 C16        -1.9929   14.5877    2.4138 C.ar      1 <0>        -0.0984
     21 C17        -1.1479   13.5922    2.8682 C.ar      1 <0>        -0.1087
     22 C18        -1.3867   12.2732    2.5322 C.ar      1 <0>        -0.1051
     23 C19        -2.4749   11.9445    1.7375 C.ar      1 <0>         0.0376
     24 O3         -2.6990   10.6408    1.4174 O.3       1 <0>        -0.3193
     25 O4         -1.2365    6.1277   -1.1799 O.3       1 <0>        -0.5439
     26 Cl1        -1.4892   -0.8928    0.0109 Cl        1 <0>        -0.0648
     27 H3          3.3051    1.9644   -0.0185 H         1 <0>         0.1326
     28 H4          3.3395   -0.4977   -0.0325 H         1 <0>         0.1366
     29 H5          1.2252   -1.7589   -0.0194 H         1 <0>         0.1389
     30 H6          1.1566    3.1661    0.0077 H         1 <0>         0.1392
     31 H7         -1.9040    1.8488   -0.8689 H         1 <0>         0.0724
     32 H8         -1.8956    1.8391    0.9110 H         1 <0>         0.0724
     33 H9         -2.8694    4.0968   -0.8521 H         1 <0>         0.0667
     34 H10        -2.8610    4.0871    0.9278 H         1 <0>         0.0718
     35 H11        -3.8310    6.4460   -0.6609 H         1 <0>         0.1399
     36 H12        -3.6723    6.3981    1.1113 H         1 <0>         0.1468
     37 H13        -4.6677    8.7319   -0.5242 H         1 <0>         0.1551
     38 H14        -4.5090    8.6840    1.2480 H         1 <0>         0.1454
     39 H15        -5.5046   11.1144   -0.3498 H         1 <0>         0.1319
     40 H16        -5.3199   11.0421    1.4221 H         1 <0>         0.0890
     41 H17        -3.7370   15.0467    1.2672 H         1 <0>         0.1423
     42 H18        -1.8044   15.6175    2.6792 H         1 <0>         0.1416
     43 H19        -0.2998   13.8459    3.4868 H         1 <0>         0.1409
     44 H20        -0.7254   11.4974    2.8889 H         1 <0>         0.1376
     45 H21        -1.7704    5.9726   -1.9711 H         1 <0>         0.3888
     46 N1         -2.7937    8.0753    0.1841 N.4       1 <0>        -0.5121
     47 H22        -2.3142    8.3034   -0.6947 H         1 <0>         0.4385
     48 H23        -2.1646    8.2583    0.9747 H         1 <0>         0.4430
@<TRIPOS>BOND
     1    1    6 ar
     2    1    2 ar
     3    1   27 1
     4    2    3 ar
     5    2   28 1
     6    3    4 ar
     7    3   29 1
     8    4    5 ar
     9    4   26 1
    10    5    6 ar
    11    5    7 1
    12    6   30 1
    13    7    8 1
    14    7   31 1
    15    7   32 1
    16    8    9 1
    17    9   10 1
    18    9   33 1
    19    9   34 1
    20   10   11 1
    21   10   12 1
    22   10   25 1
    23   12   35 1
    24   12   36 1
    25   12   46 1
    26   13   14 1
    27   13   37 1
    28   13   38 1
    29   13   46 1
    30   14   15 1
    31   14   24 1
    32   14   16 1
    33   16   17 1
    34   16   39 1
    35   16   40 1
    36   17   18 1
    37   18   23 ar
    38   18   19 ar
    39   19   20 ar
    40   19   41 1
    41   20   21 ar
    42   20   42 1
    43   21   22 ar
    44   21   43 1
    45   22   23 ar
    46   22   44 1
    47   23   24 1
    48   25   45 1
    49   46   47 1
    50   46   48 1
@<TRIPOS>MOLECULE
ZINC02654728
   48    50     0     0     0
SMALL
USER_CHARGES
(2R)-1-[(2-chlorophenyl)methoxy]-3-[[(3R)-2,3-dihydro-1,4-benzodioxin-3-yl]methylamino]propan-2-ol
@<TRIPOS>ATOM
      1 C1         -0.0590    4.4966    0.0253 C.ar      1 <0>        -0.1149
      2 C2          1.1478    3.8219    0.0111 C.ar      1 <0>        -0.1021
      3 C3          1.1672    2.4401    0.0040 C.ar      1 <0>        -0.1061
      4 C4         -0.0215    1.7317    0.0116 C.ar      1 <0>        -0.0322
      5 C5         -1.2285    2.4073    0.0209 C.ar      1 <0>        -0.0887
      6 C6         -1.2466    3.7895    0.0329 C.ar      1 <0>        -0.0862
      7 C7         -2.5236    1.6366    0.0234 C.3       1 <0>         0.1053
      8 O1         -3.6219    2.5507    0.0334 O.3       1 <0>        -0.3708
      9 C8         -4.9037    1.9192    0.0365 C.3       1 <0>         0.0668
     10 C9         -5.9987    2.9877    0.0473 C.3       1 <0>         0.0976
     11 H1         -5.8435    3.7259   -0.7533 H         1 <0>         0.0899
     12 C10        -7.3680    2.3160   -0.0751 C.3       1 <0>        -0.0379
     13 N1         -8.4102    3.3454   -0.1851 N.4       1 <0>        -0.5376
     14 C11        -9.7415    2.7360   -0.3046 C.3       1 <0>         0.0103
     15 C12       -10.7981    3.8368   -0.4168 C.3       1 <0>         0.0217
     16 H2        -10.6872    4.5600    0.4046 H         1 <0>         0.1086
     17 C13       -12.1982    3.2091   -0.4465 C.3       1 <0>         0.0328
     18 O2        -13.1595    4.2635   -0.5652 O.3       1 <0>        -0.2928
     19 C14       -12.9038    5.2220   -1.4970 C.ar      1 <0>         0.0502
     20 C15       -13.9308    6.0543   -1.9169 C.ar      1 <0>        -0.1078
     21 C16       -13.6860    7.0347   -2.8596 C.ar      1 <0>        -0.0987
     22 C17       -12.4172    7.1886   -3.3868 C.ar      1 <0>        -0.1087
     23 C18       -11.3898    6.3618   -2.9738 C.ar      1 <0>        -0.1059
     24 C19       -11.6289    5.3752   -2.0286 C.ar      1 <0>         0.0381
     25 O3        -10.6078    4.5664   -1.6339 O.3       1 <0>        -0.3231
     26 O4         -5.9360    3.7216    1.2718 O.3       1 <0>        -0.5679
     27 Cl1         0.0021   -0.0041    0.0020 Cl        1 <0>        -0.0645
     28 H3         -0.0736    5.5765    0.0302 H         1 <0>         0.1321
     29 H4          2.0755    4.3749    0.0053 H         1 <0>         0.1364
     30 H5          2.1099    1.9132   -0.0078 H         1 <0>         0.1388
     31 H6         -2.1889    4.3171    0.0436 H         1 <0>         0.1381
     32 H7         -2.5779    1.0080   -0.8777 H         1 <0>         0.0731
     33 H8         -2.5691    0.9989    0.9186 H         1 <0>         0.0739
     34 H9         -5.0079    1.2966   -0.8643 H         1 <0>         0.0781
     35 H10        -4.9991    1.2874    0.9319 H         1 <0>         0.0716
     36 H11        -7.3852    1.6794   -0.9720 H         1 <0>         0.1436
     37 H12        -7.5547    1.6989    0.8162 H         1 <0>         0.1440
     38 H13        -8.3929    3.9820    0.7118 H         1 <0>         0.4460
     39 H14        -9.7754    2.1023   -1.2031 H         1 <0>         0.1456
     40 H15        -9.9449    2.1219    0.5851 H         1 <0>         0.1545
     41 H16       -12.2765    2.5279   -1.3067 H         1 <0>         0.0909
     42 H17       -12.3676    2.6464    0.4834 H         1 <0>         0.1334
     43 H18       -14.9228    5.9363   -1.5065 H         1 <0>         0.1422
     44 H19       -14.4870    7.6821   -3.1847 H         1 <0>         0.1415
     45 H20       -12.2286    7.9563   -4.1226 H         1 <0>         0.1406
     46 H21       -10.3995    6.4842   -3.3871 H         1 <0>         0.1371
     47 H22        -6.6498    4.5367    1.4616 H         1 <0>         0.4024
     48 H23        -8.2235    3.9625   -1.0763 H         1 <0>         0.4608
@<TRIPOS>BOND
     1    1    6 ar
     2    1    2 ar
     3    1   28 1
     4    2    3 ar
     5    2   29 1
     6    3    4 ar
     7    3   30 1
     8    4    5 ar
     9    4   27 1
    10    5    6 ar
    11    5    7 1
    12    6   31 1
    13    7    8 1
    14    7   32 1
    15    7   33 1
    16    8    9 1
    17    9   10 1
    18    9   34 1
    19    9   35 1
    20   10   11 1
    21   10   12 1
    22   10   26 1
    23   12   13 1
    24   12   36 1
    25   12   37 1
    26   13   14 1
    27   13   38 1
    28   13   48 1
    29   14   15 1
    30   14   39 1
    31   14   40 1
    32   15   16 1
    33   15   25 1
    34   15   17 1
    35   17   18 1
    36   17   41 1
    37   17   42 1
    38   18   19 1
    39   19   24 ar
    40   19   20 ar
    41   20   21 ar
    42   20   43 1
    43   21   22 ar
    44   21   44 1
    45   22   23 ar
    46   22   45 1
    47   23   24 ar
    48   23   46 1
    49   24   25 1
    50   26   47 1
@<TRIPOS>MOLECULE
ZINC02654728
   47    49     0     0     0
SMALL
USER_CHARGES
(2R)-1-[(2-chlorophenyl)methoxy]-3-[[(3R)-2,3-dihydro-1,4-benzodioxin-3-yl]methylamino]propan-2-ol
@<TRIPOS>ATOM
      1 C1         -0.0590    4.4966    0.0253 C.ar      1 <0>        -0.1154
      2 C2          1.1478    3.8219    0.0111 C.ar      1 <0>        -0.1081
      3 C3          1.1672    2.4401    0.0040 C.ar      1 <0>        -0.1101
      4 C4         -0.0215    1.7317    0.0116 C.ar      1 <0>        -0.0335
      5 C5         -1.2285    2.4073    0.0209 C.ar      1 <0>        -0.0805
      6 C6         -1.2466    3.7895    0.0329 C.ar      1 <0>        -0.0832
      7 C7         -2.5236    1.6366    0.0234 C.3       1 <0>         0.1009
      8 O1         -3.6219    2.5507    0.0334 O.3       1 <0>        -0.3724
      9 C8         -4.9037    1.9192    0.0365 C.3       1 <0>         0.0702
     10 C9         -5.9987    2.9877    0.0473 C.3       1 <0>         0.1229
     11 H1         -5.8435    3.7259   -0.7533 H         1 <0>         0.0731
     12 C10        -7.3680    2.3160   -0.0751 C.3       1 <0>         0.0191
     13 N1         -8.4102    3.3454   -0.1851 N.3       1 <0>        -0.6592
     14 C11        -9.7415    2.7360   -0.3046 C.3       1 <0>         0.0575
     15 C12       -10.7981    3.8368   -0.4168 C.3       1 <0>         0.0564
     16 H2        -10.6872    4.5600    0.4046 H         1 <0>         0.0867
     17 C13       -12.1982    3.2091   -0.4465 C.3       1 <0>         0.0265
     18 O2        -13.1595    4.2635   -0.5652 O.3       1 <0>        -0.3045
     19 C14       -12.9038    5.2220   -1.4970 C.ar      1 <0>         0.0424
     20 C15       -13.9308    6.0543   -1.9169 C.ar      1 <0>        -0.1131
     21 C16       -13.6860    7.0347   -2.8596 C.ar      1 <0>        -0.1179
     22 C17       -12.4172    7.1886   -3.3868 C.ar      1 <0>        -0.1141
     23 C18       -11.3898    6.3618   -2.9738 C.ar      1 <0>        -0.1142
     24 C19       -11.6289    5.3752   -2.0286 C.ar      1 <0>         0.0536
     25 O3        -10.6078    4.5664   -1.6339 O.3       1 <0>        -0.2916
     26 O4         -5.9360    3.7216    1.2718 O.3       1 <0>        -0.5890
     27 Cl1         0.0021   -0.0041    0.0020 Cl        1 <0>        -0.0691
     28 H3         -0.0736    5.5765    0.0302 H         1 <0>         0.1309
     29 H4          2.0755    4.3749    0.0053 H         1 <0>         0.1330
     30 H5          2.1099    1.9132   -0.0078 H         1 <0>         0.1352
     31 H6         -2.1889    4.3171    0.0436 H         1 <0>         0.1429
     32 H7         -2.5779    1.0080   -0.8777 H         1 <0>         0.0689
     33 H8         -2.5691    0.9989    0.9186 H         1 <0>         0.0692
     34 H9         -5.0079    1.2966   -0.8643 H         1 <0>         0.0675
     35 H10        -4.9991    1.2874    0.9319 H         1 <0>         0.0590
     36 H11        -7.3852    1.6794   -0.9720 H         1 <0>         0.0852
     37 H12        -7.5547    1.6989    0.8162 H         1 <0>         0.0454
     38 H13        -9.7754    2.1023   -1.2031 H         1 <0>         0.0901
     39 H14        -9.9449    2.1219    0.5851 H         1 <0>         0.0610
     40 H15       -12.2765    2.5279   -1.3067 H         1 <0>         0.0809
     41 H16       -12.3676    2.6464    0.4834 H         1 <0>         0.1236
     42 H17       -14.9228    5.9363   -1.5065 H         1 <0>         0.1338
     43 H18       -14.4870    7.6821   -3.1847 H         1 <0>         0.1325
     44 H19       -12.2286    7.9563   -4.1226 H         1 <0>         0.1325
     45 H20       -10.3995    6.4842   -3.3871 H         1 <0>         0.1348
     46 H21        -6.6498    4.5367    1.4616 H         1 <0>         0.4034
     47 H22        -8.3929    3.9820    0.7118 H         1 <0>         0.3367
@<TRIPOS>BOND
     1    1    6 ar
     2    1    2 ar
     3    1   28 1
     4    2    3 ar
     5    2   29 1
     6    3    4 ar
     7    3   30 1
     8    4    5 ar
     9    4   27 1
    10    5    6 ar
    11    5    7 1
    12    6   31 1
    13    7    8 1
    14    7   32 1
    15    7   33 1
    16    8    9 1
    17    9   10 1
    18    9   34 1
    19    9   35 1
    20   10   11 1
    21   10   12 1
    22   10   26 1
    23   12   13 1
    24   12   36 1
    25   12   37 1
    26   13   14 1
    27   13   47 1
    28   14   15 1
    29   14   38 1
    30   14   39 1
    31   15   16 1
    32   15   25 1
    33   15   17 1
    34   17   18 1
    35   17   40 1
    36   17   41 1
    37   18   19 1
    38   19   24 ar
    39   19   20 ar
    40   20   21 ar
    41   20   42 1
    42   21   22 ar
    43   21   43 1
    44   22   23 ar
    45   22   44 1
    46   23   24 ar
    47   23   45 1
    48   24   25 1
    49   26   46 1
@<TRIPOS>MOLECULE
ZINC02654729
   48    50     0     0     0
SMALL
USER_CHARGES
(2S)-1-[(2-chlorophenyl)methoxy]-3-[[(3R)-2,3-dihydro-1,4-benzodioxin-3-yl]methylamino]propan-2-ol
@<TRIPOS>ATOM
      1 C1         -0.6255    3.1872   -5.5929 C.ar      1 <0>        -0.1149
      2 C2         -0.2079    2.9831   -6.8951 C.ar      1 <0>        -0.1020
      3 C3          0.9246    2.2328   -7.1482 C.ar      1 <0>        -0.1061
      4 C4          1.6410    1.6861   -6.0982 C.ar      1 <0>        -0.0322
      5 C5          1.2230    1.8910   -4.7956 C.ar      1 <0>        -0.0887
      6 C6          0.0870    2.6374   -4.5439 C.ar      1 <0>        -0.0863
      7 C7          2.0023    1.2955   -3.6514 C.3       1 <0>         0.1053
      8 O1          1.3761    1.6453   -2.4154 O.3       1 <0>        -0.3708
      9 C8          2.0397    1.1274   -1.2607 C.3       1 <0>         0.0667
     10 C9          1.2864    1.5618   -0.0018 C.3       1 <0>         0.0974
     11 H1          1.1154    2.6484    0.0058 H         1 <0>         0.0905
     12 C10         2.0636    1.1140    1.2377 C.3       1 <0>        -0.0376
     13 N1          1.3402    1.5310    2.4463 N.4       1 <0>        -0.5378
     14 C11         2.0587    1.1171    3.6589 C.3       1 <0>         0.0105
     15 C12         1.2765    1.5681    4.8941 C.3       1 <0>         0.0216
     16 H2          1.0459    2.6418    4.8310 H         1 <0>         0.1086
     17 C13         2.0681    1.2224    6.1626 C.3       1 <0>         0.0328
     18 O2          1.3035    1.6449    7.2970 O.3       1 <0>        -0.2929
     19 C14        -0.0183    1.3202    7.2986 C.ar      1 <0>         0.0499
     20 C15        -0.7300    1.3704    8.4881 C.ar      1 <0>        -0.1079
     21 C16        -2.0735    1.0473    8.5051 C.ar      1 <0>        -0.0988
     22 C17        -2.7118    0.6731    7.3373 C.ar      1 <0>        -0.1087
     23 C18        -2.0081    0.6197    6.1490 C.ar      1 <0>        -0.1057
     24 C19        -0.6593    0.9419    6.1251 C.ar      1 <0>         0.0382
     25 O3          0.0212    0.8816    4.9479 O.3       1 <0>        -0.3230
     26 O4         -0.0110    0.9628    0.0073 O.3       1 <0>        -0.5679
     27 Cl1         3.0635    0.7429   -6.4154 Cl        1 <0>        -0.0645
     28 H3         -1.5111    3.7731   -5.3956 H         1 <0>         0.1321
     29 H4         -0.7671    3.4099   -7.7146 H         1 <0>         0.1364
     30 H5          1.2503    2.0728   -8.1654 H         1 <0>         0.1388
     31 H6         -0.2420    2.7937   -3.5271 H         1 <0>         0.1382
     32 H7          2.0251    0.2005   -3.7539 H         1 <0>         0.0739
     33 H8          3.0304    1.6865   -3.6651 H         1 <0>         0.0731
     34 H9          2.0633    0.0289   -1.3132 H         1 <0>         0.0715
     35 H10         3.0686    1.5149   -1.2244 H         1 <0>         0.0784
     36 H11         2.1653    0.0187    1.2308 H         1 <0>         0.1429
     37 H12         3.0623    1.5750    1.2307 H         1 <0>         0.1441
     38 H13         1.2384    2.6263    2.4531 H         1 <0>         0.4524
     39 H14         2.1604    0.0219    3.6690 H         1 <0>         0.1452
     40 H15         3.0574    1.5781    3.6688 H         1 <0>         0.1549
     41 H16         2.2375    0.1363    6.2045 H         1 <0>         0.0910
     42 H17         3.0364    1.7441    6.1442 H         1 <0>         0.1332
     43 H18        -0.2338    1.6626    9.4018 H         1 <0>         0.1421
     44 H19        -2.6259    1.0876    9.4323 H         1 <0>         0.1414
     45 H20        -3.7621    0.4221    7.3535 H         1 <0>         0.1408
     46 H21        -2.5092    0.3271    5.2381 H         1 <0>         0.1377
     47 H22        -0.7021    1.1602    0.8400 H         1 <0>         0.4022
     48 H23         0.3415    1.0699    2.4533 H         1 <0>         0.4543
@<TRIPOS>BOND
     1    1    6 ar
     2    1    2 ar
     3    1   28 1
     4    2    3 ar
     5    2   29 1
     6    3    4 ar
     7    3   30 1
     8    4    5 ar
     9    4   27 1
    10    5    6 ar
    11    5    7 1
    12    6   31 1
    13    7    8 1
    14    7   32 1
    15    7   33 1
    16    8    9 1
    17    9   10 1
    18    9   34 1
    19    9   35 1
    20   10   11 1
    21   10   12 1
    22   10   26 1
    23   12   13 1
    24   12   36 1
    25   12   37 1
    26   13   14 1
    27   13   38 1
    28   13   48 1
    29   14   15 1
    30   14   39 1
    31   14   40 1
    32   15   16 1
    33   15   25 1
    34   15   17 1
    35   17   18 1
    36   17   41 1
    37   17   42 1
    38   18   19 1
    39   19   24 ar
    40   19   20 ar
    41   20   21 ar
    42   20   43 1
    43   21   22 ar
    44   21   44 1
    45   22   23 ar
    46   22   45 1
    47   23   24 ar
    48   23   46 1
    49   24   25 1
    50   26   47 1
@<TRIPOS>MOLECULE
ZINC02654729
   47    49     0     0     0
SMALL
USER_CHARGES
(2S)-1-[(2-chlorophenyl)methoxy]-3-[[(3R)-2,3-dihydro-1,4-benzodioxin-3-yl]methylamino]propan-2-ol
@<TRIPOS>ATOM
      1 C1         -0.6255    3.1872   -5.5929 C.ar      1 <0>        -0.1155
      2 C2         -0.2079    2.9831   -6.8951 C.ar      1 <0>        -0.1081
      3 C3          0.9246    2.2328   -7.1482 C.ar      1 <0>        -0.1101
      4 C4          1.6410    1.6861   -6.0982 C.ar      1 <0>        -0.0335
      5 C5          1.2230    1.8910   -4.7956 C.ar      1 <0>        -0.0804
      6 C6          0.0870    2.6374   -4.5439 C.ar      1 <0>        -0.0832
      7 C7          2.0023    1.2955   -3.6514 C.3       1 <0>         0.1008
      8 O1          1.3761    1.6453   -2.4154 O.3       1 <0>        -0.3724
      9 C8          2.0397    1.1274   -1.2607 C.3       1 <0>         0.0692
     10 C9          1.2864    1.5618   -0.0018 C.3       1 <0>         0.1267
     11 H1          1.1154    2.6484    0.0058 H         1 <0>         0.0592
     12 C10         2.0636    1.1140    1.2377 C.3       1 <0>         0.0190
     13 N1          1.3402    1.5310    2.4463 N.3       1 <0>        -0.6617
     14 C11         2.0587    1.1171    3.6589 C.3       1 <0>         0.0586
     15 C12         1.2765    1.5681    4.8941 C.3       1 <0>         0.0567
     16 H2          1.0459    2.6418    4.8310 H         1 <0>         0.0863
     17 C13         2.0681    1.2224    6.1626 C.3       1 <0>         0.0264
     18 O2          1.3035    1.6449    7.2970 O.3       1 <0>        -0.3048
     19 C14        -0.0183    1.3202    7.2986 C.ar      1 <0>         0.0420
     20 C15        -0.7300    1.3704    8.4881 C.ar      1 <0>        -0.1133
     21 C16        -2.0735    1.0473    8.5051 C.ar      1 <0>        -0.1180
     22 C17        -2.7118    0.6731    7.3373 C.ar      1 <0>        -0.1142
     23 C18        -2.0081    0.6197    6.1490 C.ar      1 <0>        -0.1139
     24 C19        -0.6593    0.9419    6.1251 C.ar      1 <0>         0.0539
     25 O3          0.0212    0.8816    4.9479 O.3       1 <0>        -0.2912
     26 O4         -0.0110    0.9628    0.0073 O.3       1 <0>        -0.5850
     27 Cl1         3.0635    0.7429   -6.4154 Cl        1 <0>        -0.0691
     28 H3         -1.5111    3.7731   -5.3956 H         1 <0>         0.1309
     29 H4         -0.7671    3.4099   -7.7146 H         1 <0>         0.1330
     30 H5          1.2503    2.0728   -8.1654 H         1 <0>         0.1352
     31 H6         -0.2420    2.7937   -3.5271 H         1 <0>         0.1429
     32 H7          2.0251    0.2005   -3.7539 H         1 <0>         0.0696
     33 H8          3.0304    1.6865   -3.6651 H         1 <0>         0.0682
     34 H9          2.0633    0.0289   -1.3132 H         1 <0>         0.0608
     35 H10         3.0686    1.5149   -1.2244 H         1 <0>         0.0643
     36 H11         2.1653    0.0187    1.2308 H         1 <0>         0.0856
     37 H12         3.0623    1.5750    1.2307 H         1 <0>         0.0420
     38 H13         2.1604    0.0219    3.6690 H         1 <0>         0.0897
     39 H14         3.0574    1.5781    3.6688 H         1 <0>         0.0601
     40 H15         2.2375    0.1363    6.2045 H         1 <0>         0.0809
     41 H16         3.0364    1.7441    6.1442 H         1 <0>         0.1232
     42 H17        -0.2338    1.6626    9.4018 H         1 <0>         0.1336
     43 H18        -2.6259    1.0876    9.4323 H         1 <0>         0.1323
     44 H19        -3.7621    0.4221    7.3535 H         1 <0>         0.1326
     45 H20        -2.5092    0.3271    5.2381 H         1 <0>         0.1354
     46 H21        -0.7021    1.1602    0.8400 H         1 <0>         0.4145
     47 H22         1.2384    2.6263    2.4531 H         1 <0>         0.3409
@<TRIPOS>BOND
     1    1    6 ar
     2    1    2 ar
     3    1   28 1
     4    2    3 ar
     5    2   29 1
     6    3    4 ar
     7    3   30 1
     8    4    5 ar
     9    4   27 1
    10    5    6 ar
    11    5    7 1
    12    6   31 1
    13    7    8 1
    14    7   32 1
    15    7   33 1
    16    8    9 1
    17    9   10 1
    18    9   34 1
    19    9   35 1
    20   10   11 1
    21   10   12 1
    22   10   26 1
    23   12   13 1
    24   12   36 1
    25   12   37 1
    26   13   14 1
    27   13   47 1
    28   14   15 1
    29   14   38 1
    30   14   39 1
    31   15   16 1
    32   15   25 1
    33   15   17 1
    34   17   18 1
    35   17   40 1
    36   17   41 1
    37   18   19 1
    38   19   24 ar
    39   19   20 ar
    40   20   21 ar
    41   20   42 1
    42   21   22 ar
    43   21   43 1
    44   22   23 ar
    45   22   44 1
    46   23   24 ar
    47   23   45 1
    48   24   25 1
    49   26   46 1
@<TRIPOS>MOLECULE
ZINC13745590
   35    36     0     0     0
SMALL
USER_CHARGES
2-(5-propoxy-1H-indol-3-yl)ethanamine
@<TRIPOS>ATOM
      1 C1          6.6277    6.1815    4.8511 C.3       1 <0>        -0.1529
      2 C2          5.4676    5.8823    3.8995 C.3       1 <0>        -0.1231
      3 C3          4.7712    4.5912    4.3344 C.3       1 <0>         0.0576
      4 O1          3.6877    4.3118    3.4456 O.3       1 <0>        -0.3165
      5 C4          2.9594    3.1904    3.6934 C.ar      1 <0>         0.1216
      6 C5          3.2863    2.3761    4.7749 C.ar      1 <0>        -0.1756
      7 C6          2.5592    1.2374    5.0403 C.ar      1 <0>        -0.0783
      8 C7          1.4870    0.8911    4.2247 C.ar      1 <0>         0.0601
      9 C8          1.1578    1.7083    3.1287 C.ar      1 <0>        -0.0592
     10 C9          1.8990    2.8640    2.8721 C.ar      1 <0>        -0.1303
     11 C10         0.0000    1.0800    2.4877 C.2       1 <0>        -0.2147
     12 C11        -0.2851   -0.0277    3.1904 C.2       1 <0>         0.0949
     13 N1          0.5920   -0.1580    4.2321 N.pl3     1 <0>        -0.5862
     14 H1          0.5857   -0.8808    4.8790 H         1 <0>         0.4234
     15 C12        -0.7288    1.5792    1.2668 C.3       1 <0>        -0.0611
     16 C13        -0.0127    1.0858    0.0080 C.3       1 <0>        -0.0043
     17 H2          7.1238    7.1012    4.5413 H         1 <0>         0.0679
     18 H3          6.2450    6.2988    5.8649 H         1 <0>         0.0592
     19 H4          7.3408    5.3575    4.8251 H         1 <0>         0.0587
     20 H5          5.8503    5.7649    2.8857 H         1 <0>         0.0735
     21 H6          4.7545    6.7063    3.9256 H         1 <0>         0.0743
     22 H7          4.3885    4.7086    5.3482 H         1 <0>         0.0643
     23 H8          5.4843    3.7673    4.3083 H         1 <0>         0.0638
     24 H9          4.1176    2.6405    5.4115 H         1 <0>         0.1368
     25 H10         2.8212    0.6133    5.8819 H         1 <0>         0.1297
     26 H11         1.6465    3.4963    2.0337 H         1 <0>         0.1268
     27 H12        -1.0879   -0.7145    2.9663 H         1 <0>         0.1741
     28 H13        -0.7436    2.6691    1.2728 H         1 <0>         0.0923
     29 H14        -1.7514    1.2020    1.2746 H         1 <0>         0.0913
     30 H15         0.0021   -0.0041    0.0020 H         1 <0>         0.1306
     31 H16         1.0099    1.4631    0.0003 H         1 <0>         0.1347
     32 H17        -0.8068    2.5779   -1.1674 H         1 <0>         0.4370
     33 H18        -0.2694    1.2597   -2.0273 H         1 <0>         0.4394
     34 N2         -0.7456    1.5611   -1.1787 N.4       1 <0>        -0.6479
     35 H19        -1.6942    1.1683   -1.1693 H         1 <0>         0.4382
@<TRIPOS>BOND
     1    1    2 1
     2    1   17 1
     3    1   18 1
     4    1   19 1
     5    2    3 1
     6    2   20 1
     7    2   21 1
     8    3    4 1
     9    3   22 1
    10    3   23 1
    11    4    5 1
    12    5   10 ar
    13    5    6 ar
    14    6    7 ar
    15    6   24 1
    16    7    8 ar
    17    7   25 1
    18    8   13 1
    19    8    9 ar
    20    9   10 ar
    21    9   11 1
    22   10   26 1
    23   11   12 2
    24   11   15 1
    25   12   13 1
    26   12   27 1
    27   13   14 1
    28   15   16 1
    29   15   28 1
    30   15   29 1
    31   16   30 1
    32   16   31 1
    33   16   34 1
    34   32   34 1
    35   33   34 1
    36   34   35 1
@<TRIPOS>MOLECULE
ZINC33963476
   43    43     0     0     0
SMALL
USER_CHARGES

@<TRIPOS>ATOM
      1 C1         -0.0187    1.5258    0.0104 C.3       1 <0>        -0.1538
      2 C2          0.0021   -0.0041    0.0020 C.3       1 <0>        -0.1267
      3 C3          0.7182   -0.4975   -1.2568 C.3       1 <0>        -0.1199
      4 C4          0.7390   -2.0273   -1.2652 C.3       1 <0>        -0.1139
      5 C5          1.4551   -2.5207   -2.5240 C.3       1 <0>        -0.1690
      6 C6          1.4755   -4.0276   -2.5323 C.2       1 <0>         0.3445
      7 O1          0.9695   -4.6433   -1.6250 O.2       1 <0>        -0.4136
      8 C7          2.1274   -4.7660   -3.6728 C.3       1 <0>        -0.2222
      9 C8          2.0121   -6.2507   -3.4412 C.2       1 <0>         0.3739
     10 C9          2.5506   -7.1531   -4.3779 C.2       1 <0>        -0.2438
     11 C10         2.4469   -8.4886   -4.1695 C.2       1 <0>        -0.0017
     12 C11         3.0084   -9.4296   -5.1462 C.ar      1 <0>        -0.0555
     13 C12         3.6569   -8.9499   -6.2914 C.ar      1 <0>        -0.1151
     14 C13         4.1830   -9.8351   -7.2055 C.ar      1 <0>        -0.1104
     15 C14         4.0722  -11.2038   -6.9958 C.ar      1 <0>         0.0925
     16 C15         3.4275  -11.6897   -5.8582 C.ar      1 <0>         0.1006
     17 C16         2.9024  -10.8100   -4.9331 C.ar      1 <0>        -0.1690
     18 O2          3.3213  -13.0306   -5.6577 O.3       1 <0>        -0.3061
     19 C17         2.6486  -13.4579   -4.4716 C.3       1 <0>         0.0223
     20 O3          4.5928  -12.0715   -7.9013 O.3       1 <0>        -0.4848
     21 O4          1.4545   -6.6687   -2.4462 O.2       1 <0>        -0.4265
     22 H1          1.0039    1.9031    0.0027 H         1 <0>         0.0534
     23 H2         -0.5459    1.8868   -0.8726 H         1 <0>         0.0534
     24 H3         -0.5289    1.8773    0.9072 H         1 <0>         0.0539
     25 H4          0.5293   -0.3651    0.8851 H         1 <0>         0.0615
     26 H5         -1.0205   -0.3814    0.0098 H         1 <0>         0.0616
     27 H6          0.1910   -0.1364   -2.1398 H         1 <0>         0.0623
     28 H7          1.7408   -0.1202   -1.2645 H         1 <0>         0.0622
     29 H8          1.2661   -2.3884   -0.3821 H         1 <0>         0.0677
     30 H9         -0.2836   -2.4046   -1.2575 H         1 <0>         0.0677
     31 H10         0.9279   -2.1597   -3.4071 H         1 <0>         0.0974
     32 H11         2.4777   -2.1435   -2.5317 H         1 <0>         0.0974
     33 H12         1.6300   -4.5043   -4.6067 H         1 <0>         0.1287
     34 H13         3.0464   -6.7815   -5.2625 H         1 <0>         0.1357
     35 H14         1.9512   -8.8603   -3.2849 H         1 <0>         0.1368
     36 H15         3.7439   -7.8863   -6.4574 H         1 <0>         0.1370
     37 H16         4.6828   -9.4642   -8.0881 H         1 <0>         0.1425
     38 H17         2.4073  -11.1851   -4.0496 H         1 <0>         0.1392
     39 H18         3.1728  -13.0716   -3.5974 H         1 <0>         0.0575
     40 H19         1.6259  -13.0808   -4.4780 H         1 <0>         0.0580
     41 H20         2.6340  -14.5471   -4.4346 H         1 <0>         0.1047
     42 H21         5.5114  -12.3181   -7.7268 H         1 <0>         0.3911
     43 H22         3.1798   -4.4881   -3.7314 H         1 <0>         0.1286
@<TRIPOS>BOND
     1    1    2 1
     2    1   22 1
     3    1   23 1
     4    1   24 1
     5    2    3 1
     6    2   25 1
     7    2   26 1
     8    3    4 1
     9    3   27 1
    10    3   28 1
    11    4    5 1
    12    4   29 1
    13    4   30 1
    14    5    6 1
    15    5   31 1
    16    5   32 1
    17    6    7 2
    18    6    8 1
    19    8    9 1
    20    8   33 1
    21    8   43 1
    22    9   10 1
    23    9   21 2
    24   10   11 2
    25   10   34 1
    26   11   12 1
    27   11   35 1
    28   12   17 ar
    29   12   13 ar
    30   13   14 ar
    31   13   36 1
    32   14   15 ar
    33   14   37 1
    34   15   16 ar
    35   15   20 1
    36   16   17 ar
    37   16   18 1
    38   17   38 1
    39   18   19 1
    40   19   39 1
    41   19   40 1
    42   19   41 1
    43   20   42 1
@<TRIPOS>MOLECULE
ZINC00000870
   30    31     0     0     0
SMALL
USER_CHARGES
1-[3-(2-aminoethyl)-1H-indol-5-yl]ethanone
@<TRIPOS>ATOM
      1 C1          3.4936    5.2197    2.2199 C.3       1 <0>        -0.1928
      2 C2          3.7629    4.3909    3.4494 C.2       1 <0>         0.3904
      3 O1          4.6340    4.7225    4.2254 O.2       1 <0>        -0.4491
      4 C3          2.9701    3.1812    3.7081 C.ar      1 <0>        -0.1829
      5 C4          3.2957    2.3458    4.7896 C.ar      1 <0>        -0.0422
      6 C5          2.5701    1.2207    5.0408 C.ar      1 <0>        -0.1306
      7 C6          1.4905    0.8836    4.2249 C.ar      1 <0>         0.1244
      8 C7          1.1558    1.7100    3.1335 C.ar      1 <0>        -0.1172
      9 C8          1.8944    2.8620    2.8797 C.ar      1 <0>        -0.0299
     10 C9         -0.0073    1.0862    2.4954 C.2       1 <0>        -0.1983
     11 C10        -0.2870   -0.0243    3.1948 C.2       1 <0>         0.0851
     12 N1          0.5977   -0.1597    4.2304 N.pl3     1 <0>        -0.5839
     13 H1          0.5947   -0.8861    4.8732 H         1 <0>         0.4263
     14 C11        -0.7440    1.5919    1.2819 C.3       1 <0>        -0.0641
     15 C12        -0.0363    1.1047    0.0159 C.3       1 <0>        -0.0044
     16 H2          2.6965    4.8540    1.7394 H         1 <0>         0.0699
     17 H3          3.2995    6.2515    2.5126 H         1 <0>         0.0961
     18 H4          4.3618    5.1859    1.5617 H         1 <0>         0.0971
     19 H5          4.1297    2.5979    5.4278 H         1 <0>         0.1421
     20 H6          2.8317    0.5872    5.8754 H         1 <0>         0.1327
     21 H7          1.6396    3.5003    2.0466 H         1 <0>         0.1322
     22 H8         -1.0913   -0.7102    2.9731 H         1 <0>         0.1765
     23 H9         -0.7584    2.6817    1.2936 H         1 <0>         0.0939
     24 H10        -1.7667    1.2149    1.2944 H         1 <0>         0.0939
     25 H11        -0.0220    0.0149    0.0042 H         1 <0>         0.1318
     26 H12         0.9863    1.4817    0.0034 H         1 <0>         0.1348
     27 H13        -0.8377    2.6030   -1.1466 H         1 <0>         0.4370
     28 H14        -0.3063    1.2891   -2.0167 H         1 <0>         0.4404
     29 N2         -0.7768    1.5863   -1.1635 N.4       1 <0>        -0.6481
     30 H15        -1.7254    1.1937   -1.1499 H         1 <0>         0.4391
@<TRIPOS>BOND
     1    1    2 1
     2    1   16 1
     3    1   17 1
     4    1   18 1
     5    2    3 2
     6    2    4 1
     7    4    9 ar
     8    4    5 ar
     9    5    6 ar
    10    5   19 1
    11    6    7 ar
    12    6   20 1
    13    7   12 1
    14    7    8 ar
    15    8    9 ar
    16    8   10 1
    17    9   21 1
    18   10   11 2
    19   10   14 1
    20   11   12 1
    21   11   22 1
    22   12   13 1
    23   14   15 1
    24   14   23 1
    25   14   24 1
    26   15   25 1
    27   15   26 1
    28   15   29 1
    29   27   29 1
    30   28   29 1
    31   29   30 1
@<TRIPOS>MOLECULE
ZINC01851149
   58    61     0     0     0
SMALL
USER_CHARGES

@<TRIPOS>ATOM
      1 C1         -0.0167    1.3781    0.0096 C.ar      1 <0>        -0.0896
      2 C2          1.1690    2.0873    0.0021 C.ar      1 <0>        -0.1006
      3 C3          2.3816    1.4109   -0.0131 C.ar      1 <0>         0.1668
      4 C4          2.3986    0.0211   -0.0208 C.ar      1 <0>        -0.0379
      5 C5          1.2084   -0.6828   -0.0132 C.ar      1 <0>        -0.0271
      6 C6          0.0021   -0.0041    0.0020 C.ar      1 <0>        -0.0892
      7 Cl1         1.2271   -2.4187   -0.0233 Cl        1 <0>        -0.0322
      8 Cl2         3.9117   -0.8297   -0.0404 Cl        1 <0>        -0.0503
      9 N1          3.5822    2.1260   -0.0212 N.pl3     1 <0>        -0.6733
     10 C7          4.2166    2.5248   -1.2872 C.3       1 <0>         0.1212
     11 C8          5.6874    2.0967   -1.2494 C.3       1 <0>        -0.0255
     12 N2          6.3270    2.6517   -0.0498 N.4       1 <0>        -0.3792
     13 C9          5.7166    2.0749    1.1547 C.3       1 <0>        -0.0318
     14 C10         4.2444    2.5067    1.2361 C.3       1 <0>         0.1223
     15 C11         7.7610    2.3338   -0.0701 C.3       1 <0>        -0.0093
     16 C12         8.4515    3.0158    1.1127 C.3       1 <0>        -0.1453
     17 C13         9.9450    2.6847    1.0915 C.3       1 <0>        -0.1184
     18 C14        10.6355    3.3667    2.2743 C.3       1 <0>         0.0595
     19 O1         12.0305    3.0574    2.2545 O.3       1 <0>        -0.3124
     20 C15        12.7944    3.5890    3.2448 C.ar      1 <0>         0.1559
     21 C16        12.2111    4.3876    4.2189 C.ar      1 <0>        -0.2294
     22 C17        12.9865    4.9295    5.2261 C.ar      1 <0>        -0.0411
     23 C18        14.3441    4.6777    5.2669 C.ar      1 <0>        -0.1551
     24 C19        14.9331    3.8788    4.2952 C.ar      1 <0>         0.2059
     25 C20        14.1552    3.3295    3.2858 C.ar      1 <0>        -0.1852
     26 N3         16.3074    3.6248    4.3397 N.am      1 <0>        -0.6651
     27 C21        17.0003    3.8176    5.4770 C.2       1 <0>         0.5216
     28 O2         18.1945    3.6066    5.4945 O.2       1 <0>        -0.5157
     29 C22        16.3105    4.2925    6.7275 C.3       1 <0>        -0.1402
     30 C23        15.1900    5.2680    6.3653 C.3       1 <0>        -0.0752
     31 H1         -0.9596    1.9044    0.0260 H         1 <0>         0.1477
     32 H2          1.1527    3.1672    0.0077 H         1 <0>         0.1420
     33 H3         -0.9265   -0.5556    0.0083 H         1 <0>         0.1502
     34 H4          3.7134    2.0333   -2.1198 H         1 <0>         0.1171
     35 H5          4.1529    3.6066   -1.4040 H         1 <0>         0.0851
     36 H6          5.7487    1.0088   -1.2236 H         1 <0>         0.1293
     37 H7          6.1971    2.4687   -2.1381 H         1 <0>         0.1401
     38 H8          5.7771    0.9876    1.1077 H         1 <0>         0.1300
     39 H9          6.2479    2.4307    2.0374 H         1 <0>         0.1398
     40 H10         4.1834    3.5868    1.3697 H         1 <0>         0.0853
     41 H11         3.7595    2.0032    2.0724 H         1 <0>         0.1165
     42 H12         7.8950    1.2546    0.0040 H         1 <0>         0.1305
     43 H13         8.1993    2.6912   -1.0020 H         1 <0>         0.1352
     44 H14         8.3175    4.0950    1.0386 H         1 <0>         0.0923
     45 H15         8.0132    2.6584    2.0445 H         1 <0>         0.0907
     46 H16        10.0790    1.6055    1.1656 H         1 <0>         0.0866
     47 H17        10.3833    3.0420    0.1597 H         1 <0>         0.0875
     48 H18        10.5015    4.4459    2.2002 H         1 <0>         0.0675
     49 H19        10.1972    3.0093    3.2062 H         1 <0>         0.0669
     50 H20        11.1499    4.5859    4.1893 H         1 <0>         0.1286
     51 H21        12.5305    5.5511    5.9824 H         1 <0>         0.1354
     52 H22        14.6099    2.7045    2.5314 H         1 <0>         0.1380
     53 H23        16.7645    3.3072    3.5453 H         1 <0>         0.4136
     54 H24        15.8894    3.4371    7.2558 H         1 <0>         0.1060
     55 H25        17.0331    4.7940    7.3713 H         1 <0>         0.1134
     56 H26        15.6229    6.2086    6.0246 H         1 <0>         0.0845
     57 H27        14.5699    5.4506    7.2429 H         1 <0>         0.0936
     58 H28         6.2073    3.6535   -0.0392 H         1 <0>         0.4226
@<TRIPOS>BOND
     1    1    6 ar
     2    1    2 ar
     3    1   31 1
     4    2    3 ar
     5    2   32 1
     6    3    4 ar
     7    3    9 1
     8    4    5 ar
     9    4    8 1
    10    5    6 ar
    11    5    7 1
    12    6   33 1
    13    9   14 1
    14    9   10 1
    15   10   11 1
    16   10   34 1
    17   10   35 1
    18   11   12 1
    19   11   36 1
    20   11   37 1
    21   12   13 1
    22   12   15 1
    23   12   58 1
    24   13   14 1
    25   13   38 1
    26   13   39 1
    27   14   40 1
    28   14   41 1
    29   15   16 1
    30   15   42 1
    31   15   43 1
    32   16   17 1
    33   16   44 1
    34   16   45 1
    35   17   18 1
    36   17   46 1
    37   17   47 1
    38   18   19 1
    39   18   48 1
    40   18   49 1
    41   19   20 1
    42   20   25 ar
    43   20   21 ar
    44   21   22 ar
    45   21   50 1
    46   22   23 ar
    47   22   51 1
    48   23   30 1
    49   23   24 ar
    50   24   25 ar
    51   24   26 1
    52   25   52 1
    53   26   27 am
    54   26   53 1
    55   27   28 2
    56   27   29 1
    57   29   30 1
    58   29   54 1
    59   29   55 1
    60   30   56 1
    61   30   57 1
@<TRIPOS>MOLECULE
ZINC01851149
   57    60     0     0     0
SMALL
USER_CHARGES

@<TRIPOS>ATOM
      1 C1         -0.0167    1.3781    0.0096 C.ar      1 <0>        -0.0962
      2 C2          1.1690    2.0873    0.0021 C.ar      1 <0>        -0.1094
      3 C3          2.3816    1.4109   -0.0131 C.ar      1 <0>         0.1932
      4 C4          2.3986    0.0211   -0.0208 C.ar      1 <0>        -0.0428
      5 C5          1.2084   -0.6828   -0.0132 C.ar      1 <0>        -0.0286
      6 C6          0.0021   -0.0041    0.0020 C.ar      1 <0>        -0.1045
      7 Cl1         1.2271   -2.4187   -0.0233 Cl        1 <0>        -0.0488
      8 Cl2         3.9117   -0.8297   -0.0404 Cl        1 <0>        -0.0433
      9 N1          3.5822    2.1260   -0.0212 N.pl3     1 <0>        -0.6753
     10 C7          4.2154    2.5239   -1.2877 C.3       1 <0>         0.1522
     11 C8          5.6814    2.0786   -1.2601 C.3       1 <0>         0.0390
     12 N2          6.3271    2.6054   -0.0504 N.3       1 <0>        -0.5335
     13 C9          5.7110    2.0562    1.1648 C.3       1 <0>         0.0352
     14 C10         4.2431    2.5059    1.2366 C.3       1 <0>         0.1520
     15 C11         7.7731    2.3471   -0.0705 C.3       1 <0>         0.0570
     16 C12         8.4448    3.1181    1.0676 C.3       1 <0>        -0.1122
     17 C13         9.9508    2.8491    1.0467 C.3       1 <0>        -0.1185
     18 C14        10.6225    3.6201    2.1847 C.3       1 <0>         0.0609
     19 O1         12.0291    3.3688    2.1652 O.3       1 <0>        -0.3131
     20 C15        12.7788    3.9828    3.1179 C.ar      1 <0>         0.1632
     21 C16        12.1712    4.8060    4.0560 C.ar      1 <0>        -0.2281
     22 C17        12.9321    5.4316    5.0250 C.ar      1 <0>        -0.0412
     23 C18        14.2995    5.2392    5.0634 C.ar      1 <0>        -0.1625
     24 C19        14.9129    4.4161    4.1277 C.ar      1 <0>         0.2001
     25 C20        14.1497    3.7829    3.1569 C.ar      1 <0>        -0.1880
     26 N3         16.2971    4.2225    4.1697 N.am      1 <0>        -0.6633
     27 C21        16.9915    4.5031    5.2876 C.2       1 <0>         0.5225
     28 O2         18.1937    4.3433    5.3024 O.2       1 <0>        -0.5237
     29 C22        16.2937    5.0132    6.5196 C.3       1 <0>        -0.1395
     30 C23        15.1296    5.9209    6.1201 C.3       1 <0>        -0.0723
     31 H1         -0.9596    1.9044    0.0260 H         1 <0>         0.1404
     32 H2          1.1527    3.1672    0.0077 H         1 <0>         0.1387
     33 H3         -0.9265   -0.5556    0.0083 H         1 <0>         0.1426
     34 H4          3.7022    2.0431   -2.1205 H         1 <0>         0.0715
     35 H5          4.1638    3.6071   -1.3984 H         1 <0>         0.0629
     36 H6          5.7306    0.9897   -1.2538 H         1 <0>         0.0403
     37 H7          6.1944    2.4613   -2.1423 H         1 <0>         0.0804
     38 H8          5.7599    0.9676    1.1373 H         1 <0>         0.0406
     39 H9          6.2457    2.4226    2.0412 H         1 <0>         0.0819
     40 H10         4.1941    3.5874    1.3639 H         1 <0>         0.0629
     41 H11         3.7483    2.0131    2.0736 H         1 <0>         0.0709
     42 H12         7.9533    1.2798    0.0578 H         1 <0>         0.0339
     43 H13         8.1873    2.6734   -1.0245 H         1 <0>         0.0769
     44 H14         8.2646    4.1855    0.9393 H         1 <0>         0.0762
     45 H15         8.0306    2.7918    2.0216 H         1 <0>         0.0660
     46 H16        10.1310    1.7817    1.1750 H         1 <0>         0.0732
     47 H17        10.3650    3.1754    0.0927 H         1 <0>         0.0761
     48 H18        10.4423    4.6874    2.0565 H         1 <0>         0.0659
     49 H19        10.2083    3.2938    3.1387 H         1 <0>         0.0641
     50 H20        11.1023    4.9580    4.0282 H         1 <0>         0.1320
     51 H21        12.4571    6.0722    5.7533 H         1 <0>         0.1337
     52 H22        14.6236    3.1389    2.4308 H         1 <0>         0.1367
     53 H23        16.7599    3.8832    3.3877 H         1 <0>         0.4126
     54 H24        15.9140    4.1697    7.0961 H         1 <0>         0.1050
     55 H25        17.0002    5.5774    7.1284 H         1 <0>         0.1106
     56 H26        15.5192    6.8597    5.7264 H         1 <0>         0.0818
     57 H27        14.5104    6.1229    6.9941 H         1 <0>         0.0917
@<TRIPOS>BOND
     1    1    6 ar
     2    1    2 ar
     3    1   31 1
     4    2    3 ar
     5    2   32 1
     6    3    4 ar
     7    3    9 1
     8    4    5 ar
     9    4    8 1
    10    5    6 ar
    11    5    7 1
    12    6   33 1
    13    9   14 1
    14    9   10 1
    15   10   11 1
    16   10   34 1
    17   10   35 1
    18   11   12 1
    19   11   36 1
    20   11   37 1
    21   12   13 1
    22   12   15 1
    23   13   14 1
    24   13   38 1
    25   13   39 1
    26   14   40 1
    27   14   41 1
    28   15   16 1
    29   15   42 1
    30   15   43 1
    31   16   17 1
    32   16   44 1
    33   16   45 1
    34   17   18 1
    35   17   46 1
    36   17   47 1
    37   18   19 1
    38   18   48 1
    39   18   49 1
    40   19   20 1
    41   20   25 ar
    42   20   21 ar
    43   21   22 ar
    44   21   50 1
    45   22   23 ar
    46   22   51 1
    47   23   30 1
    48   23   24 ar
    49   24   25 ar
    50   24   26 1
    51   25   52 1
    52   26   27 am
    53   26   53 1
    54   27   28 2
    55   27   29 1
    56   29   30 1
    57   29   54 1
    58   29   55 1
    59   30   56 1
    60   30   57 1
@<TRIPOS>MOLECULE
ZINC00056645
   39    40     0     0     0
SMALL
USER_CHARGES

@<TRIPOS>ATOM
      1 C1         -0.0187    1.5258    0.0104 C.3       1 <0>        -0.1852
      2 C2          0.0021   -0.0041    0.0020 C.3       1 <0>         0.0237
      3 C3          0.7421   -0.5109    1.2415 C.3       1 <0>        -0.1864
      4 N1         -1.3761   -0.5125    0.0124 N.4       1 <0>        -0.5019
      5 C4         -1.3591   -1.9758   -0.1163 C.3       1 <0>        -0.0457
      6 C5         -2.7945   -2.5054   -0.1054 C.3       1 <0>         0.0864
      7 H1         -3.3474   -2.0736   -0.9397 H         1 <0>         0.1352
      8 C6         -2.7769   -4.0294   -0.2395 C.3       1 <0>         0.0296
      9 O1         -4.1170   -4.5137   -0.3464 O.3       1 <0>        -0.2971
     10 C7         -4.2793   -5.8568   -0.4731 C.ar      1 <0>         0.1684
     11 C8         -3.1787   -6.6919   -0.4886 C.ar      1 <0>        -0.2422
     12 C9         -3.3422   -8.0637   -0.6174 C.ar      1 <0>        -0.0618
     13 C10        -4.5995   -8.6149   -0.7320 C.ar      1 <0>        -0.1564
     14 C11        -5.7235   -7.7942   -0.7190 C.ar      1 <0>         0.1320
     15 C12        -5.5633   -6.4043   -0.5830 C.ar      1 <0>        -0.1321
     16 C13        -6.9136   -5.8364   -0.5977 C.2       1 <0>        -0.1885
     17 C14        -7.7690   -6.8622   -0.7292 C.2       1 <0>         0.0493
     18 N2         -7.0752   -8.0399   -0.8117 N.pl3     1 <0>        -0.5917
     19 H2         -7.4766   -8.9175   -0.9103 H         1 <0>         0.4219
     20 O2         -3.4268   -2.1426    1.1237 O.3       1 <0>        -0.5433
     21 H3          1.0039    1.9031    0.0027 H         1 <0>         0.1080
     22 H4         -0.5459    1.8868   -0.8726 H         1 <0>         0.0830
     23 H5         -0.5289    1.8773    0.9072 H         1 <0>         0.0828
     24 H6          0.5123   -0.3556   -0.8948 H         1 <0>         0.1398
     25 H7          0.2319   -0.1594    2.1383 H         1 <0>         0.0832
     26 H8          0.7568   -1.6008    1.2356 H         1 <0>         0.0799
     27 H9          1.7647   -0.1336    1.2338 H         1 <0>         0.1077
     28 H10        -1.8225   -0.2564    0.8803 H         1 <0>         0.4311
     29 H11        -0.8769   -2.2525   -1.0538 H         1 <0>         0.1466
     30 H12        -0.8062   -2.4075    0.7180 H         1 <0>         0.1403
     31 H13        -2.2171   -4.3091   -1.1320 H         1 <0>         0.0816
     32 H14        -2.3018   -4.4659    0.6390 H         1 <0>         0.0765
     33 H15        -2.1864   -6.2749   -0.4005 H         1 <0>         0.1238
     34 H16        -2.4743   -8.7063   -0.6282 H         1 <0>         0.1313
     35 H17        -4.7130   -9.6842   -0.8324 H         1 <0>         0.1261
     36 H18        -7.1717   -4.7908   -0.5174 H         1 <0>         0.1484
     37 H19        -8.8443   -6.7714   -0.7728 H         1 <0>         0.1757
     38 H20        -2.9873   -2.4932    1.9105 H         1 <0>         0.3894
     39 H21        -1.8879   -0.1129   -0.7598 H         1 <0>         0.4306
@<TRIPOS>BOND
     1    1    2 1
     2    1   21 1
     3    1   22 1
     4    1   23 1
     5    2    3 1
     6    2    4 1
     7    2   24 1
     8    3   25 1
     9    3   26 1
    10    3   27 1
    11    4    5 1
    12    4   28 1
    13    4   39 1
    14    5    6 1
    15    5   29 1
    16    5   30 1
    17    6    7 1
    18    6    8 1
    19    6   20 1
    20    8    9 1
    21    8   31 1
    22    8   32 1
    23    9   10 1
    24   10   15 ar
    25   10   11 ar
    26   11   12 ar
    27   11   33 1
    28   12   13 ar
    29   12   34 1
    30   13   14 ar
    31   13   35 1
    32   14   18 1
    33   14   15 ar
    34   15   16 1
    35   16   17 2
    36   16   36 1
    37   17   18 1
    38   17   37 1
    39   18   19 1
    40   20   38 1
@<TRIPOS>MOLECULE
ZINC00015515
   43    45     0     0     0
SMALL
USER_CHARGES

@<TRIPOS>ATOM
      1 C1         -0.0178    1.4648    0.0101 C.3       1 <0>        -0.0471
      2 N1          0.0021   -0.0041    0.0020 N.4       1 <0>        -0.3886
      3 C2          0.7126   -0.4907    1.1921 C.3       1 <0>        -0.0527
      4 C3         -1.3761   -0.5125    0.0124 C.3       1 <0>        -0.0087
      5 C4         -1.3584   -2.0365   -0.1216 C.3       1 <0>        -0.0607
      6 C5         -2.7722   -2.5582   -0.1109 C.2       1 <0>        -0.2038
      7 C6         -3.4483   -3.0106    0.9568 C.2       1 <0>         0.0869
      8 N2         -4.7052   -3.4010    0.5822 N.pl3     1 <0>        -0.5871
      9 H1         -5.3778   -3.7624    1.1803 H         1 <0>         0.4240
     10 C7         -4.8728   -3.2042   -0.7702 C.ar      1 <0>         0.0959
     11 C8         -3.6716   -2.6617   -1.2627 C.ar      1 <0>        -0.0955
     12 C9         -3.5517   -2.3510   -2.6183 C.ar      1 <0>        -0.0825
     13 C10        -4.6048   -2.5723   -3.4607 C.ar      1 <0>        -0.0995
     14 C11        -5.7932   -3.1034   -2.9792 C.ar      1 <0>        -0.0885
     15 C12        -5.9299   -3.4260   -1.6465 C.ar      1 <0>        -0.1148
     16 C13        -4.4748   -2.2367   -4.9240 C.3       1 <0>        -0.0841
     17 C14        -3.9414   -3.4545   -5.6812 C.3       1 <0>         0.0969
     18 H2         -4.5631   -4.3296   -5.4923 H         1 <0>         0.1029
     19 C15        -3.8474   -3.1625   -7.1977 C.3       1 <0>         0.0412
     20 O1         -2.6339   -3.8494   -7.5609 O.3       1 <0>        -0.3237
     21 C16        -1.8515   -3.9154   -6.4706 C.2       1 <0>         0.6446
     22 O2         -0.6563   -4.1299   -6.5129 O.2       1 <0>        -0.5150
     23 N3         -2.5346   -3.7218   -5.3222 N.am      1 <0>        -0.7365
     24 H3          1.0047    1.8421    0.0024 H         1 <0>         0.1243
     25 H4         -0.5450    1.8259   -0.8730 H         1 <0>         0.1226
     26 H5         -0.5280    1.8163    0.9069 H         1 <0>         0.1212
     27 H6          0.2024   -0.1392    2.0889 H         1 <0>         0.1217
     28 H7          0.7273   -1.5806    1.1861 H         1 <0>         0.1248
     29 H8          1.7352   -0.1134    1.1844 H         1 <0>         0.1241
     30 H9         -1.8584   -0.2358    0.9500 H         1 <0>         0.1288
     31 H10        -1.9290   -0.0808   -0.8218 H         1 <0>         0.1299
     32 H11        -0.8762   -2.3132   -1.0592 H         1 <0>         0.0914
     33 H12        -0.8055   -2.4683    0.7126 H         1 <0>         0.0919
     34 H13        -3.0579   -3.0597    1.9626 H         1 <0>         0.1733
     35 H14        -2.6302   -1.9368   -2.9999 H         1 <0>         0.1179
     36 H15        -6.6168   -3.2720   -3.6571 H         1 <0>         0.1334
     37 H16        -6.8592   -3.8377   -1.2812 H         1 <0>         0.1276
     38 H17        -5.4514   -1.9607   -5.3217 H         1 <0>         0.0989
     39 H18        -3.7841   -1.4022   -5.0454 H         1 <0>         0.0840
     40 H19        -4.7039   -3.5787   -7.7280 H         1 <0>         0.1254
     41 H20        -3.7591   -2.0920   -7.3832 H         1 <0>         0.0970
     42 H21        -2.1690   -3.7504   -4.4242 H         1 <0>         0.4311
     43 H22         0.4744   -0.3295   -0.8281 H         1 <0>         0.4271
@<TRIPOS>BOND
     1    1    2 1
     2    1   24 1
     3    1   25 1
     4    1   26 1
     5    2    3 1
     6    2    4 1
     7    2   43 1
     8    3   27 1
     9    3   28 1
    10    3   29 1
    11    4    5 1
    12    4   30 1
    13    4   31 1
    14    5    6 1
    15    5   32 1
    16    5   33 1
    17    6   11 1
    18    6    7 2
    19    7    8 1
    20    7   34 1
    21    8    9 1
    22    8   10 1
    23   10   15 ar
    24   10   11 ar
    25   11   12 ar
    26   12   13 ar
    27   12   35 1
    28   13   14 ar
    29   13   16 1
    30   14   15 ar
    31   14   36 1
    32   15   37 1
    33   16   17 1
    34   16   38 1
    35   16   39 1
    36   17   18 1
    37   17   23 1
    38   17   19 1
    39   19   20 1
    40   19   40 1
    41   19   41 1
    42   20   21 1
    43   21   22 2
    44   21   23 am
    45   23   42 1
@<TRIPOS>MOLECULE
ZINC00599925
   54    56     0     0     0
SMALL
USER_CHARGES

@<TRIPOS>ATOM
      1 C1         -0.0224    1.4620   -0.0128 C.3       1 <0>        -0.0477
      2 N1         -0.0039   -0.0069   -0.0210 N.4       1 <0>        -0.3874
      3 C2          0.7150   -0.4942    1.1637 C.3       1 <0>        -0.0535
      4 C3         -1.3824   -0.5141   -0.0003 C.3       1 <0>        -0.0117
      5 C4         -1.3672   -2.0381   -0.1345 C.3       1 <0>        -0.1448
      6 C5         -2.8029   -2.5664   -0.1128 C.3       1 <0>        -0.0709
      7 C6         -2.7879   -4.0675   -0.2450 C.ar      1 <0>        -0.1298
      8 C7         -2.9384   -4.8578    0.8728 C.ar      1 <0>        -0.0351
      9 C8         -2.9243   -6.2495    0.7491 C.ar      1 <0>        -0.1397
     10 C9         -2.7575   -6.8338   -0.5096 C.ar      1 <0>        -0.0626
     11 C10        -2.6077   -6.0367   -1.6221 C.ar      1 <0>        -0.1454
     12 C11        -2.6280   -4.6524   -1.4955 C.ar      1 <0>         0.1405
     13 O1         -2.4860   -3.8702   -2.5954 O.3       1 <0>        -0.4896
     14 C12        -3.0847   -7.1001    1.9443 C.2       1 <0>         0.5597
     15 O2         -3.2293   -6.5901    3.0386 O.2       1 <0>        -0.5127
     16 N2         -3.0708   -8.4423    1.8229 N.am      1 <0>        -0.6664
     17 C13        -3.1253   -9.2473    2.9632 C.ar      1 <0>         0.1455
     18 C14        -3.8827   -8.8486    4.0587 C.ar      1 <0>        -0.1167
     19 C15        -3.9380   -9.6413    5.1849 C.ar      1 <0>        -0.0826
     20 C16        -3.2338  -10.8441    5.2247 C.ar      1 <0>        -0.0638
     21 C17        -2.4752  -11.2422    4.1246 C.ar      1 <0>        -0.0818
     22 C18        -2.4268  -10.4487    2.9987 C.ar      1 <0>        -0.1394
     23 C19        -3.2913  -11.6984    6.4354 C.ar      1 <0>         0.0004
     24 C20        -4.0506  -11.3193    7.5465 C.ar      1 <0>        -0.1682
     25 C21        -4.0766  -12.1439    8.6521 C.ar      1 <0>         0.1054
     26 N3         -3.3981  -13.2753    8.6692 N.ar      1 <0>        -0.4862
     27 C22        -2.6697  -13.6697    7.6422 C.ar      1 <0>         0.1053
     28 C23        -2.5924  -12.9079    6.4948 C.ar      1 <0>        -0.1683
     29 H1          1.0004    1.8383   -0.0282 H         1 <0>         0.1247
     30 H2         -0.5559    1.8235   -0.8919 H         1 <0>         0.1240
     31 H3         -0.5255    1.8140    0.8878 H         1 <0>         0.1224
     32 H4          0.7288   -1.5841    1.1576 H         1 <0>         0.1239
     33 H5          1.7379   -0.1178    1.1483 H         1 <0>         0.1248
     34 H6          0.2119   -0.1422    2.0643 H         1 <0>         0.1234
     35 H7         -1.8574   -0.2370    0.9409 H         1 <0>         0.1321
     36 H8         -1.9412   -0.0818   -0.8304 H         1 <0>         0.1336
     37 H9         -0.8922   -2.3153   -1.0756 H         1 <0>         0.0837
     38 H10        -0.8084   -2.4704    0.6956 H         1 <0>         0.0902
     39 H11        -3.2779   -2.2892    0.8283 H         1 <0>         0.0873
     40 H12        -3.3617   -2.1341   -0.9429 H         1 <0>         0.0932
     41 H13        -3.0667   -4.4024    1.8437 H         1 <0>         0.1437
     42 H14        -2.7457   -7.9092   -0.6093 H         1 <0>         0.1353
     43 H15        -2.4788   -6.4875   -2.5950 H         1 <0>         0.1428
     44 H16        -1.5687   -3.6443   -2.8016 H         1 <0>         0.3905
     45 H17        -3.0230   -8.8494    0.9438 H         1 <0>         0.4118
     46 H18        -4.4279   -7.9168    4.0273 H         1 <0>         0.1428
     47 H19        -4.5259   -9.3308    6.0360 H         1 <0>         0.1327
     48 H20        -1.9287  -12.1733    4.1535 H         1 <0>         0.1341
     49 H21        -1.8426  -10.7586    2.1448 H         1 <0>         0.1312
     50 H22        -4.6081  -10.3943    7.5395 H         1 <0>         0.1373
     51 H23        -4.6600  -11.8593    9.5153 H         1 <0>         0.1591
     52 H24        -2.1301  -14.6035    7.6991 H         1 <0>         0.1591
     53 H25        -1.9977  -13.2389    5.6563 H         1 <0>         0.1373
     54 H26         0.4618   -0.3327   -0.8547 H         1 <0>         0.4263
@<TRIPOS>BOND
     1    1    2 1
     2    1   29 1
     3    1   30 1
     4    1   31 1
     5    2    3 1
     6    2    4 1
     7    2   54 1
     8    3   32 1
     9    3   33 1
    10    3   34 1
    11    4    5 1
    12    4   35 1
    13    4   36 1
    14    5    6 1
    15    5   37 1
    16    5   38 1
    17    6    7 1
    18    6   39 1
    19    6   40 1
    20    7   12 ar
    21    7    8 ar
    22    8    9 ar
    23    8   41 1
    24    9   10 ar
    25    9   14 1
    26   10   11 ar
    27   10   42 1
    28   11   12 ar
    29   11   43 1
    30   12   13 1
    31   13   44 1
    32   14   15 2
    33   14   16 am
    34   16   17 1
    35   16   45 1
    36   17   22 ar
    37   17   18 ar
    38   18   19 ar
    39   18   46 1
    40   19   20 ar
    41   19   47 1
    42   20   21 ar
    43   20   23 1
    44   21   22 ar
    45   21   48 1
    46   22   49 1
    47   23   28 ar
    48   23   24 ar
    49   24   25 ar
    50   24   50 1
    51   25   26 ar
    52   25   51 1
    53   26   27 ar
    54   27   28 ar
    55   27   52 1
    56   28   53 1
@<TRIPOS>MOLECULE
ZINC13452330
   26    28     0     0     0
SMALL
USER_CHARGES
aminoBLAHone
@<TRIPOS>ATOM
      1 C1         -0.0167    1.3801    0.0096 C.ar      1 <0>        -0.0947
      2 C2          1.1538    2.1320    0.0025 C.ar      1 <0>        -0.0882
      3 C3          2.3615    1.4836   -0.0127 C.ar      1 <0>        -0.0826
      4 C4          2.3641    0.0957   -0.0225 C.ar      1 <0>         0.0441
      5 C5          1.2178   -0.6729   -0.0143 C.ar      1 <0>         0.1188
      6 C6          0.0021   -0.0041    0.0020 C.ar      1 <0>        -0.0876
      7 N1          1.6579   -1.9929   -0.0246 N.am      1 <0>        -0.6391
      8 H1          1.0883   -2.7780   -0.0199 H         1 <0>         0.4435
      9 C7          3.0161   -2.0016   -0.0414 C.2       1 <0>         0.6992
     10 O1          3.7082   -3.0024   -0.0512 O.2       1 <0>        -0.5376
     11 N2          3.4774   -0.7543   -0.0447 N.am      1 <0>        -0.5426
     12 C8          4.8198   -0.1641   -0.0685 C.3       1 <0>         0.1229
     13 C9          4.7276    1.2227   -0.7179 C.3       1 <0>         0.0215
     14 H2          4.4303    1.1029   -1.7597 H         1 <0>         0.1506
     15 C10         3.7177    2.1365   -0.0172 C.3       1 <0>        -0.0909
     16 H3         -0.9680    1.8913    0.0169 H         1 <0>         0.1438
     17 H4          1.1115    3.2111    0.0088 H         1 <0>         0.1432
     18 H5         -0.9238   -0.5600    0.0084 H         1 <0>         0.1433
     19 H6          5.4892   -0.7980   -0.6501 H         1 <0>         0.1176
     20 H7          5.1974   -0.0683    0.9496 H         1 <0>         0.1017
     21 H8          3.6607    3.0875   -0.5468 H         1 <0>         0.1132
     22 H9          4.0393    2.3118    1.0094 H         1 <0>         0.1060
     23 H10         6.0403    2.7519   -1.1383 H         1 <0>         0.4471
     24 H11         6.3773    1.9475    0.2777 H         1 <0>         0.4398
     25 N3          6.0654    1.8395   -0.6860 N.4       1 <0>        -0.6396
     26 H12         6.7277    1.2354   -1.1867 H         1 <0>         0.4465
@<TRIPOS>BOND
     1    1    6 ar
     2    1    2 ar
     3    1   16 1
     4    2    3 ar
     5    2   17 1
     6    3   15 1
     7    3    4 ar
     8    4   11 1
     9    4    5 ar
    10    5    6 ar
    11    5    7 1
    12    6   18 1
    13    7    8 1
    14    7    9 am
    15    9   10 2
    16    9   11 am
    17   11   12 1
    18   12   13 1
    19   12   19 1
    20   12   20 1
    21   13   14 1
    22   13   15 1
    23   13   25 1
    24   15   21 1
    25   15   22 1
    26   23   25 1
    27   24   25 1
    28   25   26 1
@<TRIPOS>MOLECULE
ZINC13452335
   26    28     0     0     0
SMALL
USER_CHARGES
aminoBLAHone
@<TRIPOS>ATOM
      1 C1          0.0877    0.5796   -4.7783 C.ar      1 <0>        -0.0990
      2 C2         -0.7004    0.9389   -3.6911 C.ar      1 <0>        -0.0907
      3 C3         -0.1246    1.1793   -2.4676 C.ar      1 <0>        -0.0846
      4 C4          1.2548    1.0386   -2.4025 C.ar      1 <0>         0.0451
      5 C5          2.0666    0.6831   -3.4767 C.ar      1 <0>         0.1165
      6 C6          1.4701    0.4436   -4.7081 C.ar      1 <0>        -0.0850
      7 N1          3.3503    0.6650   -2.9755 N.am      1 <0>        -0.6366
      8 H1          4.1508    0.4519   -3.4802 H         1 <0>         0.4439
      9 C7          3.3099    0.9957   -1.6546 C.2       1 <0>         0.6942
     10 O1          4.2802    1.0713   -0.9241 O.2       1 <0>        -0.5358
     11 N2          2.0494    1.2252   -1.2794 N.am      1 <0>        -0.5408
     12 C8          1.4322    1.6023   -0.0030 C.3       1 <0>         0.1232
     13 C9         -0.0127    1.0858    0.0080 C.3       1 <0>         0.0217
     14 H2          0.0021   -0.0041    0.0020 H         1 <0>         0.1543
     15 C10        -0.8190    1.5777   -1.1990 C.3       1 <0>        -0.0901
     16 H3         -0.3979    0.3972   -5.7255 H         1 <0>         0.1399
     17 H4         -1.7701    1.0297   -3.8092 H         1 <0>         0.1393
     18 H5          2.0539    0.1639   -5.5726 H         1 <0>         0.1496
     19 H6          1.4348    2.6874    0.0995 H         1 <0>         0.1017
     20 H7          1.9882    1.1545    0.8206 H         1 <0>         0.1186
     21 H8         -1.8143    1.1341   -1.1754 H         1 <0>         0.1142
     22 H9         -0.9057    2.6636   -1.1591 H         1 <0>         0.1063
     23 H10        -1.6205    1.2032    1.2885 H         1 <0>         0.4474
     24 H11        -0.1456    1.2733    2.0539 H         1 <0>         0.4442
     25 N3         -0.6718    1.5702    1.2337 N.4       1 <0>        -0.6394
     26 H12        -0.7101    2.5960    1.2135 H         1 <0>         0.4419
@<TRIPOS>BOND
     1    1    6 ar
     2    1    2 ar
     3    1   16 1
     4    2    3 ar
     5    2   17 1
     6    3   15 1
     7    3    4 ar
     8    4   11 1
     9    4    5 ar
    10    5    6 ar
    11    5    7 1
    12    6   18 1
    13    7    8 1
    14    7    9 am
    15    9   10 2
    16    9   11 am
    17   11   12 1
    18   12   13 1
    19   12   19 1
    20   12   20 1
    21   13   14 1
    22   13   15 1
    23   13   25 1
    24   15   21 1
    25   15   22 1
    26   23   25 1
    27   24   25 1
    28   25   26 1
@<TRIPOS>MOLECULE
ZINC56965850
   56    59     0     0     0
SMALL
USER_CHARGES

@<TRIPOS>ATOM
      1 C1         -0.0173    1.4248    0.0099 C.3       1 <0>         0.0251
      2 O1          0.0021   -0.0041    0.0020 O.3       1 <0>        -0.3038
      3 C2         -1.2013   -0.6380    0.0101 C.ar      1 <0>         0.1201
      4 C3         -2.3740    0.0989    0.0195 C.ar      1 <0>        -0.2065
      5 C4         -3.5967   -0.5469    0.0283 C.ar      1 <0>        -0.0833
      6 C5         -3.6532   -1.9283    0.0271 C.ar      1 <0>        -0.1524
      7 C6         -2.4875   -2.6710    0.0173 C.ar      1 <0>        -0.0880
      8 C7         -1.2572   -2.0300    0.0032 C.ar      1 <0>         0.1385
      9 N1         -0.0754   -2.7797   -0.0127 N.pl3     1 <0>        -0.6683
     10 C8          0.5713   -3.1961    1.2410 C.3       1 <0>         0.1532
     11 C9          0.8354   -4.7041    1.1750 C.3       1 <0>         0.0428
     12 N2          1.5913   -5.0126   -0.0462 N.3       1 <0>        -0.5298
     13 C10         0.8175   -4.6811   -1.2500 C.3       1 <0>         0.0354
     14 C11         0.5494   -3.1773   -1.2834 C.3       1 <0>         0.1531
     15 C12         2.0135   -6.4196   -0.0626 C.3       1 <0>         0.0450
     16 C13         2.9994   -6.6428   -1.2111 C.3       1 <0>         0.1217
     17 N3          3.4204   -8.0459   -1.2276 N.am      1 <0>        -0.7270
     18 C14         4.2932   -8.4767   -2.1598 C.2       1 <0>         0.5607
     19 O2          4.7311   -7.7010   -2.9870 O.2       1 <0>        -0.5331
     20 C15         4.7179   -9.8920   -2.1764 C.ar      1 <0>        -0.1389
     21 C16         4.2035  -10.7862   -1.2203 C.ar      1 <0>        -0.0930
     22 C17         4.5782  -12.0907   -1.2150 C.ar      1 <0>        -0.1082
     23 C18         5.4927  -12.5644   -2.1737 C.ar      1 <0>        -0.0338
     24 C19         5.8953  -13.9102   -2.1881 C.ar      1 <0>        -0.1133
     25 C20         6.7814  -14.3396   -3.1282 C.ar      1 <0>        -0.1033
     26 C21         7.2988  -13.4634   -4.0805 C.ar      1 <0>        -0.1183
     27 C22         6.9324  -12.1529   -4.0981 C.ar      1 <0>        -0.0954
     28 C23         6.0185  -11.6727   -3.1428 C.ar      1 <0>        -0.0640
     29 C24         5.6150  -10.3291   -3.1366 C.ar      1 <0>        -0.0299
     30 H1          1.0053    1.8021    0.0021 H         1 <0>         0.0994
     31 H2         -0.5445    1.7859   -0.8732 H         1 <0>         0.0538
     32 H3         -0.5275    1.7763    0.9067 H         1 <0>         0.0537
     33 H4         -2.3335    1.1781    0.0204 H         1 <0>         0.1277
     34 H5         -4.5101    0.0293    0.0363 H         1 <0>         0.1245
     35 H6         -4.6104   -2.4284    0.0343 H         1 <0>         0.1238
     36 H7         -2.5344   -3.7500    0.0168 H         1 <0>         0.1250
     37 H8          1.5150   -2.6639    1.3604 H         1 <0>         0.0593
     38 H9         -0.0855   -2.9758    2.0825 H         1 <0>         0.0705
     39 H10         1.4125   -5.0108    2.0473 H         1 <0>         0.0812
     40 H11        -0.1140   -5.2393    1.1600 H         1 <0>         0.0363
     41 H12         1.3817   -4.9710   -2.1364 H         1 <0>         0.0843
     42 H13        -0.1317   -5.2166   -1.2312 H         1 <0>         0.0364
     43 H14        -0.1219   -2.9447   -2.1101 H         1 <0>         0.0703
     44 H15         1.4910   -2.6433   -1.4113 H         1 <0>         0.0593
     45 H16         2.4960   -6.6652    0.8834 H         1 <0>         0.0821
     46 H17         1.1418   -7.0588   -0.2026 H         1 <0>         0.0399
     47 H18         2.5169   -6.3971   -2.1571 H         1 <0>         0.0703
     48 H19         3.8711   -6.0035   -1.0711 H         1 <0>         0.0802
     49 H20         3.0710   -8.6649   -0.5675 H         1 <0>         0.3994
     50 H21         3.5016  -10.4302   -0.4807 H         1 <0>         0.1250
     51 H22         4.1745  -12.7653   -0.4744 H         1 <0>         0.1335
     52 H23         5.5038  -14.6013   -1.4563 H         1 <0>         0.1303
     53 H24         7.0884  -15.3750   -3.1360 H         1 <0>         0.1265
     54 H25         8.0009  -13.8296   -4.8149 H         1 <0>         0.1272
     55 H26         7.3415  -11.4849   -4.8416 H         1 <0>         0.1319
     56 H27         6.0043   -9.6402   -3.8717 H         1 <0>         0.1431
@<TRIPOS>BOND
     1    1    2 1
     2    1   30 1
     3    1   31 1
     4    1   32 1
     5    2    3 1
     6    3    8 ar
     7    3    4 ar
     8    4    5 ar
     9    4   33 1
    10    5    6 ar
    11    5   34 1
    12    6    7 ar
    13    6   35 1
    14    7    8 ar
    15    7   36 1
    16    8    9 1
    17    9   14 1
    18    9   10 1
    19   10   11 1
    20   10   37 1
    21   10   38 1
    22   11   12 1
    23   11   39 1
    24   11   40 1
    25   12   13 1
    26   12   15 1
    27   13   14 1
    28   13   41 1
    29   13   42 1
    30   14   43 1
    31   14   44 1
    32   15   16 1
    33   15   45 1
    34   15   46 1
    35   16   17 1
    36   16   47 1
    37   16   48 1
    38   17   18 am
    39   17   49 1
    40   18   19 2
    41   18   20 1
    42   20   29 ar
    43   20   21 ar
    44   21   22 ar
    45   21   50 1
    46   22   23 ar
    47   22   51 1
    48   23   28 ar
    49   23   24 ar
    50   24   25 ar
    51   24   52 1
    52   25   26 ar
    53   25   53 1
    54   26   27 ar
    55   26   54 1
    56   27   28 ar
    57   27   55 1
    58   28   29 ar
    59   29   56 1
@<TRIPOS>MOLECULE
ZINC56966182
   57    60     0     0     0
SMALL
USER_CHARGES

@<TRIPOS>ATOM
      1 C1         -0.0173    1.4248    0.0099 C.3       1 <0>         0.0252
      2 O1          0.0021   -0.0041    0.0020 O.3       1 <0>        -0.3041
      3 C2          0.6263   -0.6189    1.0423 C.ar      1 <0>         0.1199
      4 C3          1.2020    0.1362    2.0507 C.ar      1 <0>        -0.2066
      5 C4          1.8368   -0.4902    3.1075 C.ar      1 <0>        -0.0833
      6 C5          1.8987   -1.8703    3.1618 C.ar      1 <0>        -0.1520
      7 C6          1.3263   -2.6311    2.1598 C.ar      1 <0>        -0.0877
      8 C7          0.6832   -2.0097    1.0992 C.ar      1 <0>         0.1384
      9 N1          0.0978   -2.7779    0.0862 N.pl3     1 <0>        -0.6683
     10 C8          0.8705   -3.1791   -1.0992 C.3       1 <0>         0.1535
     11 C9          0.7192   -4.6921   -1.2897 C.3       1 <0>         0.0422
     12 N2         -0.7081   -5.0367   -1.3328 N.3       1 <0>        -0.5318
     13 C10        -1.3720   -4.7173   -0.0619 C.3       1 <0>         0.0326
     14 C11        -1.3047   -3.2105    0.1818 C.3       1 <0>         0.1531
     15 C12        -0.8980   -6.4501   -1.6852 C.3       1 <0>         0.0493
     16 C13        -2.3795   -6.7116   -1.9641 C.3       1 <0>         0.1171
     17 N3         -2.5689   -8.1211   -2.3156 N.pl3     1 <0>        -1.1169
     18 S1         -4.0882   -8.7799   -2.3064 S.o2      1 <0>         2.6961
     19 O2         -3.9460  -10.1344   -2.7117 O.2       1 <0>        -0.9569
     20 O3         -4.6823   -8.4133   -1.0687 O.2       1 <0>        -0.9519
     21 C14        -5.0143   -7.9711   -3.5686 C.ar      1 <0>        -0.6726
     22 C15        -5.7290   -6.8147   -3.2615 C.ar      1 <0>        -0.0454
     23 C16        -6.4547   -6.1660   -4.2127 C.ar      1 <0>        -0.1156
     24 C17        -6.4855   -6.6668   -5.5255 C.ar      1 <0>        -0.0115
     25 C18        -7.2230   -6.0243   -6.5346 C.ar      1 <0>        -0.1193
     26 C19        -7.2292   -6.5379   -7.7949 C.ar      1 <0>        -0.0930
     27 C20        -6.5142   -7.6942   -8.1020 C.ar      1 <0>        -0.1217
     28 C21        -5.7889   -8.3431   -7.1507 C.ar      1 <0>        -0.0902
     29 C22        -5.7584   -7.8425   -5.8378 C.ar      1 <0>        -0.0800
     30 C23        -5.0164   -8.4819   -4.8300 C.ar      1 <0>         0.0203
     31 H1          1.0053    1.8021    0.0021 H         1 <0>         0.0536
     32 H2         -0.5445    1.7859   -0.8732 H         1 <0>         0.0991
     33 H3         -0.5275    1.7763    0.9067 H         1 <0>         0.0538
     34 H4          1.1555    1.2145    2.0114 H         1 <0>         0.1275
     35 H5          2.2858    0.1003    3.8925 H         1 <0>         0.1244
     36 H6          2.3959   -2.3551    3.9890 H         1 <0>         0.1239
     37 H7          1.3765   -3.7090    2.2044 H         1 <0>         0.1254
     38 H8          0.4889   -2.6595   -1.9781 H         1 <0>         0.0587
     39 H9          1.9218   -2.9319   -0.9519 H         1 <0>         0.0701
     40 H10         1.1938   -4.9902   -2.2246 H         1 <0>         0.0811
     41 H11         1.1942   -5.2127   -0.4581 H         1 <0>         0.0371
     42 H12        -2.4141   -5.0337   -0.1064 H         1 <0>         0.0849
     43 H13        -0.8680   -5.2375    0.7526 H         1 <0>         0.0384
     44 H14        -1.6908   -2.9840    1.1756 H         1 <0>         0.0706
     45 H15        -1.8994   -2.6939   -0.5716 H         1 <0>         0.0586
     46 H16        -0.3139   -6.6843   -2.5752 H         1 <0>         0.0835
     47 H17        -0.5676   -7.0784   -0.8581 H         1 <0>         0.0441
     48 H18        -2.9636   -6.4774   -1.0741 H         1 <0>         0.0816
     49 H19        -2.7099   -6.0833   -2.7912 H         1 <0>         0.0774
     50 H20        -1.8043   -8.6686   -2.5536 H         1 <0>         0.4193
     51 H21        -5.7070   -6.4278   -2.2534 H         1 <0>         0.1396
     52 H22        -7.0043   -5.2713   -3.9599 H         1 <0>         0.1370
     53 H23        -7.7821   -5.1277   -6.3111 H         1 <0>         0.1331
     54 H24        -7.7970   -6.0424   -8.5684 H         1 <0>         0.1289
     55 H25        -6.5362   -8.0812   -9.1101 H         1 <0>         0.1292
     56 H26        -5.2400   -9.2382   -7.4032 H         1 <0>         0.1338
     57 H27        -4.4540   -9.3762   -5.0545 H         1 <0>         0.1460
@<TRIPOS>BOND
     1    1    2 1
     2    1   31 1
     3    1   32 1
     4    1   33 1
     5    2    3 1
     6    3    8 ar
     7    3    4 ar
     8    4    5 ar
     9    4   34 1
    10    5    6 ar
    11    5   35 1
    12    6    7 ar
    13    6   36 1
    14    7    8 ar
    15    7   37 1
    16    8    9 1
    17    9   14 1
    18    9   10 1
    19   10   11 1
    20   10   38 1
    21   10   39 1
    22   11   12 1
    23   11   40 1
    24   11   41 1
    25   12   13 1
    26   12   15 1
    27   13   14 1
    28   13   42 1
    29   13   43 1
    30   14   44 1
    31   14   45 1
    32   15   16 1
    33   15   46 1
    34   15   47 1
    35   16   17 1
    36   16   48 1
    37   16   49 1
    38   17   18 1
    39   17   50 1
    40   18   19 2
    41   18   20 2
    42   18   21 1
    43   21   30 ar
    44   21   22 ar
    45   22   23 ar
    46   22   51 1
    47   23   24 ar
    48   23   52 1
    49   24   29 ar
    50   24   25 ar
    51   25   26 ar
    52   25   53 1
    53   26   27 ar
    54   26   54 1
    55   27   28 ar
    56   27   55 1
    57   28   29 ar
    58   28   56 1
    59   29   30 ar
    60   30   57 1
@<TRIPOS>MOLECULE
ZINC11909404
   60    63     0     0     0
SMALL
USER_CHARGES

@<TRIPOS>ATOM
      1 C1         -0.0173    1.4248    0.0099 C.3       1 <0>         0.0228
      2 O1          0.0021   -0.0041    0.0020 O.3       1 <0>        -0.3113
      3 C2         -1.2013   -0.6380    0.0101 C.ar      1 <0>         0.1289
      4 C3         -2.3740    0.0989    0.0195 C.ar      1 <0>        -0.2022
      5 C4         -3.5967   -0.5469    0.0283 C.ar      1 <0>        -0.0668
      6 C5         -3.6532   -1.9283    0.0271 C.ar      1 <0>        -0.1489
      7 C6         -2.4875   -2.6710    0.0173 C.ar      1 <0>        -0.0820
      8 C7         -1.2572   -2.0300    0.0032 C.ar      1 <0>         0.1085
      9 N1         -0.0754   -2.7797   -0.0127 N.pl3     1 <0>        -0.6634
     10 C8          0.5725   -3.1969    1.2404 C.3       1 <0>         0.1218
     11 C9          0.8530   -4.7014    1.1647 C.3       1 <0>        -0.0224
     12 N2          1.6309   -4.9929   -0.0461 N.4       1 <0>        -0.3796
     13 C10         0.8351   -4.6789   -1.2395 C.3       1 <0>        -0.0281
     14 C11         0.5506   -3.1781   -1.2829 C.3       1 <0>         0.1223
     15 C12         1.9935   -6.4164   -0.0621 C.3       1 <0>        -0.0057
     16 C13         2.9078   -6.6964   -1.2565 C.3       1 <0>        -0.1633
     17 C14         3.2853   -8.1790   -1.2732 C.3       1 <0>         0.1246
     18 N3          4.1608   -8.4471   -2.4169 N.am      1 <0>        -0.7346
     19 C15         4.6224   -9.6945   -2.6343 C.2       1 <0>         0.5667
     20 O2          4.3124  -10.5972   -1.8814 O.2       1 <0>        -0.5275
     21 C16         5.5055   -9.9650   -3.7879 C.ar      1 <0>        -0.1507
     22 C17         5.8655   -8.9154   -4.6523 C.ar      1 <0>        -0.0976
     23 C18         6.6753   -9.1386   -5.7184 C.ar      1 <0>        -0.1042
     24 C19         7.1657  -10.4330   -5.9711 C.ar      1 <0>        -0.0313
     25 C20         8.0053  -10.6884   -7.0682 C.ar      1 <0>        -0.1152
     26 C21         8.4646  -11.9512   -7.2870 C.ar      1 <0>        -0.0969
     27 C22         8.1147  -12.9997   -6.4382 C.ar      1 <0>        -0.1134
     28 C23         7.3037  -12.7910   -5.3655 C.ar      1 <0>        -0.0961
     29 C24         6.8099  -11.4995   -5.1070 C.ar      1 <0>        -0.0654
     30 C25         5.9768  -11.2487   -4.0064 C.ar      1 <0>        -0.0222
     31 H1          1.0053    1.8021    0.0021 H         1 <0>         0.1035
     32 H2         -0.5445    1.7859   -0.8732 H         1 <0>         0.0589
     33 H3         -0.5275    1.7763    0.9067 H         1 <0>         0.0590
     34 H4         -2.3335    1.1781    0.0204 H         1 <0>         0.1341
     35 H5         -4.5101    0.0293    0.0363 H         1 <0>         0.1320
     36 H6         -4.6104   -2.4284    0.0343 H         1 <0>         0.1307
     37 H7         -2.5344   -3.7500    0.0168 H         1 <0>         0.1267
     38 H8          1.5101   -2.6554    1.3659 H         1 <0>         0.0780
     39 H9         -0.0891   -2.9896    2.0815 H         1 <0>         0.1145
     40 H10         1.4191   -5.0102    2.0435 H         1 <0>         0.1370
     41 H11        -0.0906   -5.2458    1.1302 H         1 <0>         0.1307
     42 H12         1.3880   -4.9711   -2.1323 H         1 <0>         0.1363
     43 H13        -0.1080   -5.2240   -1.2012 H         1 <0>         0.1309
     44 H14        -0.1254   -2.9583   -2.1092 H         1 <0>         0.1138
     45 H15         1.4860   -2.6346   -1.4165 H         1 <0>         0.0770
     46 H16         2.5145   -6.6690    0.8613 H         1 <0>         0.1361
     47 H17         1.0901   -7.0204   -0.1466 H         1 <0>         0.1337
     48 H18         2.3868   -6.4437   -2.1800 H         1 <0>         0.0948
     49 H19         3.8111   -6.0923   -1.1721 H         1 <0>         0.0955
     50 H20         3.8063   -8.4316   -0.3497 H         1 <0>         0.0798
     51 H21         2.3820   -8.7830   -1.3577 H         1 <0>         0.0794
     52 H22         4.4082   -7.7268   -3.0176 H         1 <0>         0.4028
     53 H23         5.4926   -7.9192   -4.4655 H         1 <0>         0.1212
     54 H24         6.9429   -8.3226   -6.3733 H         1 <0>         0.1345
     55 H25         8.2848   -9.8865   -7.7354 H         1 <0>         0.1324
     56 H26         9.1098  -12.1434   -8.1315 H         1 <0>         0.1299
     57 H27         8.4923  -13.9922   -6.6348 H         1 <0>         0.1305
     58 H28         7.0403  -13.6128   -4.7162 H         1 <0>         0.1336
     59 H29         5.7016  -12.0509   -3.3377 H         1 <0>         0.1434
     60 H30         2.4712   -4.4343   -0.0471 H         1 <0>         0.4224
@<TRIPOS>BOND
     1    1    2 1
     2    1   31 1
     3    1   32 1
     4    1   33 1
     5    2    3 1
     6    3    8 ar
     7    3    4 ar
     8    4    5 ar
     9    4   34 1
    10    5    6 ar
    11    5   35 1
    12    6    7 ar
    13    6   36 1
    14    7    8 ar
    15    7   37 1
    16    8    9 1
    17    9   14 1
    18    9   10 1
    19   10   11 1
    20   10   38 1
    21   10   39 1
    22   11   12 1
    23   11   40 1
    24   11   41 1
    25   12   13 1
    26   12   15 1
    27   12   60 1
    28   13   14 1
    29   13   42 1
    30   13   43 1
    31   14   44 1
    32   14   45 1
    33   15   16 1
    34   15   46 1
    35   15   47 1
    36   16   17 1
    37   16   48 1
    38   16   49 1
    39   17   18 1
    40   17   50 1
    41   17   51 1
    42   18   19 am
    43   18   52 1
    44   19   20 2
    45   19   21 1
    46   21   30 ar
    47   21   22 ar
    48   22   23 ar
    49   22   53 1
    50   23   24 ar
    51   23   54 1
    52   24   29 ar
    53   24   25 ar
    54   25   26 ar
    55   25   55 1
    56   26   27 ar
    57   26   56 1
    58   27   28 ar
    59   27   57 1
    60   28   29 ar
    61   28   58 1
    62   29   30 ar
    63   30   59 1
@<TRIPOS>MOLECULE
ZINC11909404
   59    62     0     0     0
SMALL
USER_CHARGES

@<TRIPOS>ATOM
      1 C1         -0.0173    1.4248    0.0099 C.3       1 <0>         0.0251
      2 O1          0.0021   -0.0041    0.0020 O.3       1 <0>        -0.3041
      3 C2         -1.2013   -0.6380    0.0101 C.ar      1 <0>         0.1196
      4 C3         -2.3740    0.0989    0.0195 C.ar      1 <0>        -0.2065
      5 C4         -3.5967   -0.5469    0.0283 C.ar      1 <0>        -0.0835
      6 C5         -3.6532   -1.9283    0.0271 C.ar      1 <0>        -0.1520
      7 C6         -2.4875   -2.6710    0.0173 C.ar      1 <0>        -0.0881
      8 C7         -1.2572   -2.0300    0.0032 C.ar      1 <0>         0.1386
      9 N1         -0.0754   -2.7797   -0.0127 N.pl3     1 <0>        -0.6682
     10 C8          0.5713   -3.1961    1.2410 C.3       1 <0>         0.1533
     11 C9          0.8354   -4.7041    1.1750 C.3       1 <0>         0.0412
     12 N2          1.5913   -5.0126   -0.0462 N.3       1 <0>        -0.5339
     13 C10         0.8175   -4.6811   -1.2500 C.3       1 <0>         0.0372
     14 C11         0.5494   -3.1773   -1.2834 C.3       1 <0>         0.1535
     15 C12         2.0135   -6.4196   -0.0626 C.3       1 <0>         0.0591
     16 C13         2.9994   -6.6428   -1.2111 C.3       1 <0>        -0.1286
     17 C14         3.4391   -8.1081   -1.2283 C.3       1 <0>         0.1202
     18 N3          4.3831   -8.3219   -2.3280 N.am      1 <0>        -0.7261
     19 C15         4.9072   -9.5457   -2.5380 C.2       1 <0>         0.5593
     20 O2          4.5966  -10.4722   -1.8148 O.2       1 <0>        -0.5359
     21 C16         5.8594   -9.7613   -3.6473 C.ar      1 <0>        -0.1393
     22 C17         6.2196   -8.6843   -4.4772 C.ar      1 <0>        -0.0928
     23 C18         7.0921   -8.8571   -5.5023 C.ar      1 <0>        -0.1081
     24 C19         7.6488  -10.1261   -5.7466 C.ar      1 <0>        -0.0338
     25 C20         8.5540  -10.3293   -6.8015 C.ar      1 <0>        -0.1131
     26 C21         9.0765  -11.5685   -7.0132 C.ar      1 <0>        -0.1035
     27 C22         8.7273  -12.6438   -6.1984 C.ar      1 <0>        -0.1183
     28 C23         7.8537  -12.4857   -5.1669 C.ar      1 <0>        -0.0956
     29 C24         7.2936  -11.2199   -4.9170 C.ar      1 <0>        -0.0641
     30 C25         6.3948  -11.0209   -3.8583 C.ar      1 <0>        -0.0304
     31 H1          1.0053    1.8021    0.0021 H         1 <0>         0.0992
     32 H2         -0.5445    1.7859   -0.8732 H         1 <0>         0.0537
     33 H3         -0.5275    1.7763    0.9067 H         1 <0>         0.0538
     34 H4         -2.3335    1.1781    0.0204 H         1 <0>         0.1277
     35 H5         -4.5101    0.0293    0.0363 H         1 <0>         0.1245
     36 H6         -4.6104   -2.4284    0.0343 H         1 <0>         0.1239
     37 H7         -2.5344   -3.7500    0.0168 H         1 <0>         0.1252
     38 H8          1.5150   -2.6639    1.3604 H         1 <0>         0.0583
     39 H9         -0.0855   -2.9758    2.0825 H         1 <0>         0.0696
     40 H10         1.4125   -5.0108    2.0473 H         1 <0>         0.0806
     41 H11        -0.1140   -5.2393    1.1600 H         1 <0>         0.0354
     42 H12         1.3817   -4.9710   -2.1364 H         1 <0>         0.0818
     43 H13        -0.1317   -5.2166   -1.2312 H         1 <0>         0.0346
     44 H14        -0.1219   -2.9447   -2.1101 H         1 <0>         0.0686
     45 H15         1.4910   -2.6433   -1.4113 H         1 <0>         0.0573
     46 H16         2.4960   -6.6652    0.8834 H         1 <0>         0.0791
     47 H17         1.1418   -7.0588   -0.2026 H         1 <0>         0.0367
     48 H18         2.5169   -6.3971   -2.1571 H         1 <0>         0.0704
     49 H19         3.8711   -6.0035   -1.0711 H         1 <0>         0.0803
     50 H20         3.9216   -8.3538   -0.2823 H         1 <0>         0.0711
     51 H21         2.5674   -8.7474   -1.3683 H         1 <0>         0.0685
     52 H22         4.6310   -7.5826   -2.9050 H         1 <0>         0.4009
     53 H23         5.7960   -7.7074   -4.2966 H         1 <0>         0.1256
     54 H24         7.3589   -8.0204   -6.1309 H         1 <0>         0.1337
     55 H25         8.8339   -9.5061   -7.4421 H         1 <0>         0.1304
     56 H26         9.7721  -11.7206   -7.8252 H         1 <0>         0.1265
     57 H27         9.1558  -13.6168   -6.3885 H         1 <0>         0.1271
     58 H28         7.5917  -13.3278   -4.5436 H         1 <0>         0.1317
     59 H29         6.1191  -11.8443   -3.2160 H         1 <0>         0.1427
@<TRIPOS>BOND
     1    1    2 1
     2    1   31 1
     3    1   32 1
     4    1   33 1
     5    2    3 1
     6    3    8 ar
     7    3    4 ar
     8    4    5 ar
     9    4   34 1
    10    5    6 ar
    11    5   35 1
    12    6    7 ar
    13    6   36 1
    14    7    8 ar
    15    7   37 1
    16    8    9 1
    17    9   14 1
    18    9   10 1
    19   10   11 1
    20   10   38 1
    21   10   39 1
    22   11   12 1
    23   11   40 1
    24   11   41 1
    25   12   13 1
    26   12   15 1
    27   13   14 1
    28   13   42 1
    29   13   43 1
    30   14   44 1
    31   14   45 1
    32   15   16 1
    33   15   46 1
    34   15   47 1
    35   16   17 1
    36   16   48 1
    37   16   49 1
    38   17   18 1
    39   17   50 1
    40   17   51 1
    41   18   19 am
    42   18   52 1
    43   19   20 2
    44   19   21 1
    45   21   30 ar
    46   21   22 ar
    47   22   23 ar
    48   22   53 1
    49   23   24 ar
    50   23   54 1
    51   24   29 ar
    52   24   25 ar
    53   25   26 ar
    54   25   55 1
    55   26   27 ar
    56   26   56 1
    57   27   28 ar
    58   27   57 1
    59   28   29 ar
    60   28   58 1
    61   29   30 ar
    62   30   59 1
@<TRIPOS>MOLECULE
ZINC00897457
   31    32     0     0     0
SMALL
USER_CHARGES
2-(1H-indol-3-yl)-N,N-dimethyl-ethanamine
@<TRIPOS>ATOM
      1 C1          0.0585    1.3230   -2.4006 C.3       1 <0>        -0.0423
      2 C2         -2.0591    0.9694   -1.2810 C.3       1 <0>        -0.0467
      3 C3         -0.0127    1.0858    0.0080 C.3       1 <0>        -0.0039
      4 C4         -0.7288    1.5792    1.2668 C.3       1 <0>        -0.0596
      5 C5          0.0000    1.0800    2.4877 C.2       1 <0>        -0.2054
      6 C6         -0.2888   -0.0242    3.1942 C.2       1 <0>         0.0841
      7 N1          0.5910   -0.1564    4.2338 N.pl3     1 <0>        -0.5882
      8 H1          0.5835   -0.8781    4.8819 H         1 <0>         0.4232
      9 C7          1.4851    0.8907    4.2264 C.ar      1 <0>         0.0942
     10 C8          1.1542    1.7112    3.1323 C.ar      1 <0>        -0.1011
     11 C9          1.9006    2.8621    2.8738 C.ar      1 <0>        -0.0845
     12 C10         2.9506    3.1863    3.6862 C.ar      1 <0>        -0.1324
     13 C11         3.2809    2.3806    4.7669 C.ar      1 <0>        -0.0932
     14 C12         2.5576    1.2400    5.0401 C.ar      1 <0>        -0.1218
     15 H2          0.2299    0.2520   -2.5094 H         1 <0>         0.1219
     16 H3         -0.4905    1.6929   -3.2665 H         1 <0>         0.1220
     17 H4          1.0161    1.8388   -2.3299 H         1 <0>         0.1210
     18 H5         -2.6409    1.2283   -0.3963 H         1 <0>         0.1223
     19 H6         -2.5631    1.3469   -2.1707 H         1 <0>         0.1217
     20 H7         -1.9644   -0.1143   -1.3492 H         1 <0>         0.1224
     21 H8          0.0021   -0.0041    0.0020 H         1 <0>         0.1298
     22 H9          1.0099    1.4631    0.0003 H         1 <0>         0.1289
     23 H10        -0.7436    2.6691    1.2728 H         1 <0>         0.0906
     24 H11        -1.7514    1.2020    1.2746 H         1 <0>         0.0903
     25 H12        -1.0951   -0.7081    2.9736 H         1 <0>         0.1726
     26 H13         1.6493    3.4939    2.0348 H         1 <0>         0.1179
     27 H14         3.5282    4.0766    3.4855 H         1 <0>         0.1273
     28 H15         4.1133    2.6501    5.4000 H         1 <0>         0.1318
     29 H16         2.8229    0.6192    5.8831 H         1 <0>         0.1257
     30 N2         -0.7265    1.6008   -1.1794 N.4       1 <0>        -0.3993
     31 H17        -0.8450    2.6161   -1.0829 H         1 <0>         0.4307
@<TRIPOS>BOND
     1    1   15 1
     2    1   16 1
     3    1   17 1
     4    1   30 1
     5    2   18 1
     6    2   19 1
     7    2   20 1
     8    2   30 1
     9    3    4 1
    10    3   21 1
    11    3   22 1
    12    3   30 1
    13    4    5 1
    14    4   23 1
    15    4   24 1
    16    5   10 1
    17    5    6 2
    18    6    7 1
    19    6   25 1
    20    7    8 1
    21    7    9 1
    22    9   14 ar
    23    9   10 ar
    24   10   11 ar
    25   11   12 ar
    26   11   26 1
    27   12   13 ar
    28   12   27 1
    29   13   14 ar
    30   13   28 1
    31   14   29 1
    32   30   31 1
@<TRIPOS>MOLECULE
ZINC02022527
   54    55     0     0     0
SMALL
USER_CHARGES

@<TRIPOS>ATOM
      1 C1         -3.0730    2.2881   -4.2693 C.3       1 <0>        -0.1569
      2 C2         -2.3049    1.5870   -3.1471 C.3       1 <0>        -0.1270
      3 C3         -2.8110    2.0874   -1.7927 C.3       1 <0>        -0.1231
      4 C4         -2.0429    1.3862   -0.6705 C.3       1 <0>        -0.1174
      5 C5         -2.5490    1.8867    0.6839 C.3       1 <0>        -0.1006
      6 C6         -2.2117    3.3722    0.8391 C.3       1 <0>        -0.1451
      7 C7         -2.6658    3.8518    2.2196 C.3       1 <0>        -0.0114
      8 C8         -2.3347    1.6429    3.1595 C.3       1 <0>        -0.0001
      9 C9         -1.8707    1.0973    1.8070 C.3       1 <0>        -0.1442
     10 C10        -2.2939    3.5901    4.5974 C.3       1 <0>        -0.0052
     11 C11        -2.1583    5.1140    4.5919 C.3       1 <0>        -0.1459
     12 C12        -2.4764    5.6593    5.9856 C.3       1 <0>        -0.1543
     13 C13        -2.3428    7.1604    5.9803 C.2       1 <0>         0.3987
     14 O1         -2.0245    7.7371    4.9623 O.2       1 <0>        -0.4456
     15 C14        -2.5986    7.9263    7.2106 C.ar      1 <0>        -0.1885
     16 C15        -3.0878    7.2813    8.3513 C.ar      1 <0>        -0.0705
     17 C16        -3.3195    8.0047    9.5018 C.ar      1 <0>        -0.1389
     18 C17        -3.0801    9.3679    9.5265 C.ar      1 <0>        -0.0729
     19 C18        -2.6016   10.0143    8.4004 C.ar      1 <0>        -0.1345
     20 C19        -2.3594    9.3036    7.2436 C.ar      1 <0>        -0.0178
     21 C20        -1.8387   10.0095    6.0182 C.3       1 <0>        -0.1264
     22 H1         -4.1363    2.0676   -4.1746 H         1 <0>         0.0549
     23 H2         -2.9175    3.3647   -4.1985 H         1 <0>         0.0540
     24 H3         -2.7125    1.9316   -5.2342 H         1 <0>         0.0581
     25 H4         -1.2417    1.8075   -3.2417 H         1 <0>         0.0621
     26 H5         -2.4605    0.5104   -3.2179 H         1 <0>         0.0631
     27 H6         -3.8743    1.8669   -1.6981 H         1 <0>         0.0644
     28 H7         -2.6555    3.1639   -1.7219 H         1 <0>         0.0632
     29 H8         -2.1984    0.3097   -0.7413 H         1 <0>         0.0733
     30 H9         -0.9796    1.6067   -0.7651 H         1 <0>         0.0688
     31 H10        -3.6287    1.7492    0.7427 H         1 <0>         0.0884
     32 H11        -1.1354    3.5132    0.7407 H         1 <0>         0.0881
     33 H12        -2.7264    3.9447    0.0675 H         1 <0>         0.1133
     34 H13        -3.7442    3.7233    2.3122 H         1 <0>         0.1295
     35 H14        -2.4142    4.9057    2.3388 H         1 <0>         0.1342
     36 H15        -3.4146    1.5248    3.2476 H         1 <0>         0.1293
     37 H16        -1.8426    1.0924    3.9613 H         1 <0>         0.1282
     38 H17        -2.1418    0.0446    1.7270 H         1 <0>         0.1118
     39 H18        -0.7890    1.2025    1.7239 H         1 <0>         0.0880
     40 H19        -3.3133    3.3170    4.8704 H         1 <0>         0.1315
     41 H20        -1.5979    3.1659    5.3211 H         1 <0>         0.1302
     42 H21        -1.1389    5.3871    4.3190 H         1 <0>         0.0944
     43 H22        -2.8542    5.5382    3.8682 H         1 <0>         0.0968
     44 H23        -3.4115    5.4088    6.2361 H         1 <0>         0.0981
     45 H24        -1.7805    5.2352    6.7093 H         1 <0>         0.1100
     46 H25        -3.2793    6.2186    8.3321 H         1 <0>         0.1290
     47 H26        -3.6933    7.5074   10.3846 H         1 <0>         0.1322
     48 H27        -3.2682    9.9300   10.4293 H         1 <0>         0.1326
     49 H28        -2.4176   11.0782    8.4274 H         1 <0>         0.1332
     50 H29        -2.6709   10.2515    5.3572 H         1 <0>         0.0784
     51 H30        -1.3321   10.9277    6.3156 H         1 <0>         0.0652
     52 H31        -1.1365    9.3600    5.4956 H         1 <0>         0.0893
     53 N1         -1.9588    3.0696    3.2558 N.4       1 <0>        -0.3931
     54 H32        -0.9467    3.1581    3.1071 H         1 <0>         0.4272
@<TRIPOS>BOND
     1    1    2 1
     2    1   22 1
     3    1   23 1
     4    1   24 1
     5    2    3 1
     6    2   25 1
     7    2   26 1
     8    3    4 1
     9    3   27 1
    10    3   28 1
    11    4    5 1
    12    4   29 1
    13    4   30 1
    14    5    9 1
    15    5    6 1
    16    5   31 1
    17    6    7 1
    18    6   32 1
    19    6   33 1
    20    7   34 1
    21    7   35 1
    22    7   53 1
    23    8    9 1
    24    8   36 1
    25    8   37 1
    26    8   53 1
    27    9   38 1
    28    9   39 1
    29   10   11 1
    30   10   40 1
    31   10   41 1
    32   10   53 1
    33   11   12 1
    34   11   42 1
    35   11   43 1
    36   12   13 1
    37   12   44 1
    38   12   45 1
    39   13   14 2
    40   13   15 1
    41   15   20 ar
    42   15   16 ar
    43   16   17 ar
    44   16   46 1
    45   17   18 ar
    46   17   47 1
    47   18   19 ar
    48   18   48 1
    49   19   20 ar
    50   19   49 1
    51   20   21 1
    52   21   50 1
    53   21   51 1
    54   21   52 1
    55   53   54 1
@<TRIPOS>MOLECULE
ZINC38815370
   46    47     0     0     0
SMALL
USER_CHARGES

@<TRIPOS>ATOM
      1 C1         -0.0187    1.5258    0.0104 C.3       1 <0>        -0.1586
      2 C2          0.0021   -0.0041    0.0020 C.3       1 <0>        -0.1254
      3 C3          0.7421   -0.5109    1.2415 C.3       1 <0>        -0.1182
      4 C4          0.7628   -2.0407    1.2331 C.3       1 <0>        -0.1491
      5 C5          1.5028   -2.5476    2.4727 C.3       1 <0>        -0.0101
      6 N1          1.5227   -4.0164    2.4646 N.4       1 <0>        -0.3805
      7 C6          2.3038   -4.4872    1.3138 C.3       1 <0>        -0.0270
      8 C7          2.2301   -6.0158    1.2387 C.3       1 <0>         0.1225
      9 N2          2.6618   -6.5677    2.5322 N.pl3     1 <0>        -0.6639
     10 C8          2.0440   -6.0322    3.7552 C.3       1 <0>         0.1219
     11 C9          2.1266   -4.5028    3.7115 C.3       1 <0>        -0.0222
     12 C10         3.6325   -7.5739    2.5974 C.ar      1 <0>         0.1090
     13 C11         4.9746   -7.2398    2.7044 C.ar      1 <0>        -0.0820
     14 C12         5.9313   -8.2353    2.7691 C.ar      1 <0>        -0.1490
     15 C13         5.5541   -9.5648    2.7275 C.ar      1 <0>        -0.0671
     16 C14         4.2182   -9.9054    2.6209 C.ar      1 <0>        -0.2023
     17 C15         3.2529   -8.9139    2.5609 C.ar      1 <0>         0.1286
     18 O1          1.9381   -9.2476    2.4613 O.3       1 <0>        -0.3112
     19 C16         1.6231  -10.6410    2.4292 C.3       1 <0>         0.0229
     20 H1          1.0039    1.9031    0.0027 H         1 <0>         0.0569
     21 H2         -0.5459    1.8868   -0.8726 H         1 <0>         0.0612
     22 H3         -0.5289    1.8773    0.9072 H         1 <0>         0.0570
     23 H4         -1.0205   -0.3814    0.0098 H         1 <0>         0.0655
     24 H5          0.5123   -0.3556   -0.8948 H         1 <0>         0.0651
     25 H6          1.7647   -0.1336    1.2338 H         1 <0>         0.0731
     26 H7          0.2319   -0.1594    2.1383 H         1 <0>         0.0736
     27 H8         -0.2598   -2.4180    1.2409 H         1 <0>         0.0865
     28 H9          1.2730   -2.3923    0.3363 H         1 <0>         0.0864
     29 H10         2.5254   -2.1703    2.4649 H         1 <0>         0.1279
     30 H11         0.9926   -2.1961    3.3695 H         1 <0>         0.1302
     31 H12         1.8966   -4.0583    0.3982 H         1 <0>         0.1365
     32 H13         3.3429   -4.1787    1.4291 H         1 <0>         0.1294
     33 H14         1.2048   -6.3234    1.0331 H         1 <0>         0.0772
     34 H15         2.8890   -6.3760    0.4486 H         1 <0>         0.1133
     35 H16         0.9999   -6.3414    3.8038 H         1 <0>         0.0774
     36 H17         2.5800   -6.4031    4.6289 H         1 <0>         0.1137
     37 H18         3.1710   -4.1938    3.7543 H         1 <0>         0.1292
     38 H19         1.5888   -4.0853    4.5628 H         1 <0>         0.1353
     39 H20         5.2719   -6.2020    2.7367 H         1 <0>         0.1265
     40 H21         6.9759   -7.9740    2.8520 H         1 <0>         0.1306
     41 H22         6.3050  -10.3394    2.7780 H         1 <0>         0.1320
     42 H23         3.9270  -10.9450    2.5887 H         1 <0>         0.1341
     43 H24         0.5435  -10.7677    2.3484 H         1 <0>         0.1035
     44 H25         2.1085  -11.1036    1.5699 H         1 <0>         0.0589
     45 H26         1.9769  -11.1147    3.3449 H         1 <0>         0.0589
     46 H27         0.5783   -4.3640    2.3918 H         1 <0>         0.4217
@<TRIPOS>BOND
     1    1    2 1
     2    1   20 1
     3    1   21 1
     4    1   22 1
     5    2    3 1
     6    2   23 1
     7    2   24 1
     8    3    4 1
     9    3   25 1
    10    3   26 1
    11    4    5 1
    12    4   27 1
    13    4   28 1
    14    5    6 1
    15    5   29 1
    16    5   30 1
    17    6   11 1
    18    6    7 1
    19    6   46 1
    20    7    8 1
    21    7   31 1
    22    7   32 1
    23    8    9 1
    24    8   33 1
    25    8   34 1
    26    9   10 1
    27    9   12 1
    28   10   11 1
    29   10   35 1
    30   10   36 1
    31   11   37 1
    32   11   38 1
    33   12   17 ar
    34   12   13 ar
    35   13   14 ar
    36   13   39 1
    37   14   15 ar
    38   14   40 1
    39   15   16 ar
    40   15   41 1
    41   16   17 ar
    42   16   42 1
    43   17   18 1
    44   18   19 1
    45   19   43 1
    46   19   44 1
    47   19   45 1
@<TRIPOS>MOLECULE
ZINC00538337
   58    62     0     0     0
SMALL
USER_CHARGES

@<TRIPOS>ATOM
      1 C1         -0.0168    1.3842    0.0097 C.ar      1 <0>        -0.0898
      2 C2          1.1703    2.0901    0.0021 C.ar      1 <0>        -0.1344
      3 C3          2.3788    1.4141   -0.0135 C.ar      1 <0>         0.1119
      4 C4          2.3997    0.0295   -0.0216 C.ar      1 <0>        -0.1322
      5 C5          1.2148   -0.6800   -0.0137 C.ar      1 <0>        -0.0888
      6 C6          0.0021   -0.0041    0.0020 C.ar      1 <0>         0.1035
      7 N1         -1.2015   -0.7222    0.0101 N.pl3     1 <0>        -0.4255
      8 C7         -2.2407   -0.5077    0.8765 C.2       1 <0>         0.0751
      9 C8         -3.2397   -1.3652    0.6140 C.2       1 <0>        -0.1721
     10 C9         -2.8068   -2.1974   -0.5117 C.ar      1 <0>        -0.0841
     11 C10        -1.5194   -1.7470   -0.8569 C.ar      1 <0>         0.1032
     12 C11        -0.8430   -2.3517   -1.9103 C.ar      1 <0>        -0.1070
     13 C12        -1.4366   -3.3808   -2.6081 C.ar      1 <0>        -0.0841
     14 C13        -2.7089   -3.8239   -2.2706 C.ar      1 <0>        -0.0491
     15 C14        -3.3935   -3.2441   -1.2250 C.ar      1 <0>        -0.0671
     16 Cl1        -3.4366   -5.1218   -3.1648 Cl        1 <0>        -0.0596
     17 C15        -4.5571   -1.4553    1.3402 C.3       1 <0>        -0.0164
     18 C16        -4.3063   -1.7573    2.8204 C.3       1 <0>        -0.1397
     19 C17        -5.6422   -1.7687    3.5665 C.3       1 <0>        -0.0052
     20 N2         -6.2909   -0.4585    3.4359 N.4       1 <0>        -0.3798
     21 C18        -6.5994   -0.1937    2.0255 C.3       1 <0>        -0.0131
     22 C19        -5.3003   -0.1217    1.2201 C.3       1 <0>        -0.1392
     23 C20        -7.5345   -0.4493    4.2177 C.3       1 <0>        -0.0330
     24 C21        -8.1476    0.9521    4.1845 C.3       1 <0>         0.1326
     25 N3         -9.3878    0.9612    4.9641 N.am      1 <0>        -0.6351
     26 C22       -10.7283    0.6664    4.4362 C.3       1 <0>         0.0898
     27 C23       -11.6494    0.8170    5.6625 C.3       1 <0>         0.0871
     28 N4        -10.7301    1.1807    6.7511 N.am      1 <0>        -0.7327
     29 C24        -9.4802    1.2337    6.2723 C.2       1 <0>         0.7000
     30 O1         -8.5172    1.5083    6.9620 O.2       1 <0>        -0.5776
     31 F1          3.5389    2.1063   -0.0213 F         1 <0>        -0.1276
     32 H1         -0.9590    1.9118    0.0260 H         1 <0>         0.1391
     33 H2          1.1561    3.1700    0.0080 H         1 <0>         0.1488
     34 H3          3.3432   -0.4959   -0.0345 H         1 <0>         0.1499
     35 H4          1.2315   -1.7598   -0.0203 H         1 <0>         0.1411
     36 H5         -2.2541    0.2401    1.6556 H         1 <0>         0.1691
     37 H6          0.1466   -2.0149   -2.1816 H         1 <0>         0.1333
     38 H7         -0.9074   -3.8472   -3.4259 H         1 <0>         0.1426
     39 H8         -4.3833   -3.5900   -0.9659 H         1 <0>         0.1336
     40 H9         -5.1611   -2.2499    0.9021 H         1 <0>         0.0971
     41 H10        -3.8271   -2.7315    2.9171 H         1 <0>         0.1158
     42 H11        -3.6594   -0.9891    3.2440 H         1 <0>         0.0884
     43 H12        -6.2882   -2.5373    3.1423 H         1 <0>         0.1304
     44 H13        -5.4673   -1.9836    4.6207 H         1 <0>         0.1320
     45 H14        -7.2250   -0.9960    1.6341 H         1 <0>         0.1319
     46 H15        -7.1311    0.7541    1.9420 H         1 <0>         0.1316
     47 H16        -4.6740    0.6804    1.6106 H         1 <0>         0.0885
     48 H17        -5.5315    0.0731    0.1729 H         1 <0>         0.1159
     49 H18        -8.2379   -1.1638    3.7899 H         1 <0>         0.1318
     50 H19        -7.3173   -0.7265    5.2492 H         1 <0>         0.1351
     51 H20        -7.4442    1.6665    4.6123 H         1 <0>         0.1060
     52 H21        -8.3648    1.2293    3.1530 H         1 <0>         0.1030
     53 H22       -11.0011    1.3839    3.6624 H         1 <0>         0.0916
     54 H23       -10.7713   -0.3513    4.0481 H         1 <0>         0.0867
     55 H24       -12.3795    1.6093    5.4975 H         1 <0>         0.0926
     56 H25       -12.1498   -0.1259    5.8832 H         1 <0>         0.0914
     57 H26       -10.9875    1.3510    7.6707 H         1 <0>         0.4382
     58 H27        -5.6719    0.2583    3.7840 H         1 <0>         0.4243
@<TRIPOS>BOND
     1    1    6 ar
     2    1    2 ar
     3    1   32 1
     4    2    3 ar
     5    2   33 1
     6    3    4 ar
     7    3   31 1
     8    4    5 ar
     9    4   34 1
    10    5    6 ar
    11    5   35 1
    12    6    7 1
    13    7   11 1
    14    7    8 1
    15    8    9 2
    16    8   36 1
    17    9   10 1
    18    9   17 1
    19   10   15 ar
    20   10   11 ar
    21   11   12 ar
    22   12   13 ar
    23   12   37 1
    24   13   14 ar
    25   13   38 1
    26   14   15 ar
    27   14   16 1
    28   15   39 1
    29   17   22 1
    30   17   18 1
    31   17   40 1
    32   18   19 1
    33   18   41 1
    34   18   42 1
    35   19   20 1
    36   19   43 1
    37   19   44 1
    38   20   21 1
    39   20   23 1
    40   20   58 1
    41   21   22 1
    42   21   45 1
    43   21   46 1
    44   22   47 1
    45   22   48 1
    46   23   24 1
    47   23   49 1
    48   23   50 1
    49   24   25 1
    50   24   51 1
    51   24   52 1
    52   25   29 am
    53   25   26 1
    54   26   27 1
    55   26   53 1
    56   26   54 1
    57   27   28 1
    58   27   55 1
    59   27   56 1
    60   28   29 am
    61   28   57 1
    62   29   30 2
@<TRIPOS>MOLECULE
ZINC03820936
   49    53     0     0     0
SMALL
USER_CHARGES
3-(1-naphthylsulfonyl)-5-piperazin-1-yl-1H-indazole
@<TRIPOS>ATOM
      1 C1          5.9965    0.8739   -4.4161 C.ar      1 <0>        -0.1193
      2 C2          5.9834    1.3070   -3.0914 C.ar      1 <0>        -0.0775
      3 C3          5.1017    0.7890   -2.1934 C.ar      1 <0>        -0.1462
      4 C4          4.1889   -0.1974   -2.6048 C.ar      1 <0>         0.0279
      5 C5          4.2021   -0.6376   -3.9521 C.ar      1 <0>        -0.0744
      6 C6          5.1278   -0.0794   -4.8504 C.ar      1 <0>        -0.0906
      7 C7          3.2901   -1.6241   -4.3634 C.ar      1 <0>        -0.0295
      8 C8          2.4084   -2.1426   -3.4652 C.ar      1 <0>        -0.1526
      9 C9          2.3999   -1.7147   -2.1393 C.ar      1 <0>         0.0161
     10 C10         3.2644   -0.7564   -1.7065 C.ar      1 <0>        -0.6561
     11 S1          3.2291   -0.2250   -0.0269 S.o2      1 <0>         2.6121
     12 O1          4.5709   -0.2631    0.4394 O.2       1 <0>        -0.9054
     13 O2          2.1819   -0.9477    0.6058 O.2       1 <0>        -0.9223
     14 C11         2.7437    1.4688   -0.0265 C.2       1 <0>        -0.4566
     15 C12         1.3740    1.9706   -0.0686 C.ar      1 <0>        -0.0927
     16 C13         0.1165    1.3578   -0.1181 C.ar      1 <0>        -0.0593
     17 C14        -1.0196    2.1410   -0.1538 C.ar      1 <0>         0.0632
     18 C15        -0.9172    3.5326   -0.1301 C.ar      1 <0>        -0.1119
     19 C16         0.3033    4.1418   -0.0819 C.ar      1 <0>        -0.0966
     20 C17         1.4657    3.3752   -0.0504 C.ar      1 <0>         0.1150
     21 N1          2.8026    3.6824   -0.0007 N.pl3     1 <0>        -0.4783
     22 H1          3.1853    4.6060    0.0225 H         1 <0>         0.4591
     23 N2          3.5435    2.4962    0.0123 N.2       1 <0>        -0.1040
     24 N3         -2.2806    1.5366   -0.2092 N.pl3     1 <0>        -0.4821
     25 C18        -2.4696    0.6086    0.9145 C.3       1 <0>         0.0176
     26 C19        -3.8246   -0.0891    0.7741 C.3       1 <0>         0.0007
     27 C20        -4.7028    1.8487   -0.3802 C.3       1 <0>         0.0015
     28 C21        -3.3478    2.5464   -0.2398 C.3       1 <0>         0.0175
     29 H2          6.7071    1.3010   -5.1083 H         1 <0>         0.1327
     30 H3          6.6837    2.0649   -2.7726 H         1 <0>         0.1333
     31 H4          5.1031    1.1344   -1.1701 H         1 <0>         0.1392
     32 H5          5.1498   -0.4054   -5.8797 H         1 <0>         0.1358
     33 H6          3.2884   -1.9689   -5.3869 H         1 <0>         0.1407
     34 H7          1.7084   -2.9008   -3.7840 H         1 <0>         0.1397
     35 H8          1.6932   -2.1459   -1.4457 H         1 <0>         0.1478
     36 H9          0.0360    0.2809   -0.1328 H         1 <0>         0.1485
     37 H10        -1.8136    4.1344   -0.1539 H         1 <0>         0.1402
     38 H11         0.3678    5.2198   -0.0685 H         1 <0>         0.1407
     39 H12        -1.6744   -0.1368    0.9083 H         1 <0>         0.1332
     40 H13        -2.4415    1.1630    1.8526 H         1 <0>         0.0719
     41 H14        -3.9796   -0.7564    1.6218 H         1 <0>         0.1426
     42 H15        -3.8427   -0.6655   -0.1509 H         1 <0>         0.1418
     43 H16        -5.4980    2.5941   -0.3740 H         1 <0>         0.1411
     44 H17        -4.7310    1.2947   -1.3185 H         1 <0>         0.1410
     45 H18        -3.3297    3.1228    0.6851 H         1 <0>         0.0724
     46 H19        -3.1926    3.2140   -1.0874 H         1 <0>         0.1298
     47 N4         -4.8993    0.9212    0.7500 N.4       1 <0>        -0.5194
     48 H20        -4.8863    1.4509    1.6294 H         1 <0>         0.4314
     49 H21        -5.8056    0.4496    0.6479 H         1 <0>         0.4403
@<TRIPOS>BOND
     1    1    6 ar
     2    1    2 ar
     3    1   29 1
     4    2    3 ar
     5    2   30 1
     6    3    4 ar
     7    3   31 1
     8    4   10 ar
     9    4    5 ar
    10    5    6 ar
    11    5    7 ar
    12    6   32 1
    13    7    8 ar
    14    7   33 1
    15    8    9 ar
    16    8   34 1
    17    9   10 ar
    18    9   35 1
    19   10   11 1
    20   11   12 2
    21   11   13 2
    22   11   14 1
    23   14   23 2
    24   14   15 1
    25   15   20 ar
    26   15   16 ar
    27   16   17 ar
    28   16   36 1
    29   17   18 ar
    30   17   24 1
    31   18   19 ar
    32   18   37 1
    33   19   20 ar
    34   19   38 1
    35   20   21 1
    36   21   22 1
    37   21   23 1
    38   24   28 1
    39   24   25 1
    40   25   26 1
    41   25   39 1
    42   25   40 1
    43   26   41 1
    44   26   42 1
    45   26   47 1
    46   27   28 1
    47   27   43 1
    48   27   44 1
    49   27   47 1
    50   28   45 1
    51   28   46 1
    52   47   48 1
    53   47   49 1
@<TRIPOS>MOLECULE
ZINC00004076
   49    51     0     0     0
SMALL
USER_CHARGES

@<TRIPOS>ATOM
      1 C1         -0.0178    1.4608    0.0101 C.3       1 <0>         0.0791
      2 N1          0.0021   -0.0041    0.0020 N.pl3     1 <0>        -1.1231
      3 S1          0.7184   -0.8155   -1.2513 S.o2      1 <0>         2.6114
      4 O1          0.5323   -2.1909   -0.9462 O.2       1 <0>        -0.9564
      5 O2          0.1475   -0.2497   -2.4231 O.2       1 <0>        -0.9490
      6 C2          2.4769   -0.3837   -1.1417 C.3       1 <0>        -0.6258
      7 C3          3.2451   -1.0851   -2.2637 C.3       1 <0>        -0.0696
      8 C4          4.7059   -0.7263   -2.1728 C.ar      1 <0>        -0.0915
      9 C5          5.1845    0.3886   -2.8476 C.ar      1 <0>        -0.0886
     10 C6          6.5162    0.7338   -2.7781 C.ar      1 <0>        -0.1201
     11 C7          7.3924   -0.0406   -2.0244 C.ar      1 <0>         0.0958
     12 C8          6.9024   -1.1689   -1.3421 C.ar      1 <0>        -0.0962
     13 C9          5.5477   -1.4976   -1.4223 C.ar      1 <0>        -0.0731
     14 C10         8.0540   -1.7580   -0.6546 C.2       1 <0>        -0.1861
     15 C11         9.1180   -0.9927   -0.9451 C.2       1 <0>         0.0687
     16 N2          8.7418    0.0382   -1.7624 N.pl3     1 <0>        -0.5890
     17 H1          9.3371    0.7228   -2.1057 H         1 <0>         0.4215
     18 C12         8.0458   -2.9892    0.2143 C.3       1 <0>        -0.0162
     19 C13         8.5253   -2.6254    1.6225 C.3       1 <0>        -0.1394
     20 C14         8.5904   -3.8933    2.4767 C.3       1 <0>        -0.0078
     21 N3          9.5262   -4.8482    1.8709 N.4       1 <0>        -0.3847
     22 C15         9.0353   -5.2566    0.5493 C.3       1 <0>        -0.0079
     23 C16         8.9873   -4.0411   -0.3791 C.3       1 <0>        -0.1397
     24 C17         9.6443   -6.0307    2.7346 C.3       1 <0>        -0.0475
     25 H2          1.0048    1.8381    0.0023 H         1 <0>         0.0585
     26 H3         -0.5450    1.8219   -0.8730 H         1 <0>         0.0714
     27 H4         -0.5280    1.8123    0.9069 H         1 <0>         0.0855
     28 H5         -0.4044   -0.4986    0.7308 H         1 <0>         0.4198
     29 H6          2.5929    0.6955   -1.2415 H         1 <0>         0.1339
     30 H7          2.8702   -0.7038   -0.1769 H         1 <0>         0.1327
     31 H8          3.1291   -2.1643   -2.1640 H         1 <0>         0.0890
     32 H9          2.8517   -0.7650   -3.2286 H         1 <0>         0.0923
     33 H10         4.5060    0.9910   -3.4333 H         1 <0>         0.1326
     34 H11         6.8790    1.6026   -3.3073 H         1 <0>         0.1264
     35 H12         5.1674   -2.3607   -0.8962 H         1 <0>         0.1218
     36 H13        10.1221   -1.1654   -0.5870 H         1 <0>         0.1660
     37 H14         7.0344   -3.3926    0.2653 H         1 <0>         0.0938
     38 H15         9.5160   -2.1744    1.5644 H         1 <0>         0.0866
     39 H16         7.8287   -1.9184    2.0729 H         1 <0>         0.1128
     40 H17         8.9313   -3.6378    3.4800 H         1 <0>         0.1305
     41 H18         7.5993   -4.3433    2.5343 H         1 <0>         0.1292
     42 H19         9.7046   -6.0075    0.1296 H         1 <0>         0.1308
     43 H20         8.0347   -5.6775    0.6480 H         1 <0>         0.1293
     44 H21         8.6209   -4.3460   -1.3593 H         1 <0>         0.1137
     45 H22         9.9876   -3.6195   -0.4787 H         1 <0>         0.0866
     46 H23         8.6664   -6.4994    2.8445 H         1 <0>         0.1218
     47 H24        10.3391   -6.7405    2.2856 H         1 <0>         0.1234
     48 H25        10.0151   -5.7295    3.7143 H         1 <0>         0.1233
     49 H26        10.4317   -4.4141    1.7729 H         1 <0>         0.4234
@<TRIPOS>BOND
     1    1    2 1
     2    1   25 1
     3    1   26 1
     4    1   27 1
     5    2    3 1
     6    2   28 1
     7    3    4 2
     8    3    5 2
     9    3    6 1
    10    6    7 1
    11    6   29 1
    12    6   30 1
    13    7    8 1
    14    7   31 1
    15    7   32 1
    16    8   13 ar
    17    8    9 ar
    18    9   10 ar
    19    9   33 1
    20   10   11 ar
    21   10   34 1
    22   11   16 1
    23   11   12 ar
    24   12   13 ar
    25   12   14 1
    26   13   35 1
    27   14   15 2
    28   14   18 1
    29   15   16 1
    30   15   36 1
    31   16   17 1
    32   18   23 1
    33   18   19 1
    34   18   37 1
    35   19   20 1
    36   19   38 1
    37   19   39 1
    38   20   21 1
    39   20   40 1
    40   20   41 1
    41   21   22 1
    42   21   24 1
    43   21   49 1
    44   22   23 1
    45   22   42 1
    46   22   43 1
    47   23   44 1
    48   23   45 1
    49   24   46 1
    50   24   47 1
    51   24   48 1
@<TRIPOS>MOLECULE
ZINC43172197
   65    69     0     0     0
SMALL
USER_CHARGES

@<TRIPOS>ATOM
      1 C1         -0.0286    1.3393   -0.2252 C.ar      1 <0>        -0.1263
      2 C2          1.1459    2.0527   -0.4528 C.ar      1 <0>        -0.0786
      3 C3          2.3554    1.4279   -0.4646 C.ar      1 <0>        -0.1141
      4 C4          2.4267    0.0417   -0.2440 C.ar      1 <0>         0.1749
      5 C5          1.2312   -0.6814   -0.0123 C.ar      1 <0>        -0.1379
      6 C6          0.0015   -0.0049   -0.0076 C.ar      1 <0>        -0.0808
      7 C7          1.3022   -2.0719    0.2091 C.ar      1 <0>        -0.0101
      8 C8          2.5277   -2.6669    0.1908 C.ar      1 <0>        -0.2219
      9 C9          3.6751   -1.8960   -0.0441 C.ar      1 <0>         0.4164
     10 N1          3.6022   -0.5969   -0.2499 N.ar      1 <0>        -0.5364
     11 N2          4.9157   -2.5156   -0.0597 N.pl3     1 <0>        -0.6257
     12 C10         6.1561   -1.7247   -0.0617 C.3       1 <0>         0.1039
     13 C11         7.0550   -2.2339   -1.1933 C.3       1 <0>        -0.0206
     14 N3          7.2586   -3.6802   -1.0422 N.4       1 <0>        -0.3833
     15 C12         5.9807   -4.3848   -1.2054 C.3       1 <0>        -0.0267
     16 C13         5.0286   -3.9823   -0.0687 C.3       1 <0>         0.1029
     17 C14         8.2075   -4.1484   -2.0613 C.3       1 <0>        -0.0096
     18 C15         8.5167   -5.6286   -1.8285 C.3       1 <0>        -0.1518
     19 C16         9.5049   -6.1163   -2.8898 C.3       1 <0>        -0.1004
     20 C17         9.8142   -7.5965   -2.6570 C.3       1 <0>        -0.0665
     21 C18        10.7876   -8.0768   -3.7024 C.2       1 <0>         0.3883
     22 N4         11.2199   -7.2407   -4.6041 N.2       1 <0>        -0.5267
     23 C19        12.0886   -7.6100   -5.5588 C.2       1 <0>         0.1766
     24 C20        12.5410   -8.8863   -5.5890 C.2       1 <0>        -0.2302
     25 C21        12.0683   -9.7969   -4.6145 C.2       1 <0>         0.5018
     26 O1         12.4462  -10.9567   -4.6149 O.2       1 <0>        -0.5281
     27 N5         11.1974   -9.3604   -3.6824 N.am      1 <0>        -0.3603
     28 N6         10.7293  -10.2158   -2.7257 N.3       1 <0>        -0.6050
     29 C22        13.5308   -9.3829   -6.6065 C.3       1 <0>        -0.0570
     30 C23        13.5949   -8.4333   -7.8017 C.3       1 <0>        -0.1220
     31 C24        13.7948   -7.0072   -7.2746 C.3       1 <0>        -0.1228
     32 C25        12.5148   -6.5724   -6.5633 C.3       1 <0>        -0.0691
     33 H1         -0.9750    1.8595   -0.2168 H         1 <0>         0.1319
     34 H2          1.0963    3.1180   -0.6228 H         1 <0>         0.1338
     35 H3          3.2568    1.9953   -0.6433 H         1 <0>         0.1347
     36 H4         -0.9158   -0.5472    0.1681 H         1 <0>         0.1329
     37 H5          0.4081   -2.6505    0.3889 H         1 <0>         0.1459
     38 H6          2.6152   -3.7304    0.3574 H         1 <0>         0.1363
     39 H7          5.9200   -0.6734   -0.2263 H         1 <0>         0.1390
     40 H8          6.6674   -1.8431    0.8937 H         1 <0>         0.0867
     41 H9          6.5802   -2.0320   -2.1534 H         1 <0>         0.1327
     42 H10         8.0179   -1.7249   -1.1496 H         1 <0>         0.1417
     43 H11         5.5384   -4.1179   -2.1652 H         1 <0>         0.1337
     44 H12         6.1519   -5.4608   -1.1707 H         1 <0>         0.1443
     45 H13         5.4280   -4.3247    0.8860 H         1 <0>         0.0939
     46 H14         4.0467   -4.4242   -0.2380 H         1 <0>         0.1277
     47 H15         7.7700   -4.0200   -3.0514 H         1 <0>         0.1314
     48 H16         9.1286   -3.5697   -1.9932 H         1 <0>         0.1343
     49 H17         8.9541   -5.7571   -0.8384 H         1 <0>         0.0888
     50 H18         7.5955   -6.2073   -1.8966 H         1 <0>         0.0887
     51 H19         9.0675   -5.9878   -3.8799 H         1 <0>         0.0879
     52 H20        10.4261   -5.5376   -2.8217 H         1 <0>         0.0869
     53 H21        10.2516   -7.7249   -1.6669 H         1 <0>         0.0970
     54 H22         8.8930   -8.1752   -2.7251 H         1 <0>         0.1094
     55 H23        11.1245  -11.1372   -2.8399 H         1 <0>         0.3897
     56 H24        10.9101   -9.8570   -1.8002 H         1 <0>         0.3573
     57 H25        14.5168   -9.4487   -6.1464 H         1 <0>         0.0780
     58 H26        13.2281  -10.3723   -6.9494 H         1 <0>         0.0820
     59 H27        14.4313   -8.7078   -8.4445 H         1 <0>         0.0780
     60 H28        12.6638   -8.4893   -8.3657 H         1 <0>         0.0684
     61 H29        14.6289   -6.9887   -6.5732 H         1 <0>         0.0695
     62 H30        13.9992   -6.3336   -8.1068 H         1 <0>         0.0799
     63 H31        11.7223   -6.4381   -7.2996 H         1 <0>         0.0922
     64 H32        12.6920   -5.6271   -6.0505 H         1 <0>         0.0900
     65 H33         7.6323   -3.8721   -0.1248 H         1 <0>         0.4223
@<TRIPOS>BOND
     1    1    6 ar
     2    1    2 ar
     3    1   33 1
     4    2    3 ar
     5    2   34 1
     6    3    4 ar
     7    3   35 1
     8    4   10 ar
     9    4    5 ar
    10    5    6 ar
    11    5    7 ar
    12    6   36 1
    13    7    8 ar
    14    7   37 1
    15    8    9 ar
    16    8   38 1
    17    9   10 ar
    18    9   11 1
    19   11   16 1
    20   11   12 1
    21   12   13 1
    22   12   39 1
    23   12   40 1
    24   13   14 1
    25   13   41 1
    26   13   42 1
    27   14   15 1
    28   14   17 1
    29   14   65 1
    30   15   16 1
    31   15   43 1
    32   15   44 1
    33   16   45 1
    34   16   46 1
    35   17   18 1
    36   17   47 1
    37   17   48 1
    38   18   19 1
    39   18   49 1
    40   18   50 1
    41   19   20 1
    42   19   51 1
    43   19   52 1
    44   20   21 1
    45   20   53 1
    46   20   54 1
    47   21   27 1
    48   21   22 2
    49   22   23 1
    50   23   32 1
    51   23   24 2
    52   24   25 1
    53   24   29 1
    54   25   26 2
    55   25   27 am
    56   27   28 1
    57   28   55 1
    58   28   56 1
    59   29   30 1
    60   29   57 1
    61   29   58 1
    62   30   31 1
    63   30   59 1
    64   30   60 1
    65   31   32 1
    66   31   61 1
    67   31   62 1
    68   32   63 1
    69   32   64 1
@<TRIPOS>MOLECULE
ZINC43172197
   66    70     0     0     0
SMALL
USER_CHARGES

@<TRIPOS>ATOM
      1 C1         -1.1440   -0.8993   -0.0171 C.ar      1 <0>        -0.1033
      2 C2         -1.0157   -2.2859   -0.0512 C.ar      1 <0>        -0.0204
      3 C3          0.2105   -2.8771   -0.0661 C.ar      1 <0>        -0.1497
      4 C4          1.3688   -2.0814   -0.0474 C.ar      1 <0>         0.1557
      5 C5          1.2360   -0.6719   -0.0132 C.ar      1 <0>        -0.1140
      6 C6         -0.0440   -0.0963    0.0018 C.ar      1 <0>        -0.0476
      7 C7          2.3976    0.1267    0.0055 C.ar      1 <0>         0.0854
      8 C8          3.6094   -0.4958   -0.0102 C.ar      1 <0>        -0.2269
      9 C9          3.6751   -1.8960   -0.0441 C.ar      1 <0>         0.4969
     10 N1          2.5859   -2.6367   -0.0619 N.ar      1 <0>        -0.5138
     11 N2          4.9157   -2.5156   -0.0597 N.pl3     1 <0>        -0.6162
     12 C10         6.1531   -1.7280   -0.1716 C.3       1 <0>         0.0894
     13 C11         7.0086   -2.3243   -1.2943 C.3       1 <0>        -0.0234
     14 N3          7.2215   -3.7546   -1.0390 N.4       1 <0>        -0.3866
     15 C12         5.9400   -4.4691   -1.0968 C.3       1 <0>        -0.0271
     16 C13         5.0319   -3.9786    0.0413 C.3       1 <0>         0.0772
     17 C14         8.1312   -4.3013   -2.0547 C.3       1 <0>        -0.0113
     18 C15         8.4530   -5.7590   -1.7194 C.3       1 <0>        -0.1526
     19 C16         9.4004   -6.3285   -2.7773 C.3       1 <0>        -0.1013
     20 C17         9.7222   -7.7862   -2.4420 C.3       1 <0>        -0.0650
     21 C18        10.6553   -8.3471   -3.4839 C.2       1 <0>         0.3838
     22 N4         11.0501   -7.5841   -4.4642 N.2       1 <0>        -0.5277
     23 C19        11.8820   -8.0272   -5.4203 C.2       1 <0>         0.1728
     24 C20        12.3360   -9.3022   -5.3686 C.2       1 <0>        -0.2233
     25 C21        11.9039  -10.1338   -4.3084 C.2       1 <0>         0.5008
     26 O1         12.2844  -11.2903   -4.2331 O.2       1 <0>        -0.5229
     27 N5         11.0688   -9.6254   -3.3799 N.am      1 <0>        -0.3604
     28 N6         10.6405  -10.4034   -2.3420 N.3       1 <0>        -0.6058
     29 C22        13.2868   -9.8772   -6.3821 C.3       1 <0>        -0.0594
     30 C23        13.3020   -9.0237   -7.6493 C.3       1 <0>        -0.1222
     31 C24        13.5186   -7.5610   -7.2431 C.3       1 <0>        -0.1237
     32 C25        12.2662   -7.0713   -6.5185 C.3       1 <0>        -0.0677
     33 H1         -2.1283   -0.4551   -0.0100 H         1 <0>         0.1575
     34 H2         -1.9029   -2.9016   -0.0656 H         1 <0>         0.1592
     35 H3          0.2928   -3.9536   -0.0918 H         1 <0>         0.1535
     36 H4         -0.1561    0.9776    0.0279 H         1 <0>         0.1626
     37 H5          2.3287    1.2042    0.0312 H         1 <0>         0.1843
     38 H6          4.5178    0.0882    0.0031 H         1 <0>         0.1823
     39 H7          5.9082   -0.6926   -0.4084 H         1 <0>         0.1453
     40 H8          6.7015   -1.7717    0.7694 H         1 <0>         0.1213
     41 H9          6.4963   -2.1977   -2.2480 H         1 <0>         0.1414
     42 H10         7.9711   -1.8139   -1.3280 H         1 <0>         0.1613
     43 H11         5.4601   -4.2775   -2.0565 H         1 <0>         0.1416
     44 H12         6.1151   -5.5391   -0.9850 H         1 <0>         0.1605
     45 H13         5.4689   -4.2457    1.0034 H         1 <0>         0.1263
     46 H14         4.0452   -4.4318   -0.0547 H         1 <0>         0.1193
     47 H15         7.6552   -4.2502   -3.0340 H         1 <0>         0.1362
     48 H16         9.0529   -3.7196   -2.0679 H         1 <0>         0.1427
     49 H17         8.9289   -5.8101   -0.7402 H         1 <0>         0.0917
     50 H18         7.5313   -6.3408   -1.7062 H         1 <0>         0.0876
     51 H19         8.9244   -6.2774   -3.7565 H         1 <0>         0.0892
     52 H20        10.3221   -5.7467   -2.7904 H         1 <0>         0.0896
     53 H21        10.1981   -7.8373   -1.4627 H         1 <0>         0.0969
     54 H22         8.8005   -8.3680   -2.4288 H         1 <0>         0.1081
     55 H23        11.0332  -11.3311   -2.3993 H         1 <0>         0.3914
     56 H24        10.8562   -9.9736   -1.4549 H         1 <0>         0.3562
     57 H25        14.2901   -9.9074   -5.9571 H         1 <0>         0.0800
     58 H26        12.9735  -10.8902   -6.6347 H         1 <0>         0.0835
     59 H27        14.1134   -9.3480   -8.3008 H         1 <0>         0.0798
     60 H28        12.3498   -9.1230   -8.1704 H         1 <0>         0.0684
     61 H29        14.3793   -7.4882   -6.5784 H         1 <0>         0.0701
     62 H30        13.6889   -6.9544   -8.1326 H         1 <0>         0.0809
     63 H31        11.4454   -6.9945   -7.2316 H         1 <0>         0.0916
     64 H32        12.4609   -6.0890   -6.0882 H         1 <0>         0.0889
     65 H33         2.6678   -3.6029   -0.0853 H         1 <0>         0.4330
     66 H34         7.6311   -3.8745   -0.1247 H         1 <0>         0.4283
@<TRIPOS>BOND
     1    1    6 ar
     2    1    2 ar
     3    1   33 1
     4    2    3 ar
     5    2   34 1
     6    3    4 ar
     7    3   35 1
     8    4   10 ar
     9    4    5 ar
    10    5    6 ar
    11    5    7 ar
    12    6   36 1
    13    7    8 ar
    14    7   37 1
    15    8    9 ar
    16    8   38 1
    17    9   10 ar
    18    9   11 1
    19   10   65 1
    20   11   16 1
    21   11   12 1
    22   12   13 1
    23   12   39 1
    24   12   40 1
    25   13   14 1
    26   13   41 1
    27   13   42 1
    28   14   15 1
    29   14   17 1
    30   14   66 1
    31   15   16 1
    32   15   43 1
    33   15   44 1
    34   16   45 1
    35   16   46 1
    36   17   18 1
    37   17   47 1
    38   17   48 1
    39   18   19 1
    40   18   49 1
    41   18   50 1
    42   19   20 1
    43   19   51 1
    44   19   52 1
    45   20   21 1
    46   20   53 1
    47   20   54 1
    48   21   27 1
    49   21   22 2
    50   22   23 1
    51   23   32 1
    52   23   24 2
    53   24   25 1
    54   24   29 1
    55   25   26 2
    56   25   27 am
    57   27   28 1
    58   28   55 1
    59   28   56 1
    60   29   30 1
    61   29   57 1
    62   29   58 1
    63   30   31 1
    64   30   59 1
    65   30   60 1
    66   31   32 1
    67   31   61 1
    68   31   62 1
    69   32   63 1
    70   32   64 1
@<TRIPOS>MOLECULE
ZINC00018635
   36    38     0     0     0
SMALL
USER_CHARGES

@<TRIPOS>ATOM
      1 C1         -0.0178    1.4648    0.0101 C.3       1 <0>        -0.0518
      2 N1          0.0021   -0.0041    0.0020 N.4       1 <0>        -0.5073
      3 C2         -1.3761   -0.5125    0.0124 C.3       1 <0>         0.0240
      4 H1         -1.9294   -0.0810   -0.8217 H         1 <0>         0.1441
      5 C3         -2.0537   -0.1255    1.3300 C.3       1 <0>        -0.1358
      6 C4         -3.5525   -0.4328    1.2418 C.3       1 <0>        -0.0551
      7 C5         -3.7256   -1.8515    0.7522 C.2       1 <0>         0.0748
      8 C6         -2.7479   -2.5609    0.1494 C.2       1 <0>        -0.1709
      9 C7         -3.3002   -3.8628   -0.1656 C.ar      1 <0>        -0.1091
     10 C8         -2.7645   -4.9937   -0.7814 C.ar      1 <0>        -0.0006
     11 C9         -3.6158   -6.0942   -0.9175 C.ar      1 <0>        -0.1611
     12 C10        -4.9370   -6.0596   -0.4586 C.ar      1 <0>        -0.0638
     13 C11        -5.4723   -4.9535    0.1466 C.ar      1 <0>        -0.1286
     14 C12        -4.6437   -3.8400    0.2959 C.ar      1 <0>         0.1249
     15 N2         -4.8628   -2.6115    0.8420 N.pl3     1 <0>        -0.5734
     16 H2         -5.6991   -2.3182    1.2364 H         1 <0>         0.4237
     17 C13        -3.1086   -7.3223   -1.5615 C.2       1 <0>         0.5634
     18 O1         -1.9630   -7.3679   -1.9659 O.2       1 <0>        -0.5435
     19 N3         -3.9157   -8.3926   -1.7011 N.am      1 <0>        -0.8501
     20 C14        -1.3590   -2.0399   -0.1203 C.3       1 <0>        -0.0598
     21 H3          1.0047    1.8421    0.0024 H         1 <0>         0.1286
     22 H4         -0.5450    1.8259   -0.8730 H         1 <0>         0.1246
     23 H5         -0.5280    1.8163    0.9069 H         1 <0>         0.1248
     24 H6          0.4744   -0.3295   -0.8281 H         1 <0>         0.4335
     25 H7         -1.6130   -0.6969    2.1470 H         1 <0>         0.0969
     26 H8         -1.9112    0.9396    1.5129 H         1 <0>         0.0988
     27 H9         -4.0063   -0.3278    2.2273 H         1 <0>         0.1011
     28 H10        -4.0267    0.2560    0.5425 H         1 <0>         0.0967
     29 H11        -1.7443   -5.0179   -1.1351 H         1 <0>         0.1451
     30 H12        -5.5563   -6.9351   -0.5863 H         1 <0>         0.1307
     31 H13        -6.4947   -4.9432    0.4943 H         1 <0>         0.1403
     32 H14        -4.8297   -8.3562   -1.3784 H         1 <0>         0.4015
     33 H15        -3.5825   -9.1994   -2.1242 H         1 <0>         0.4086
     34 H16        -1.0535   -2.3162   -1.1295 H         1 <0>         0.1002
     35 H17        -0.6630   -2.4625    0.6043 H         1 <0>         0.0949
     36 H18         0.4901   -0.3383    0.8195 H         1 <0>         0.4296
@<TRIPOS>BOND
     1    1    2 1
     2    1   21 1
     3    1   22 1
     4    1   23 1
     5    2    3 1
     6    2   24 1
     7    2   36 1
     8    3    4 1
     9    3   20 1
    10    3    5 1
    11    5    6 1
    12    5   25 1
    13    5   26 1
    14    6    7 1
    15    6   27 1
    16    6   28 1
    17    7   15 1
    18    7    8 2
    19    8    9 1
    20    8   20 1
    21    9   14 ar
    22    9   10 ar
    23   10   11 ar
    24   10   29 1
    25   11   12 ar
    26   11   17 1
    27   12   13 ar
    28   12   30 1
    29   13   14 ar
    30   13   31 1
    31   14   15 1
    32   15   16 1
    33   17   18 2
    34   17   19 am
    35   19   32 1
    36   19   33 1
    37   20   34 1
    38   20   35 1
@<TRIPOS>MOLECULE
ZINC00014360
   42    43     0     0     0
SMALL
USER_CHARGES

@<TRIPOS>ATOM
      1 C1         -0.0178    1.4608    0.0101 C.3       1 <0>         0.0793
      2 N1          0.0021   -0.0041    0.0020 N.pl3     1 <0>        -1.1235
      3 S1          0.7421   -0.8289    1.2326 S.o2      1 <0>         2.6084
      4 O1          0.5924   -2.2002    0.8914 O.2       1 <0>        -0.9468
      5 O2          2.0334   -0.2448    1.3355 O.2       1 <0>        -0.9510
      6 C2         -0.2382   -0.4417    2.7090 C.3       1 <0>        -0.5828
      7 C3          0.3516   -1.1474    3.9028 C.ar      1 <0>        -0.1049
      8 C4         -0.0784   -2.4267    4.2282 C.ar      1 <0>        -0.0826
      9 C5          0.4473   -3.0893    5.3155 C.ar      1 <0>        -0.1137
     10 C6          1.4193   -2.4726    6.0968 C.ar      1 <0>         0.1042
     11 C7          1.8519   -1.1765    5.7625 C.ar      1 <0>        -0.0991
     12 C8          1.3091   -0.5253    4.6530 C.ar      1 <0>        -0.0640
     13 C9          2.8614   -0.8166    6.7612 C.2       1 <0>        -0.2000
     14 C10         2.9754   -1.8603    7.5977 C.2       1 <0>         0.0879
     15 N2          2.1214   -2.8591    7.2163 N.pl3     1 <0>        -0.5851
     16 H1          2.0253   -3.7124    7.6673 H         1 <0>         0.4255
     17 C11         3.6270    0.4793    6.8351 C.3       1 <0>        -0.0627
     18 C12         2.7992    1.5182    7.5943 C.3       1 <0>        -0.0095
     19 N3          3.5455    2.7814    7.6664 N.4       1 <0>        -0.3881
     20 C13         3.7116    3.3299    6.3138 C.3       1 <0>        -0.0545
     21 C14         2.8051    3.7410    8.4964 C.3       1 <0>        -0.0469
     22 H2          1.0048    1.8381    0.0023 H         1 <0>         0.0693
     23 H3         -0.5450    1.8219   -0.8730 H         1 <0>         0.0876
     24 H4         -0.5280    1.8123    0.9069 H         1 <0>         0.0574
     25 H5         -0.4183   -0.4908   -0.7241 H         1 <0>         0.4222
     26 H6         -0.2266    0.6346    2.8808 H         1 <0>         0.1378
     27 H7         -1.2653   -0.7750    2.5608 H         1 <0>         0.1453
     28 H8         -0.8329   -2.9072    3.6230 H         1 <0>         0.1399
     29 H9          0.1057   -4.0841    5.5609 H         1 <0>         0.1340
     30 H10         1.6421    0.4681    4.3911 H         1 <0>         0.1262
     31 H11         3.6421   -1.9048    8.4461 H         1 <0>         0.1761
     32 H12         4.5701    0.3149    7.3563 H         1 <0>         0.0931
     33 H13         3.8275    0.8410    5.8266 H         1 <0>         0.0945
     34 H14         1.8561    1.6826    7.0732 H         1 <0>         0.1293
     35 H15         2.5988    1.1565    8.6029 H         1 <0>         0.1303
     36 H16         4.2654    4.2672    6.3673 H         1 <0>         0.1245
     37 H17         4.2611    2.6179    5.6980 H         1 <0>         0.1265
     38 H18         2.7316    3.5116    5.8726 H         1 <0>         0.1219
     39 H19         2.6818    3.3340    9.5001 H         1 <0>         0.1225
     40 H20         3.3588    4.6783    8.5499 H         1 <0>         0.1241
     41 H21         1.8251    3.9226    8.0552 H         1 <0>         0.1209
     42 H22         4.4527    2.6132    8.0749 H         1 <0>         0.4266
@<TRIPOS>BOND
     1    1    2 1
     2    1   22 1
     3    1   23 1
     4    1   24 1
     5    2    3 1
     6    2   25 1
     7    3    4 2
     8    3    5 2
     9    3    6 1
    10    6    7 1
    11    6   26 1
    12    6   27 1
    13    7   12 ar
    14    7    8 ar
    15    8    9 ar
    16    8   28 1
    17    9   10 ar
    18    9   29 1
    19   10   15 1
    20   10   11 ar
    21   11   12 ar
    22   11   13 1
    23   12   30 1
    24   13   14 2
    25   13   17 1
    26   14   15 1
    27   14   31 1
    28   15   16 1
    29   17   18 1
    30   17   32 1
    31   17   33 1
    32   18   19 1
    33   18   34 1
    34   18   35 1
    35   19   20 1
    36   19   21 1
    37   19   42 1
    38   20   36 1
    39   20   37 1
    40   20   38 1
    41   21   39 1
    42   21   40 1
    43   21   41 1
@<TRIPOS>MOLECULE
ZINC02516053
   32    32     0     0     0
SMALL
USER_CHARGES

@<TRIPOS>ATOM
      1 C1         -0.0187    1.5258    0.0104 C.3       1 <0>        -0.1837
      2 C2          0.0021   -0.0041    0.0020 C.3       1 <0>         0.0344
      3 H1          0.5293   -0.3651    0.8851 H         1 <0>         0.1407
      4 C3          0.7182   -0.4975   -1.2568 C.3       1 <0>        -0.0944
      5 C4          0.8473   -1.9981   -1.2057 C.ar      1 <0>        -0.0941
      6 C5          2.0025   -2.5757   -0.7149 C.ar      1 <0>        -0.1590
      7 C6          2.1215   -3.9563   -0.6678 C.ar      1 <0>         0.1458
      8 C7          1.0802   -4.7580   -1.1137 C.ar      1 <0>        -0.0982
      9 C8         -0.0748   -4.1803   -1.6044 C.ar      1 <0>        -0.1178
     10 C9         -0.1957   -2.7990   -1.6460 C.ar      1 <0>         0.0662
     11 O1         -1.3349   -2.2303   -2.1234 O.3       1 <0>        -0.3399
     12 C10        -2.3683   -3.1155   -2.5599 C.3       1 <0>         0.0160
     13 I1          1.2600   -6.8441   -1.0433 I         1 <0>         0.0067
     14 O2          3.2588   -4.5247   -0.1852 O.3       1 <0>        -0.2969
     15 C11         4.2899   -3.6392    0.2560 C.3       1 <0>         0.0216
     16 N1         -1.3761   -0.5125    0.0124 N.4       1 <0>        -0.6338
     17 H2          1.0039    1.9031    0.0027 H         1 <0>         0.1075
     18 H3         -0.5459    1.8868   -0.8726 H         1 <0>         0.0843
     19 H4         -0.5289    1.8773    0.9072 H         1 <0>         0.0848
     20 H5          0.1430   -0.2121   -2.1375 H         1 <0>         0.1074
     21 H6          1.7103   -0.0491   -1.3098 H         1 <0>         0.1218
     22 H7          2.8130   -1.9517   -0.3683 H         1 <0>         0.1510
     23 H8         -0.8853   -4.8040   -1.9514 H         1 <0>         0.1495
     24 H9         -2.6820   -3.7459   -1.7280 H         1 <0>         0.0642
     25 H10        -3.2186   -2.5338   -2.9159 H         1 <0>         0.1133
     26 H11        -1.9924   -3.7419   -3.3689 H         1 <0>         0.0693
     27 H12         4.6073   -3.0087   -0.5745 H         1 <0>         0.0621
     28 H13         3.9101   -3.0129    1.0633 H         1 <0>         0.0598
     29 H14         5.1387   -4.2206    0.6159 H         1 <0>         0.1128
     30 H15        -1.8641   -0.1783   -0.8050 H         1 <0>         0.4349
     31 H16        -1.3624   -1.5214    0.0069 H         1 <0>         0.4309
     32 H17        -1.8484   -0.1871    0.8426 H         1 <0>         0.4329
@<TRIPOS>BOND
     1    1    2 1
     2    1   17 1
     3    1   18 1
     4    1   19 1
     5    2    3 1
     6    2    4 1
     7    2   16 1
     8    4    5 1
     9    4   20 1
    10    4   21 1
    11    5   10 ar
    12    5    6 ar
    13    6    7 ar
    14    6   22 1
    15    7    8 ar
    16    7   14 1
    17    8    9 ar
    18    8   13 1
    19    9   10 ar
    20    9   23 1
    21   10   11 1
    22   11   12 1
    23   12   24 1
    24   12   25 1
    25   12   26 1
    26   14   15 1
    27   15   27 1
    28   15   28 1
    29   15   29 1
    30   16   30 1
    31   16   31 1
    32   16   32 1
@<TRIPOS>MOLECULE
ZINC53064442
   59    62     0     0     0
SMALL
USER_CHARGES

@<TRIPOS>ATOM
      1 C1         -0.0173    1.4248    0.0099 C.3       1 <0>         0.0252
      2 O1          0.0021   -0.0041    0.0020 O.3       1 <0>        -0.3038
      3 C2          0.6063   -0.6076   -1.0566 C.ar      1 <0>         0.1200
      4 C3          1.1727    0.1584   -2.0619 C.ar      1 <0>        -0.2067
      5 C4          1.7862   -0.4565   -3.1379 C.ar      1 <0>        -0.0837
      6 C5          1.8369   -1.8361   -3.2138 C.ar      1 <0>        -0.1522
      7 C6          1.2745   -2.6077   -2.2144 C.ar      1 <0>        -0.0880
      8 C7          0.6620   -1.9977   -1.1294 C.ar      1 <0>         0.1392
      9 N1          0.0968   -2.7768   -0.1132 N.pl3     1 <0>        -0.6682
     10 C8         -1.3056   -3.2137   -0.1884 C.3       1 <0>         0.1543
     11 C9         -1.3570   -4.7276    0.0431 C.3       1 <0>         0.0432
     12 N2         -0.6724   -5.0507    1.3020 N.3       1 <0>        -0.5286
     13 C10         0.7517   -4.6956    1.2405 C.3       1 <0>         0.0373
     14 C11         0.8913   -3.1855    1.0551 C.3       1 <0>         0.1540
     15 C12        -0.8472   -6.4678    1.6476 C.3       1 <0>         0.0496
     16 C13        -0.3417   -6.7116    3.0710 C.3       1 <0>         0.0947
     17 N3         -0.5160   -8.1248    3.4157 N.am      1 <0>        -0.5648
     18 C14        -1.6686   -8.5092    3.9834 C.2       1 <0>         0.5224
     19 O2         -2.5368   -7.6868    4.1818 O.2       1 <0>        -0.4928
     20 C15        -1.9055   -9.9436    4.3791 C.3       1 <0>        -0.1313
     21 C16        -1.0927  -10.8580    3.4640 C.3       1 <0>        -0.0666
     22 C17        -1.2370  -12.3190    3.9117 C.3       1 <0>        -0.1127
     23 C18        -1.8643  -13.0802    2.7242 C.3       1 <0>        -0.1253
     24 C19        -1.5011  -12.2210    1.4873 C.3       1 <0>        -0.1236
     25 C20        -1.6310  -10.7733    2.0249 C.3       1 <0>        -0.1241
     26 C21         0.3768  -10.4406    3.4955 C.3       1 <0>        -0.1304
     27 C22         0.4818   -8.9790    3.1448 C.2       1 <0>         0.5233
     28 O3          1.4894   -8.5664    2.6118 O.2       1 <0>        -0.4984
     29 H1          1.0053    1.8021    0.0021 H         1 <0>         0.0536
     30 H2         -0.5445    1.7859   -0.8732 H         1 <0>         0.0536
     31 H3         -0.5275    1.7763    0.9067 H         1 <0>         0.0992
     32 H4          1.1348    1.2363   -2.0057 H         1 <0>         0.1276
     33 H5          2.2267    0.1425   -3.9212 H         1 <0>         0.1244
     34 H6          2.3168   -2.3119   -4.0562 H         1 <0>         0.1237
     35 H7          1.3151   -3.6852   -2.2764 H         1 <0>         0.1250
     36 H8         -1.8890   -2.7058    0.5796 H         1 <0>         0.0594
     37 H9         -1.7097   -2.9800   -1.1734 H         1 <0>         0.0701
     38 H10        -2.3961   -5.0517    0.1006 H         1 <0>         0.0801
     39 H11        -0.8612   -5.2388   -0.7821 H         1 <0>         0.0352
     40 H12         1.2419   -4.9966    2.1663 H         1 <0>         0.0816
     41 H13         1.2181   -5.2073    0.3986 H         1 <0>         0.0367
     42 H14         1.9390   -2.9332    0.8918 H         1 <0>         0.0699
     43 H15         0.5231   -2.6749    1.9450 H         1 <0>         0.0584
     44 H16        -1.9037   -6.7288    1.5875 H         1 <0>         0.0781
     45 H17        -0.2804   -7.0845    0.9501 H         1 <0>         0.0366
     46 H18         0.7149   -6.4507    3.1310 H         1 <0>         0.0953
     47 H19        -0.9085   -6.0950    3.7685 H         1 <0>         0.1048
     48 H20        -1.5937  -10.0924    5.4129 H         1 <0>         0.1126
     49 H21        -2.9654  -10.1783    4.2802 H         1 <0>         0.1162
     50 H22        -0.2581  -12.7361    4.1480 H         1 <0>         0.0750
     51 H23        -1.8902  -12.3805    4.7822 H         1 <0>         0.0752
     52 H24        -1.4301  -14.0763    2.6375 H         1 <0>         0.0698
     53 H25        -2.9462  -13.1434    2.8404 H         1 <0>         0.0689
     54 H26        -0.4799  -12.4224    1.1636 H         1 <0>         0.0695
     55 H27        -2.2064  -12.3960    0.6750 H         1 <0>         0.0702
     56 H28        -2.6746  -10.4585    2.0255 H         1 <0>         0.0752
     57 H29        -1.0253  -10.0894    1.4303 H         1 <0>         0.0639
     58 H30         0.7821  -10.6095    4.4932 H         1 <0>         0.1130
     59 H31         0.9381  -11.0285    2.7693 H         1 <0>         0.1151
@<TRIPOS>BOND
     1    1    2 1
     2    1   29 1
     3    1   30 1
     4    1   31 1
     5    2    3 1
     6    3    8 ar
     7    3    4 ar
     8    4    5 ar
     9    4   32 1
    10    5    6 ar
    11    5   33 1
    12    6    7 ar
    13    6   34 1
    14    7    8 ar
    15    7   35 1
    16    8    9 1
    17    9   14 1
    18    9   10 1
    19   10   11 1
    20   10   36 1
    21   10   37 1
    22   11   12 1
    23   11   38 1
    24   11   39 1
    25   12   13 1
    26   12   15 1
    27   13   14 1
    28   13   40 1
    29   13   41 1
    30   14   42 1
    31   14   43 1
    32   15   16 1
    33   15   44 1
    34   15   45 1
    35   16   17 1
    36   16   46 1
    37   16   47 1
    38   17   27 am
    39   17   18 am
    40   18   19 2
    41   18   20 1
    42   20   21 1
    43   20   48 1
    44   20   49 1
    45   21   25 1
    46   21   22 1
    47   21   26 1
    48   22   23 1
    49   22   50 1
    50   22   51 1
    51   23   24 1
    52   23   52 1
    53   23   53 1
    54   24   25 1
    55   24   54 1
    56   24   55 1
    57   25   56 1
    58   25   57 1
    59   26   27 1
    60   26   58 1
    61   26   59 1
    62   27   28 2
@<TRIPOS>MOLECULE
ZINC00005452
   39    41     0     0     0
SMALL
USER_CHARGES
5-methoxy-3-[(1-methylpyrrolidin-2-yl)methyl]-1H-indole
@<TRIPOS>ATOM
      1 C1         -1.6841    9.0297    1.5032 C.3       1 <0>        -0.0368
      2 C2         -3.0315    7.4227    2.7405 C.3       1 <0>        -0.0068
      3 C3         -3.1188    5.8837    2.8256 C.3       1 <0>        -0.1503
      4 C4         -1.9302    5.3679    1.9884 C.3       1 <0>        -0.1424
      5 C5         -1.2248    6.6387    1.4679 C.3       1 <0>         0.0298
      6 H1         -0.4009    6.9130    2.1268 H         1 <0>         0.1384
      7 C6         -0.7160    6.4203    0.0416 C.3       1 <0>        -0.0465
      8 C7          0.3684    5.3738    0.0498 C.2       1 <0>        -0.2067
      9 C8          1.6886    5.5931    0.1542 C.2       1 <0>         0.0924
     10 N1          2.3630    4.4032    0.1252 N.pl3     1 <0>        -0.5867
     11 H2          3.3263    4.3069    0.1857 H         1 <0>         0.4229
     12 C9          1.4688    3.3611   -0.0020 C.ar      1 <0>         0.0611
     13 C10         0.1812    3.9246   -0.0546 C.ar      1 <0>        -0.0557
     14 C11        -0.9373    3.0988   -0.1842 C.ar      1 <0>        -0.1291
     15 C12        -0.7694    1.7306   -0.2647 C.ar      1 <0>         0.1169
     16 C13         0.5062    1.1756   -0.2070 C.ar      1 <0>        -0.1757
     17 C14         1.6164    1.9805   -0.0796 C.ar      1 <0>        -0.0788
     18 O1         -1.8546    0.9217   -0.3958 O.3       1 <0>        -0.3181
     19 C15        -1.6107   -0.4845   -0.4680 C.3       1 <0>         0.0252
     20 H3         -1.1449    9.1994    0.5712 H         1 <0>         0.1237
     21 H4         -2.4730    9.7745    1.6074 H         1 <0>         0.1231
     22 H5         -0.9935    9.1119    2.3425 H         1 <0>         0.1172
     23 H6         -4.0294    7.8574    2.6826 H         1 <0>         0.1356
     24 H7         -2.4935    7.8210    3.6007 H         1 <0>         0.1301
     25 H8         -4.0603    5.5339    2.4020 H         1 <0>         0.0986
     26 H9         -3.0234    5.5557    3.8607 H         1 <0>         0.1076
     27 H10        -2.2883    4.7650    1.1539 H         1 <0>         0.1023
     28 H11        -1.2509    4.7859    2.6111 H         1 <0>         0.1072
     29 H12        -0.3151    7.3559   -0.3484 H         1 <0>         0.0904
     30 H13        -1.5387    6.0861   -0.5904 H         1 <0>         0.0922
     31 H14         2.1501    6.5651    0.2473 H         1 <0>         0.1729
     32 H15        -1.9275    3.5279   -0.2249 H         1 <0>         0.1272
     33 H16         0.6264    0.1040   -0.2672 H         1 <0>         0.1372
     34 H17         2.6014    1.5396   -0.0395 H         1 <0>         0.1291
     35 H18        -1.1085   -0.8133    0.4418 H         1 <0>         0.0575
     36 H19        -2.5585   -1.0128   -0.5712 H         1 <0>         0.1042
     37 H20        -0.9790   -0.6999   -1.3298 H         1 <0>         0.0581
     38 N2         -2.2807    7.6568    1.5093 N.4       1 <0>        -0.3963
     39 H21        -2.8996    7.5547    0.6964 H         1 <0>         0.4288
@<TRIPOS>BOND
     1    1   20 1
     2    1   21 1
     3    1   22 1
     4    1   38 1
     5    2    3 1
     6    2   23 1
     7    2   24 1
     8    2   38 1
     9    3    4 1
    10    3   25 1
    11    3   26 1
    12    4    5 1
    13    4   27 1
    14    4   28 1
    15    5    6 1
    16    5    7 1
    17    5   38 1
    18    7    8 1
    19    7   29 1
    20    7   30 1
    21    8   13 1
    22    8    9 2
    23    9   10 1
    24    9   31 1
    25   10   11 1
    26   10   12 1
    27   12   17 ar
    28   12   13 ar
    29   13   14 ar
    30   14   15 ar
    31   14   32 1
    32   15   16 ar
    33   15   18 1
    34   16   17 ar
    35   16   33 1
    36   17   34 1
    37   18   19 1
    38   19   35 1
    39   19   36 1
    40   19   37 1
    41   38   39 1
@<TRIPOS>MOLECULE
ZINC03779247
   39    41     0     0     0
SMALL
USER_CHARGES
5-methoxy-3-[(1-methylpyrrolidin-2-yl)methyl]-1H-indole
@<TRIPOS>ATOM
      1 C1         -0.0127    1.0858    0.0080 C.3       1 <0>        -0.0468
      2 C2         -0.0154    1.0869    2.4338 C.3       1 <0>        -0.0141
      3 C3          0.3473    2.3336    3.2677 C.3       1 <0>        -0.1410
      4 C4         -0.6531    3.4018    2.7526 C.3       1 <0>        -0.1410
      5 C5         -0.7548    3.0366    1.2506 C.3       1 <0>         0.0313
      6 H1          0.0848    3.4601    0.6994 H         1 <0>         0.1399
      7 C6         -2.0800    3.5343    0.6700 C.3       1 <0>        -0.0538
      8 C7         -2.1382    3.2084   -0.8002 C.2       1 <0>        -0.2329
      9 C8         -1.7983    4.0222   -1.8122 C.2       1 <0>         0.1039
     10 N1         -1.9828    3.3827   -3.0074 N.pl3     1 <0>        -0.5849
     11 H2         -1.8055    3.7688   -3.8794 H         1 <0>         0.4255
     12 C9         -2.4588    2.1072   -2.7874 C.ar      1 <0>         0.0637
     13 C10        -2.5704    1.9414   -1.3952 C.ar      1 <0>        -0.0724
     14 C11        -3.0413    0.7357   -0.8714 C.ar      1 <0>        -0.1531
     15 C12        -3.3818   -0.2930   -1.7272 C.ar      1 <0>         0.1281
     16 C13        -3.2638   -0.1281   -3.1046 C.ar      1 <0>        -0.1762
     17 C14        -2.8073    1.0592   -3.6324 C.ar      1 <0>        -0.0694
     18 O1         -3.8347   -1.4718   -1.2226 O.3       1 <0>        -0.3174
     19 C15        -4.1698   -2.4941   -2.1632 C.3       1 <0>         0.0239
     20 H3          0.0021   -0.0041    0.0020 H         1 <0>         0.1175
     21 H4          1.0099    1.4631    0.0003 H         1 <0>         0.1169
     22 H5         -0.5399    1.4469   -0.8751 H         1 <0>         0.1301
     23 H6         -0.6800    0.4389    3.0053 H         1 <0>         0.1277
     24 H7          0.8895    0.5431    2.1626 H         1 <0>         0.1310
     25 H8          0.1954    2.1441    4.3303 H         1 <0>         0.1117
     26 H9          1.3745    2.6420    3.0731 H         1 <0>         0.0978
     27 H10        -1.6201    3.3008    3.2453 H         1 <0>         0.0996
     28 H11        -0.2530    4.4071    2.8844 H         1 <0>         0.1164
     29 H12        -2.9080    3.0455    1.1836 H         1 <0>         0.0923
     30 H13        -2.1540    4.6132    0.8063 H         1 <0>         0.1172
     31 H14        -1.4337    5.0326   -1.6996 H         1 <0>         0.1787
     32 H15        -3.1336    0.6067    0.1969 H         1 <0>         0.1190
     33 H16        -3.5332   -0.9388   -3.7654 H         1 <0>         0.1404
     34 H17        -2.7197    1.1762   -4.7025 H         1 <0>         0.1327
     35 H18        -4.5164   -3.3792   -1.6297 H         1 <0>         0.1067
     36 H19        -4.9594   -2.1356   -2.8235 H         1 <0>         0.0605
     37 H20        -3.2894   -2.7473   -2.7537 H         1 <0>         0.0592
     38 N2         -0.7151    1.5608    1.2286 N.4       1 <0>        -0.3921
     39 H21        -1.6745    1.1951    1.2270 H         1 <0>         0.4233
@<TRIPOS>BOND
     1    1   20 1
     2    1   21 1
     3    1   22 1
     4    1   38 1
     5    2    3 1
     6    2   23 1
     7    2   24 1
     8    2   38 1
     9    3    4 1
    10    3   25 1
    11    3   26 1
    12    4    5 1
    13    4   27 1
    14    4   28 1
    15    5    6 1
    16    5    7 1
    17    5   38 1
    18    7    8 1
    19    7   29 1
    20    7   30 1
    21    8   13 1
    22    8    9 2
    23    9   10 1
    24    9   31 1
    25   10   11 1
    26   10   12 1
    27   12   17 ar
    28   12   13 ar
    29   13   14 ar
    30   14   15 ar
    31   14   32 1
    32   15   16 ar
    33   15   18 1
    34   16   17 ar
    35   16   33 1
    36   17   34 1
    37   18   19 1
    38   19   35 1
    39   19   36 1
    40   19   37 1
    41   38   39 1
@<TRIPOS>MOLECULE
ZINC01999162
   37    38     0     0     0
SMALL
USER_CHARGES
N-ethyl-N-[2-(1H-indol-3-yl)ethyl]ethanamine
@<TRIPOS>ATOM
      1 C1          1.3873    2.2514   -2.1830 C.3       1 <0>        -0.1892
      2 C2          0.2573    1.2223   -2.1140 C.3       1 <0>        -0.0094
      3 C3         -2.0225    0.9794   -1.3355 C.3       1 <0>        -0.0123
      4 C4         -2.6897    1.5534   -2.5870 C.3       1 <0>        -0.1894
      5 C5         -0.2424    1.4133    0.2474 C.3       1 <0>        -0.0050
      6 C6         -1.1788    2.0899    1.2505 C.3       1 <0>        -0.0590
      7 C7         -0.6751    1.8481    2.6501 C.2       1 <0>        -0.2040
      8 C8         -1.0728    0.8750    3.4849 C.2       1 <0>         0.0835
      9 N1         -0.3924    0.9685    4.6684 N.pl3     1 <0>        -0.5882
     10 H1         -0.5076    0.3736    5.4258 H         1 <0>         0.4231
     11 C9          0.4758    2.0363    4.6261 C.ar      1 <0>         0.0945
     12 C10         0.3369    2.6342    3.3600 C.ar      1 <0>        -0.1008
     13 C11         1.1037    3.7529    3.0300 C.ar      1 <0>        -0.0842
     14 C12         1.9868    4.2625    3.9400 C.ar      1 <0>        -0.1325
     15 C13         2.1273    3.6767    5.1904 C.ar      1 <0>        -0.0933
     16 C14         1.3805    2.5717    5.5367 C.ar      1 <0>        -0.1219
     17 H2          2.0712    1.9866   -2.9894 H         1 <0>         0.1051
     18 H3          0.9679    3.2395   -2.3721 H         1 <0>         0.0794
     19 H4          1.9280    2.2613   -1.2366 H         1 <0>         0.0802
     20 H5          0.6656    0.2528   -1.8286 H         1 <0>         0.1296
     21 H6         -0.2211    1.1420   -3.0901 H         1 <0>         0.1288
     22 H7         -1.8584   -0.0899   -1.4692 H         1 <0>         0.1297
     23 H8         -2.6678    1.1428   -0.4723 H         1 <0>         0.1303
     24 H9         -2.8672    2.6198   -2.4474 H         1 <0>         0.0803
     25 H10        -2.0379    1.4032   -3.4476 H         1 <0>         0.0788
     26 H11        -3.6393    1.0463   -2.7575 H         1 <0>         0.1054
     27 H12        -0.2137    0.3414    0.4431 H         1 <0>         0.1298
     28 H13         0.7603    1.8282    0.3495 H         1 <0>         0.1294
     29 H14        -1.2076    3.1618    1.0549 H         1 <0>         0.0903
     30 H15        -2.1816    1.6750    1.1485 H         1 <0>         0.0898
     31 H16        -1.8181    0.1277    3.2556 H         1 <0>         0.1725
     32 H17         0.9995    4.2142    2.0590 H         1 <0>         0.1177
     33 H18         2.5803    5.1278    3.6841 H         1 <0>         0.1271
     34 H19         2.8292    4.0909    5.8989 H         1 <0>         0.1316
     35 H20         1.4975    2.1227    6.5119 H         1 <0>         0.1255
     36 N2         -0.7375    1.6773   -1.1200 N.4       1 <0>        -0.3980
     37 H21        -0.8836    2.6873   -1.2326 H         1 <0>         0.4249
@<TRIPOS>BOND
     1    1    2 1
     2    1   17 1
     3    1   18 1
     4    1   19 1
     5    2   20 1
     6    2   21 1
     7    2   36 1
     8    3    4 1
     9    3   22 1
    10    3   23 1
    11    3   36 1
    12    4   24 1
    13    4   25 1
    14    4   26 1
    15    5    6 1
    16    5   27 1
    17    5   28 1
    18    5   36 1
    19    6    7 1
    20    6   29 1
    21    6   30 1
    22    7   12 1
    23    7    8 2
    24    8    9 1
    25    8   31 1
    26    9   10 1
    27    9   11 1
    28   11   16 ar
    29   11   12 ar
    30   12   13 ar
    31   13   14 ar
    32   13   32 1
    33   14   15 ar
    34   14   33 1
    35   15   16 ar
    36   15   34 1
    37   16   35 1
    38   36   37 1
@<TRIPOS>MOLECULE
ZINC22001974
   38    39     0     0     0
SMALL
USER_CHARGES
3-(2-diethylaminoethyl)-1H-indol-4-ol
@<TRIPOS>ATOM
      1 C1          4.1100    4.6708   -2.9756 C.3       1 <0>        -0.1883
      2 C2          2.6994    5.2258   -2.7678 C.3       1 <0>        -0.0114
      3 N1          2.3399    5.1300   -1.3467 N.4       1 <0>        -0.4008
      4 C3          1.2369    6.0435   -1.0199 C.3       1 <0>        -0.0148
      5 C4          1.7478    7.4856   -1.0340 C.3       1 <0>        -0.1890
      6 C5          2.0045    3.7474   -0.9806 C.3       1 <0>        -0.0027
      7 C6          1.8801    3.6385    0.5404 C.3       1 <0>        -0.0569
      8 C7          1.5360    2.2201    0.9160 C.2       1 <0>        -0.1841
      9 C8          0.3068    1.7285    1.1366 C.2       1 <0>         0.0614
     10 N2          0.3869    0.3991    1.4550 N.pl3     1 <0>        -0.6006
     11 H1         -0.5289   -0.1713    1.6693 H         1 <0>         0.4530
     12 C9          1.7030   -0.0057    1.4463 C.ar      1 <0>         0.1474
     13 C10         2.4795    1.1163    1.1086 C.ar      1 <0>        -0.1379
     14 C11         3.8724    1.0016    1.0232 C.ar      1 <0>         0.1974
     15 C12         4.4723   -0.2180    1.2717 C.ar      1 <0>        -0.2426
     16 C13         3.7016   -1.3227    1.6047 C.ar      1 <0>        -0.0517
     17 C14         2.3304   -1.2234    1.6926 C.ar      1 <0>        -0.1702
     18 O1          4.6290    2.0822    0.6976 O.3       1 <0>        -0.5184
     19 H2          4.3792    4.7426   -4.0397 H         1 <0>         0.1042
     20 H3          4.1397    3.6174   -2.6601 H         1 <0>         0.0803
     21 H4          4.8252    5.2534   -2.3764 H         1 <0>         0.0808
     22 H5          2.6697    6.2792   -3.0833 H         1 <0>         0.1295
     23 H6          1.9842    4.6432   -3.3670 H         1 <0>         0.1244
     24 H7          0.4350    5.9313   -1.7645 H         1 <0>         0.1253
     25 H8          0.8454    5.8029   -0.0205 H         1 <0>         0.1315
     26 H9          0.9218    8.1696   -0.7893 H         1 <0>         0.1054
     27 H10         2.1392    7.7261   -2.0335 H         1 <0>         0.0786
     28 H11         2.5497    7.5978   -0.2894 H         1 <0>         0.0812
     29 H12         1.0492    3.4659   -1.4477 H         1 <0>         0.1219
     30 H13         2.7980    3.0720   -1.3329 H         1 <0>         0.1318
     31 H14         2.8354    3.9201    1.0075 H         1 <0>         0.0956
     32 H15         1.0866    4.3139    0.8927 H         1 <0>         0.0851
     33 H16        -0.6096    2.2959    1.0687 H         1 <0>         0.1708
     34 H17         5.5462   -0.3118    1.2068 H         1 <0>         0.1296
     35 H18         4.1819   -2.2705    1.7975 H         1 <0>         0.1318
     36 H19         1.7420   -2.0910    1.9524 H         1 <0>         0.1251
     37 H20         5.7230    1.9879    0.6316 H         1 <0>         0.4384
     38 H21         3.2163    5.4332   -0.7552 H         1 <0>         0.4390
@<TRIPOS>BOND
     1    1    2 1
     2    1   19 1
     3    1   20 1
     4    1   21 1
     5    2    3 1
     6    2   22 1
     7    2   23 1
     8    3    4 1
     9    3    6 1
    10    3   38 1
    11    4    5 1
    12    4   24 1
    13    4   25 1
    14    5   26 1
    15    5   27 1
    16    5   28 1
    17    6    7 1
    18    6   29 1
    19    6   30 1
    20    7    8 1
    21    7   31 1
    22    7   32 1
    23    8   13 1
    24    8    9 2
    25    9   10 1
    26    9   33 1
    27   10   11 1
    28   10   12 1
    29   12   17 ar
    30   12   13 ar
    31   13   14 ar
    32   14   15 ar
    33   14   18 1
    34   15   16 ar
    35   15   34 1
    36   16   17 ar
    37   16   35 1
    38   17   36 1
    39   18   37 1
@<TRIPOS>MOLECULE
ZINC01619832
   48    50     0     0     0
SMALL
USER_CHARGES
2-iodo-4-[2-[4-[3-(trifluoromethyl)phenyl]piperazin-1-yl]ethyl]aniline
@<TRIPOS>ATOM
      1 C1          1.1766    1.7820    0.0004 C.ar      1 <0>        -0.0882
      2 C2         -0.0126    1.0758    0.0080 C.ar      1 <0>        -0.0804
      3 C3         -1.2201    1.7492    0.0174 C.ar      1 <0>        -0.1519
      4 C4         -1.2424    3.1302    0.0307 C.ar      1 <0>        -0.0811
      5 C5         -0.0501    3.8425    0.0232 C.ar      1 <0>         0.0889
      6 C6          1.1615    3.1627    0.0080 C.ar      1 <0>        -0.1327
      7 N1         -0.0690    5.2391    0.0304 N.pl3     1 <0>        -0.4857
      8 C7         -0.8504    5.7611   -1.0995 C.3       1 <0>         0.0235
      9 C8         -0.9132    7.2877   -1.0109 C.3       1 <0>        -0.0055
     10 C9          1.2328    7.3110    0.1085 C.3       1 <0>         0.0037
     11 C10         1.2956    5.7844    0.0199 C.3       1 <0>         0.0190
     12 C11         0.4315    9.3018   -1.0139 C.3       1 <0>        -0.0021
     13 C12        -0.5838    9.8034   -2.0427 C.3       1 <0>        -0.0916
     14 C13        -0.6042   11.3103   -2.0349 C.ar      1 <0>        -0.1708
     15 C14        -1.4746   11.9841   -1.1975 C.ar      1 <0>        -0.0388
     16 C15        -1.4927   13.3649   -1.1841 C.ar      1 <0>        -0.1897
     17 C16        -0.6429   14.0773   -2.0207 C.ar      1 <0>         0.2665
     18 C17         0.2266   13.3975   -2.8646 C.ar      1 <0>        -0.1841
     19 C18         0.2431   12.0159   -2.8690 C.ar      1 <0>        -0.0221
     20 I1          1.5104   14.4658   -4.1294 I         1 <0>        -0.0306
     21 N2         -0.6622   15.4742   -2.0132 N.pl3     1 <0>        -0.8631
     22 C19        -2.5133    0.9755    0.0188 C.3       1 <0>         0.5070
     23 F1         -2.2364   -0.3958    0.0096 F         1 <0>        -0.1710
     24 F2         -3.2469    1.2954    1.1663 F         1 <0>        -0.1722
     25 F3         -3.2573    1.3086   -1.1182 F         1 <0>        -0.1744
     26 H1          2.1181    1.2530   -0.0118 H         1 <0>         0.1440
     27 H2          0.0021   -0.0041    0.0020 H         1 <0>         0.1465
     28 H3         -2.1859    3.6556    0.0425 H         1 <0>         0.1395
     29 H4          2.0904    3.7136    0.0017 H         1 <0>         0.1375
     30 H5         -0.3742    5.4704   -2.0360 H         1 <0>         0.0724
     31 H6         -1.8603    5.3528   -1.0627 H         1 <0>         0.1285
     32 H7         -1.4137    7.5781   -0.0872 H         1 <0>         0.1427
     33 H8         -1.4678    7.6793   -1.8636 H         1 <0>         0.1433
     34 H9          0.7567    7.6017    1.0449 H         1 <0>         0.1415
     35 H10         2.2428    7.7193    0.0716 H         1 <0>         0.1395
     36 H11         1.8501    5.3931    0.8728 H         1 <0>         0.1310
     37 H12         1.7961    5.4940   -0.9039 H         1 <0>         0.0736
     38 H13         0.1495    9.6562   -0.0224 H         1 <0>         0.1339
     39 H14         1.4221    9.6799   -1.2667 H         1 <0>         0.1309
     40 H15        -0.3018    9.4490   -3.0341 H         1 <0>         0.0921
     41 H16        -1.5743    9.4253   -1.7898 H         1 <0>         0.0961
     42 H17        -2.1380   11.4298   -0.5502 H         1 <0>         0.1297
     43 H18        -2.1698   13.8903   -0.5269 H         1 <0>         0.1353
     44 H19         0.9184   11.4865   -3.5249 H         1 <0>         0.1288
     45 H20        -0.0680   15.9706   -2.5976 H         1 <0>         0.4052
     46 H21        -1.2696   15.9477   -1.4236 H         1 <0>         0.4083
     47 N3          0.4636    7.8240   -1.0449 N.4       1 <0>        -0.3988
     48 H22         0.9195    7.5183   -1.9127 H         1 <0>         0.4257
@<TRIPOS>BOND
     1    1    6 ar
     2    1    2 ar
     3    1   26 1
     4    2    3 ar
     5    2   27 1
     6    3    4 ar
     7    3   22 1
     8    4    5 ar
     9    4   28 1
    10    5    6 ar
    11    5    7 1
    12    6   29 1
    13    7   11 1
    14    7    8 1
    15    8    9 1
    16    8   30 1
    17    8   31 1
    18    9   32 1
    19    9   33 1
    20    9   47 1
    21   10   11 1
    22   10   34 1
    23   10   35 1
    24   10   47 1
    25   11   36 1
    26   11   37 1
    27   12   13 1
    28   12   38 1
    29   12   39 1
    30   12   47 1
    31   13   14 1
    32   13   40 1
    33   13   41 1
    34   14   19 ar
    35   14   15 ar
    36   15   16 ar
    37   15   42 1
    38   16   17 ar
    39   16   43 1
    40   17   18 ar
    41   17   21 1
    42   18   19 ar
    43   18   20 1
    44   19   44 1
    45   21   45 1
    46   21   46 1
    47   22   23 1
    48   22   24 1
    49   22   25 1
    50   47   48 1
@<TRIPOS>MOLECULE
ZINC29130869
   21    22     0     0     0
SMALL
USER_CHARGES

@<TRIPOS>ATOM
      1 C1         -0.0168    1.3851    0.0097 C.ar      1 <0>        -0.1114
      2 C2          1.1695    2.0923    0.0021 C.ar      1 <0>        -0.0557
      3 C3          2.3765    1.4166   -0.0142 C.ar      1 <0>        -0.0325
      4 C4          2.3977    0.0325   -0.0291 C.ar      1 <0>         0.0004
      5 C5          1.2119   -0.6819   -0.0241 C.ar      1 <0>        -0.1257
      6 C6          0.0021   -0.0041    0.0020 C.ar      1 <0>         0.1557
      7 N1         -1.2115   -0.7080    0.0366 N.pl3     1 <0>        -0.6439
      8 C7         -1.1703   -2.0782   -0.1764 C.cat     1 <0>         0.7629
      9 N2         -0.0513   -2.7297    0.3259 N.pl3     1 <0>        -0.7367
     10 C8          1.2613   -2.1888   -0.0559 C.3       1 <0>         0.1619
     11 N3         -2.1192   -2.7123   -0.8059 N.pl3     1 <0>        -0.7135
     12 Cl1         3.9156   -0.8096   -0.0547 Cl        1 <0>        -0.0101
     13 Cl2         3.8674    2.3060   -0.0167 Cl        1 <0>        -0.0128
     14 H1         -0.9593    1.9121    0.0260 H         1 <0>         0.1571
     15 H2          1.1549    3.1722    0.0086 H         1 <0>         0.1643
     16 H3         -2.0510   -0.2519    0.2042 H         1 <0>         0.4492
     17 H4          1.5138   -2.5230   -1.0622 H         1 <0>         0.1084
     18 H5          2.0175   -2.5425    0.6450 H         1 <0>         0.1321
     19 H6         -2.8871   -2.2251   -1.1432 H         1 <0>         0.4475
     20 H7         -0.1322   -3.5063    0.9014 H         1 <0>         0.4498
     21 H8         -2.0575   -3.6714   -0.9369 H         1 <0>         0.4529
@<TRIPOS>BOND
     1    1    6 ar
     2    1    2 ar
     3    1   14 1
     4    2    3 ar
     5    2   15 1
     6    3    4 ar
     7    3   13 1
     8    4    5 ar
     9    4   12 1
    10    5   10 1
    11    5    6 ar
    12    6    7 1
    13    7    8 1
    14    7   16 1
    15    8    9 1
    16    8   11 2
    17    9   10 1
    18    9   20 1
    19   10   17 1
    20   10   18 1
    21   11   19 1
    22   11   21 1
@<TRIPOS>MOLECULE
ZINC17193852
   48    50     0     0     0
SMALL
USER_CHARGES
1-[2-(4-azido-3-iodo-phenyl)ethyl]-4-[3-(trifluoromethyl)phenyl]piperazine
@<TRIPOS>ATOM
      1 C1          1.1766    1.7820    0.0004 C.ar      1 <0>        -0.0880
      2 C2         -0.0126    1.0758    0.0080 C.ar      1 <0>        -0.0800
      3 C3         -1.2201    1.7492    0.0174 C.ar      1 <0>        -0.1518
      4 C4         -1.2424    3.1302    0.0307 C.ar      1 <0>        -0.0810
      5 C5         -0.0501    3.8425    0.0232 C.ar      1 <0>         0.0883
      6 C6          1.1615    3.1627    0.0080 C.ar      1 <0>        -0.1324
      7 N1         -0.0690    5.2391    0.0304 N.pl3     1 <0>        -0.4857
      8 C7         -0.8504    5.7611   -1.0995 C.3       1 <0>         0.0234
      9 C8         -0.9132    7.2877   -1.0109 C.3       1 <0>        -0.0063
     10 C9          1.2328    7.3110    0.1085 C.3       1 <0>         0.0036
     11 C10         1.2956    5.7844    0.0199 C.3       1 <0>         0.0188
     12 C11         0.4315    9.3018   -1.0139 C.3       1 <0>        -0.0025
     13 C12        -0.5838    9.8034   -2.0427 C.3       1 <0>        -0.0999
     14 C13        -0.6042   11.3103   -2.0349 C.ar      1 <0>        -0.1257
     15 C14        -1.4813   11.9815   -1.1909 C.ar      1 <0>        -0.0493
     16 C15        -1.5088   13.3441   -1.1682 C.ar      1 <0>        -0.1831
     17 C16        -0.6441   14.0776   -2.0202 C.ar      1 <0>         0.1672
     18 C17         0.2417   13.3778   -2.8799 C.ar      1 <0>        -0.0934
     19 C18         0.2489   12.0127   -2.8747 C.ar      1 <0>        -0.0417
     20 I1          1.5314   14.4334   -4.1493 I         1 <0>         0.0054
     21 N2         -0.6629   15.4023   -2.0132 N.2       1 <0>        -0.3253
     22 N3         -1.3669   15.9507   -1.3299 N.1       1 <0>         0.2799
     23 N4         -2.0709   16.4992   -0.6465 N.1       1 <0>        -0.0823
     24 C19        -2.5133    0.9755    0.0188 C.3       1 <0>         0.5070
     25 F1         -2.2364   -0.3958    0.0096 F         1 <0>        -0.1708
     26 F2         -3.2469    1.2954    1.1663 F         1 <0>        -0.1722
     27 F3         -3.2573    1.3086   -1.1182 F         1 <0>        -0.1744
     28 H1          2.1181    1.2530   -0.0118 H         1 <0>         0.1442
     29 H2          0.0021   -0.0041    0.0020 H         1 <0>         0.1467
     30 H3         -2.1859    3.6556    0.0425 H         1 <0>         0.1394
     31 H4          2.0904    3.7136    0.0017 H         1 <0>         0.1376
     32 H5         -0.3742    5.4704   -2.0360 H         1 <0>         0.0730
     33 H6         -1.8603    5.3528   -1.0627 H         1 <0>         0.1288
     34 H7         -1.4137    7.5781   -0.0872 H         1 <0>         0.1431
     35 H8         -1.4678    7.6793   -1.8636 H         1 <0>         0.1433
     36 H9          0.7567    7.6017    1.0449 H         1 <0>         0.1418
     37 H10         2.2428    7.7193    0.0716 H         1 <0>         0.1404
     38 H11         1.8501    5.3931    0.8728 H         1 <0>         0.1316
     39 H12         1.7961    5.4940   -0.9039 H         1 <0>         0.0742
     40 H13         0.1495    9.6562   -0.0224 H         1 <0>         0.1350
     41 H14         1.4221    9.6799   -1.2667 H         1 <0>         0.1337
     42 H15        -0.3018    9.4490   -3.0341 H         1 <0>         0.0992
     43 H16        -1.5743    9.4253   -1.7898 H         1 <0>         0.1010
     44 H17        -2.1419   11.4203   -0.5467 H         1 <0>         0.1374
     45 H18        -2.1886   13.8625   -0.5082 H         1 <0>         0.1320
     46 H19         0.9217   11.4766   -3.5276 H         1 <0>         0.1418
     47 N5          0.4636    7.8240   -1.0449 N.4       1 <0>        -0.3986
     48 H20         0.9195    7.5183   -1.9127 H         1 <0>         0.4267
@<TRIPOS>BOND
     1    1    6 ar
     2    1    2 ar
     3    1   28 1
     4    2    3 ar
     5    2   29 1
     6    3    4 ar
     7    3   24 1
     8    4    5 ar
     9    4   30 1
    10    5    6 ar
    11    5    7 1
    12    6   31 1
    13    7   11 1
    14    7    8 1
    15    8    9 1
    16    8   32 1
    17    8   33 1
    18    9   34 1
    19    9   35 1
    20    9   47 1
    21   10   11 1
    22   10   36 1
    23   10   37 1
    24   10   47 1
    25   11   38 1
    26   11   39 1
    27   12   13 1
    28   12   40 1
    29   12   41 1
    30   12   47 1
    31   13   14 1
    32   13   42 1
    33   13   43 1
    34   14   19 ar
    35   14   15 ar
    36   15   16 ar
    37   15   44 1
    38   16   17 ar
    39   16   45 1
    40   17   18 ar
    41   17   21 1
    42   18   19 ar
    43   18   20 1
    44   19   46 1
    45   21   22 2
    46   22   23 2
    47   24   25 1
    48   24   26 1
    49   24   27 1
    50   47   48 1
@<TRIPOS>MOLECULE
ZINC13589372
   27    27     0     0     0
SMALL
USER_CHARGES
2-[(6-bromo-2-pyridyl)sulfanyl]-N,N-dimethyl-ethanamine
@<TRIPOS>ATOM
      1 C1         -3.0288    5.4959    1.3119 C.3       1 <0>        -0.0491
      2 C2         -2.6681    7.3736   -0.1735 C.3       1 <0>        -0.0421
      3 C3         -0.9747    5.6563    0.0401 C.3       1 <0>         0.0113
      4 C4         -0.7579    4.1418    0.0305 C.3       1 <0>        -0.1565
      5 S1          1.0207    3.7856    0.0121 S.3       1 <0>        -0.0105
      6 C5          1.1029    2.0256    0.0024 C.ar      1 <0>         0.1139
      7 C6          2.3426    1.3931   -0.0128 C.ar      1 <0>        -0.1280
      8 C7          2.3929    0.0111   -0.0203 C.ar      1 <0>        -0.0429
      9 C8          1.1978   -0.6961   -0.0127 C.ar      1 <0>        -0.1313
     10 C9          0.0021   -0.0041    0.0020 C.ar      1 <0>         0.1347
     11 N1         -0.0158    1.3161    0.0093 N.ar      1 <0>        -0.4749
     12 Br1        -1.6296   -0.9599    0.0125 Br        1 <0>         0.0114
     13 H1         -2.5603    6.0121    2.1498 H         1 <0>         0.1259
     14 H2         -4.0951    5.7215    1.2964 H         1 <0>         0.1260
     15 H3         -2.8865    4.4208    1.4221 H         1 <0>         0.1218
     16 H4         -2.2636    7.6637   -1.1432 H         1 <0>         0.1234
     17 H5         -3.7421    7.5595   -0.1575 H         1 <0>         0.1256
     18 H6         -2.1866    7.9579    0.6105 H         1 <0>         0.1250
     19 H7         -0.5092    6.0843    0.9280 H         1 <0>         0.1415
     20 H8         -0.5258    6.0933   -0.8519 H         1 <0>         0.1397
     21 H9         -1.2234    3.7138   -0.8574 H         1 <0>         0.1145
     22 H10        -1.2067    3.7048    0.9225 H         1 <0>         0.1151
     23 H11         3.2531    1.9739   -0.0188 H         1 <0>         0.1523
     24 H12         3.3406   -0.5068   -0.0321 H         1 <0>         0.1594
     25 H13         1.2030   -1.7760   -0.0185 H         1 <0>         0.1559
     26 N2         -2.4272    5.9301    0.0336 N.4       1 <0>        -0.3949
     27 H14        -2.8620    5.4059   -0.7348 H         1 <0>         0.4329
@<TRIPOS>BOND
     1    1   13 1
     2    1   14 1
     3    1   15 1
     4    1   26 1
     5    2   16 1
     6    2   17 1
     7    2   18 1
     8    2   26 1
     9    3    4 1
    10    3   19 1
    11    3   20 1
    12    3   26 1
    13    4    5 1
    14    4   21 1
    15    4   22 1
    16    5    6 1
    17    6   11 ar
    18    6    7 ar
    19    7    8 ar
    20    7   23 1
    21    8    9 ar
    22    8   24 1
    23    9   10 ar
    24    9   25 1
    25   10   11 ar
    26   10   12 1
    27   26   27 1
@<TRIPOS>MOLECULE
ZINC00598509
   69    73     0     0     0
SMALL
USER_CHARGES

@<TRIPOS>ATOM
      1 C1         -0.0258    1.5270    0.0085 C.3       1 <0>        -0.1204
      2 C2         -0.0148    0.0201   -0.0060 C.ar      1 <0>        -0.0705
      3 C3         -0.0163   -0.6573   -1.2055 C.ar      1 <0>        -0.0754
      4 C4         -0.0066   -2.0515   -1.2190 C.ar      1 <0>        -0.0242
      5 C5          0.0052   -2.7607   -0.0182 C.ar      1 <0>        -0.0676
      6 C6          0.0067   -2.0841    1.1813 C.ar      1 <0>        -0.1023
      7 C7          0.0028   -0.6889    1.1951 C.ar      1 <0>        -0.0393
      8 C8          0.0106    0.0396    2.4858 C.ar      1 <0>        -0.0090
      9 C9          0.9274    1.0696    2.6995 C.ar      1 <0>        -0.1104
     10 C10         0.9355    1.7469    3.8979 C.ar      1 <0>        -0.0527
     11 C11         0.0249    1.4029    4.9003 C.ar      1 <0>        -0.1436
     12 C12        -0.8930    0.3716    4.6852 C.ar      1 <0>        -0.0810
     13 C13        -0.9027   -0.3012    3.4843 C.ar      1 <0>        -0.1096
     14 C14         0.0330    2.1285    6.1867 C.2       1 <0>         0.5685
     15 O1          0.8322    3.0256    6.3736 O.2       1 <0>        -0.5263
     16 N1         -0.8455    1.7963    7.1533 N.am      1 <0>        -0.6684
     17 C15        -0.7752    2.4168    8.4065 C.ar      1 <0>         0.1156
     18 C16        -1.0739    1.6964    9.5555 C.ar      1 <0>        -0.0912
     19 C17        -1.0053    2.3066   10.7939 C.ar      1 <0>        -0.1823
     20 C18        -0.6379    3.6383   10.8923 C.ar      1 <0>         0.1184
     21 C19        -0.3370    4.3645    9.7420 C.ar      1 <0>         0.1285
     22 C20        -0.4014    3.7504    8.5005 C.ar      1 <0>        -0.0823
     23 N2          0.0344    5.7103    9.8398 N.pl3     1 <0>        -0.6622
     24 C21         1.4462    6.0965    9.9877 C.3       1 <0>         0.1226
     25 C22         1.7685    7.1688    8.9417 C.3       1 <0>        -0.0241
     26 N3          0.8189    8.2810    9.0738 N.4       1 <0>        -0.3816
     27 C23        -0.5392    7.8189    8.7603 C.3       1 <0>        -0.0238
     28 C24        -0.9753    6.7790    9.7916 C.3       1 <0>         0.1217
     29 C25         1.1947    9.3562    8.1460 C.3       1 <0>        -0.0465
     30 O2         -0.5714    4.2375   12.1123 O.3       1 <0>        -0.3095
     31 C26        -0.8936    3.4332   13.2486 C.3       1 <0>         0.0226
     32 C27        -0.0092   -2.7806   -2.5110 C.2       1 <0>         0.2941
     33 N4         -0.0061   -4.1179   -2.6574 N.2       1 <0>        -0.5422
     34 C28        -0.0098   -4.4281   -3.9223 C.2       1 <0>         0.2990
     35 O3         -0.0155   -3.2957   -4.6373 O.3       1 <0>        -0.1011
     36 N5         -0.0207   -2.2295   -3.6998 N.2       1 <0>        -0.3348
     37 C29        -0.0072   -5.8256   -4.4862 C.3       1 <0>        -0.0763
     38 H1          0.9991    1.8979    0.0015 H         1 <0>         0.0767
     39 H2         -0.5515    1.8949   -0.8727 H         1 <0>         0.0725
     40 H3         -0.5331    1.8780    0.9071 H         1 <0>         0.0725
     41 H4         -0.0254   -0.1084   -2.1356 H         1 <0>         0.1368
     42 H5          0.0127   -3.8406   -0.0290 H         1 <0>         0.1439
     43 H6          0.0151   -2.6334    2.1112 H         1 <0>         0.1367
     44 H7          1.6311    1.3354    1.9245 H         1 <0>         0.1371
     45 H8          1.6456    2.5436    4.0634 H         1 <0>         0.1389
     46 H9         -1.5969    0.1047    5.4596 H         1 <0>         0.1288
     47 H10        -1.6146   -1.0958    3.3164 H         1 <0>         0.1367
     48 H11        -1.5264    1.1274    6.9808 H         1 <0>         0.4139
     49 H12        -1.3606    0.6578    9.4814 H         1 <0>         0.1355
     50 H13        -1.2388    1.7442   11.6858 H         1 <0>         0.1396
     51 H14        -0.1650    4.3099    7.6075 H         1 <0>         0.1464
     52 H15         1.6134    6.4978   10.9872 H         1 <0>         0.0784
     53 H16         2.0827    5.2261    9.8280 H         1 <0>         0.1141
     54 H17         2.7826    7.5363    9.0985 H         1 <0>         0.1357
     55 H18         1.6879    6.7387    7.9435 H         1 <0>         0.1311
     56 H19        -1.2255    8.6654    8.7834 H         1 <0>         0.1359
     57 H20        -0.5499    7.3691    7.7675 H         1 <0>         0.1289
     58 H21        -1.9389    6.3598    9.5024 H         1 <0>         0.1131
     59 H22        -1.0567    7.2504   10.7710 H         1 <0>         0.0785
     60 H23         1.1728    8.9783    7.1239 H         1 <0>         0.1203
     61 H24         0.4905   10.1825    8.2431 H         1 <0>         0.1231
     62 H25         2.1997    9.7056    8.3828 H         1 <0>         0.1234
     63 H26        -1.9166    3.0682   13.1570 H         1 <0>         0.0587
     64 H27        -0.2091    2.5866   13.3004 H         1 <0>         0.0586
     65 H28        -0.8011    4.0313   14.1551 H         1 <0>         0.1033
     66 H29        -1.0342   -6.1660   -4.6183 H         1 <0>         0.1108
     67 H30         0.5031   -5.8278   -5.4494 H         1 <0>         0.1032
     68 H31         0.5115   -6.4939   -3.7988 H         1 <0>         0.1112
     69 H32         0.8435    8.6322   10.0194 H         1 <0>         0.4235
@<TRIPOS>BOND
     1    1    2 1
     2    1   38 1
     3    1   39 1
     4    1   40 1
     5    2    7 ar
     6    2    3 ar
     7    3    4 ar
     8    3   41 1
     9    4    5 ar
    10    4   32 1
    11    5    6 ar
    12    5   42 1
    13    6    7 ar
    14    6   43 1
    15    7    8 1
    16    8   13 ar
    17    8    9 ar
    18    9   10 ar
    19    9   44 1
    20   10   11 ar
    21   10   45 1
    22   11   12 ar
    23   11   14 1
    24   12   13 ar
    25   12   46 1
    26   13   47 1
    27   14   15 2
    28   14   16 am
    29   16   17 1
    30   16   48 1
    31   17   22 ar
    32   17   18 ar
    33   18   19 ar
    34   18   49 1
    35   19   20 ar
    36   19   50 1
    37   20   21 ar
    38   20   30 1
    39   21   22 ar
    40   21   23 1
    41   22   51 1
    42   23   28 1
    43   23   24 1
    44   24   25 1
    45   24   52 1
    46   24   53 1
    47   25   26 1
    48   25   54 1
    49   25   55 1
    50   26   27 1
    51   26   29 1
    52   26   69 1
    53   27   28 1
    54   27   56 1
    55   27   57 1
    56   28   58 1
    57   28   59 1
    58   29   60 1
    59   29   61 1
    60   29   62 1
    61   30   31 1
    62   31   63 1
    63   31   64 1
    64   31   65 1
    65   32   36 2
    66   32   33 1
    67   33   34 2
    68   34   35 1
    69   34   37 1
    70   35   36 1
    71   37   66 1
    72   37   67 1
    73   37   68 1
@<TRIPOS>MOLECULE
ZINC00598509
   68    72     0     0     0
SMALL
USER_CHARGES

@<TRIPOS>ATOM
      1 C1         -0.0258    1.5270    0.0085 C.3       1 <0>        -0.1214
      2 C2         -0.0148    0.0201   -0.0060 C.ar      1 <0>        -0.0708
      3 C3         -0.0163   -0.6573   -1.2055 C.ar      1 <0>        -0.0750
      4 C4         -0.0066   -2.0515   -1.2190 C.ar      1 <0>        -0.0302
      5 C5          0.0052   -2.7607   -0.0182 C.ar      1 <0>        -0.0680
      6 C6          0.0067   -2.0841    1.1813 C.ar      1 <0>        -0.1041
      7 C7          0.0028   -0.6889    1.1951 C.ar      1 <0>        -0.0311
      8 C8          0.0106    0.0396    2.4858 C.ar      1 <0>        -0.0198
      9 C9          0.9274    1.0696    2.6995 C.ar      1 <0>        -0.1090
     10 C10         0.9355    1.7469    3.8979 C.ar      1 <0>        -0.0544
     11 C11         0.0249    1.4029    4.9003 C.ar      1 <0>        -0.1327
     12 C12        -0.8930    0.3716    4.6852 C.ar      1 <0>        -0.0832
     13 C13        -0.9027   -0.3012    3.4843 C.ar      1 <0>        -0.1096
     14 C14         0.0330    2.1285    6.1867 C.2       1 <0>         0.5586
     15 O1          0.8322    3.0256    6.3736 O.2       1 <0>        -0.5148
     16 N1         -0.8455    1.7963    7.1533 N.am      1 <0>        -0.6663
     17 C15        -0.7752    2.4168    8.4065 C.ar      1 <0>         0.1085
     18 C16        -1.0739    1.6964    9.5555 C.ar      1 <0>        -0.1051
     19 C17        -1.0053    2.3066   10.7939 C.ar      1 <0>        -0.1878
     20 C18        -0.6379    3.6383   10.8923 C.ar      1 <0>         0.1109
     21 C19        -0.3370    4.3645    9.7420 C.ar      1 <0>         0.1576
     22 C20        -0.4014    3.7504    8.5005 C.ar      1 <0>        -0.0854
     23 N2          0.0344    5.7103    9.8398 N.pl3     1 <0>        -0.6665
     24 C21         1.4463    6.0949    9.9877 C.3       1 <0>         0.1544
     25 C22         1.7758    7.1536    8.9299 C.3       1 <0>         0.0391
     26 N3          0.8161    8.2608    9.0345 N.3       1 <0>        -0.5401
     27 C23        -0.5519    7.8093    8.7473 C.3       1 <0>         0.0391
     28 C24        -0.9762    6.7778    9.7914 C.3       1 <0>         0.1537
     29 C25         1.1986    9.3738    8.1553 C.3       1 <0>         0.0248
     30 O2         -0.5714    4.2375   12.1123 O.3       1 <0>        -0.3021
     31 C26        -0.8936    3.4332   13.2486 C.3       1 <0>         0.0247
     32 C27        -0.0092   -2.7806   -2.5110 C.2       1 <0>         0.2973
     33 N4         -0.0061   -4.1179   -2.6574 N.2       1 <0>        -0.5412
     34 C28        -0.0098   -4.4281   -3.9223 C.2       1 <0>         0.2959
     35 O3         -0.0155   -3.2957   -4.6373 O.3       1 <0>        -0.1032
     36 N5         -0.0207   -2.2295   -3.6998 N.2       1 <0>        -0.3355
     37 C29        -0.0072   -5.8256   -4.4862 C.3       1 <0>        -0.0751
     38 H1          0.9991    1.8979    0.0015 H         1 <0>         0.0772
     39 H2         -0.5515    1.8949   -0.8727 H         1 <0>         0.0715
     40 H3         -0.5331    1.8780    0.9071 H         1 <0>         0.0747
     41 H4         -0.0254   -0.1084   -2.1356 H         1 <0>         0.1357
     42 H5          0.0127   -3.8406   -0.0290 H         1 <0>         0.1424
     43 H6          0.0151   -2.6334    2.1112 H         1 <0>         0.1367
     44 H7          1.6311    1.3354    1.9245 H         1 <0>         0.1356
     45 H8          1.6456    2.5436    4.0634 H         1 <0>         0.1407
     46 H9         -1.5969    0.1047    5.4596 H         1 <0>         0.1292
     47 H10        -1.6146   -1.0958    3.3164 H         1 <0>         0.1344
     48 H11        -1.5264    1.1274    6.9808 H         1 <0>         0.4094
     49 H12        -1.3606    0.6578    9.4814 H         1 <0>         0.1286
     50 H13        -1.2388    1.7442   11.6858 H         1 <0>         0.1335
     51 H14        -0.1650    4.3099    7.6075 H         1 <0>         0.1447
     52 H15         1.6110    6.5079   10.9829 H         1 <0>         0.0585
     53 H16         2.0811    5.2210    9.8412 H         1 <0>         0.0698
     54 H17         2.7853    7.5303    9.0945 H         1 <0>         0.0791
     55 H18         1.7107    6.7084    7.9371 H         1 <0>         0.0368
     56 H19        -1.2306    8.6616    8.7795 H         1 <0>         0.0795
     57 H20        -0.5846    7.3549    7.7570 H         1 <0>         0.0337
     58 H21        -1.9422    6.3551    9.5153 H         1 <0>         0.0687
     59 H22        -1.0488    7.2577   10.7674 H         1 <0>         0.0589
     60 H23         1.2227    9.0286    7.1217 H         1 <0>         0.0236
     61 H24         0.4714   10.1799    8.2523 H         1 <0>         0.0677
     62 H25         2.1856    9.7387    8.4396 H         1 <0>         0.0684
     63 H26        -0.8011    4.0313   14.1551 H         1 <0>         0.0991
     64 H27        -1.9166    3.0682   13.1570 H         1 <0>         0.0537
     65 H28        -0.2091    2.5866   13.3004 H         1 <0>         0.0536
     66 H29        -1.0342   -6.1660   -4.6183 H         1 <0>         0.1097
     67 H30         0.5031   -5.8278   -5.4494 H         1 <0>         0.1021
     68 H31         0.5115   -6.4939   -3.7988 H         1 <0>         0.1106
@<TRIPOS>BOND
     1    1    2 1
     2    1   38 1
     3    1   39 1
     4    1   40 1
     5    2    7 ar
     6    2    3 ar
     7    3    4 ar
     8    3   41 1
     9    4    5 ar
    10    4   32 1
    11    5    6 ar
    12    5   42 1
    13    6    7 ar
    14    6   43 1
    15    7    8 1
    16    8   13 ar
    17    8    9 ar
    18    9   10 ar
    19    9   44 1
    20   10   11 ar
    21   10   45 1
    22   11   12 ar
    23   11   14 1
    24   12   13 ar
    25   12   46 1
    26   13   47 1
    27   14   15 2
    28   14   16 am
    29   16   17 1
    30   16   48 1
    31   17   22 ar
    32   17   18 ar
    33   18   19 ar
    34   18   49 1
    35   19   20 ar
    36   19   50 1
    37   20   21 ar
    38   20   30 1
    39   21   22 ar
    40   21   23 1
    41   22   51 1
    42   23   28 1
    43   23   24 1
    44   24   25 1
    45   24   52 1
    46   24   53 1
    47   25   26 1
    48   25   54 1
    49   25   55 1
    50   26   27 1
    51   26   29 1
    52   27   28 1
    53   27   56 1
    54   27   57 1
    55   28   58 1
    56   28   59 1
    57   29   60 1
    58   29   61 1
    59   29   62 1
    60   30   31 1
    61   31   63 1
    62   31   64 1
    63   31   65 1
    64   32   36 2
    65   32   33 1
    66   33   34 2
    67   34   35 1
    68   34   37 1
    69   35   36 1
    70   37   66 1
    71   37   67 1
    72   37   68 1
@<TRIPOS>MOLECULE
ZINC00985328
   30    31     0     0     0
SMALL
USER_CHARGES
2-benzothiazol-2-ylsulfanyl-N,N-dimethyl-ethanamine
@<TRIPOS>ATOM
      1 C1         -6.1338    8.1345    1.3628 C.3       1 <0>        -0.0505
      2 C2         -6.2619   10.0471   -0.1166 C.3       1 <0>        -0.0425
      3 C3         -4.1876    8.8158    0.0935 C.3       1 <0>         0.0150
      4 C4         -3.5931    7.4061    0.0795 C.3       1 <0>        -0.1966
      5 S1         -1.7864    7.5134    0.0618 S.3       1 <0>         0.1138
      6 C5         -1.3782    5.7994    0.0479 C.2       1 <0>         0.0894
      7 N1         -0.1914    5.2346    0.0326 N.2       1 <0>        -0.4575
      8 C6         -0.0267    3.8938    0.0233 C.ar      1 <0>         0.0705
      9 C7          1.1840    3.1634    0.0073 C.ar      1 <0>        -0.0481
     10 C8          1.1750    1.7928    0.0005 C.ar      1 <0>        -0.1066
     11 C9         -0.0126    1.0758    0.0080 C.ar      1 <0>        -0.0742
     12 C10        -1.2156    1.7582    0.0173 C.ar      1 <0>        -0.0728
     13 C11        -1.2161    3.1304    0.0310 C.ar      1 <0>        -0.1216
     14 S2         -2.4725    4.3864    0.0509 S.3       1 <0>        -0.0118
     15 H1         -5.8120    8.7503    2.2027 H         1 <0>         0.1277
     16 H2         -7.2224    8.0819    1.3469 H         1 <0>         0.1274
     17 H3         -5.7230    7.1306    1.4698 H         1 <0>         0.1209
     18 H4         -5.9442   10.4335   -1.0850 H         1 <0>         0.1245
     19 H5         -7.3478    9.9538   -0.1011 H         1 <0>         0.1265
     20 H6         -5.9447   10.7320    0.6698 H         1 <0>         0.1261
     21 H7         -3.8464    9.3452    0.9832 H         1 <0>         0.1460
     22 H8         -3.8644    9.3553   -0.7967 H         1 <0>         0.1443
     23 H9         -3.9344    6.8767   -0.8101 H         1 <0>         0.1199
     24 H10        -3.9164    6.8666    0.9697 H         1 <0>         0.1197
     25 H11         2.1261    3.6913    0.0008 H         1 <0>         0.1406
     26 H12         2.1137    1.2590   -0.0114 H         1 <0>         0.1442
     27 H13         0.0021   -0.0041    0.0020 H         1 <0>         0.1481
     28 H14        -2.1488    1.2145    0.0184 H         1 <0>         0.1394
     29 N2         -5.6620    8.7115    0.0863 N.4       1 <0>        -0.3953
     30 H15        -5.9491    8.0964   -0.6840 H         1 <0>         0.4333
@<TRIPOS>BOND
     1    1   15 1
     2    1   16 1
     3    1   17 1
     4    1   29 1
     5    2   18 1
     6    2   19 1
     7    2   20 1
     8    2   29 1
     9    3    4 1
    10    3   21 1
    11    3   22 1
    12    3   29 1
    13    4    5 1
    14    4   23 1
    15    4   24 1
    16    5    6 1
    17    6   14 1
    18    6    7 2
    19    7    8 1
    20    8   13 ar
    21    8    9 ar
    22    9   10 ar
    23    9   25 1
    24   10   11 ar
    25   10   26 1
    26   11   12 ar
    27   11   27 1
    28   12   13 ar
    29   12   28 1
    30   13   14 1
    31   29   30 1
@<TRIPOS>MOLECULE
ZINC34451922
   61    65     0     0     0
SMALL
USER_CHARGES

@<TRIPOS>ATOM
      1 C1         -0.0312    1.4376    0.0625 C.3       1 <0>        -0.1149
      2 C2         -0.0229   -0.0693    0.0447 C.ar      1 <0>         0.1665
      3 C3         -0.0155   -0.7327   -1.1794 C.ar      1 <0>        -0.1630
      4 C4         -0.0074   -2.0992   -1.2143 C.ar      1 <0>        -0.0625
      5 C5         -0.0068   -2.7940    0.0070 C.ar      1 <0>        -0.1089
      6 C6         -0.0145   -2.0581    1.2176 C.ar      1 <0>         0.1381
      7 N1         -0.0173   -0.7211    1.1825 N.ar      1 <0>        -0.4673
      8 C7         -0.0139   -2.7495    2.4406 C.ar      1 <0>        -0.0799
      9 C8         -0.0055   -4.1115    2.4546 C.ar      1 <0>        -0.0967
     10 C9          0.0026   -4.8435    1.2722 C.ar      1 <0>        -0.1038
     11 C10         0.0018   -4.2041    0.0495 C.ar      1 <0>         0.1607
     12 N2          0.0100   -4.9428   -1.1301 N.pl3     1 <0>        -0.6732
     13 C11         1.2761   -5.3417   -1.7641 C.3       1 <0>         0.1189
     14 C12         1.2238   -4.9473   -3.2438 C.3       1 <0>        -0.0255
     15 N3          0.0263   -5.5297   -3.8626 N.4       1 <0>        -0.3804
     16 C13        -1.1805   -4.9526   -3.2570 C.3       1 <0>        -0.0322
     17 C14        -1.2473   -5.3521   -1.7749 C.3       1 <0>         0.1198
     18 C15         0.0336   -5.2439   -5.3035 C.3       1 <0>        -0.0072
     19 C16        -1.1461   -5.9543   -5.9703 C.3       1 <0>        -0.0971
     20 C17        -1.1386   -5.6610   -7.4485 C.ar      1 <0>        -0.0776
     21 C18        -1.8170   -4.5596   -7.9377 C.ar      1 <0>        -0.1386
     22 C19        -1.8126   -4.2871   -9.2931 C.ar      1 <0>        -0.0804
     23 C20        -1.1300   -5.1148  -10.1632 C.ar      1 <0>        -0.1434
     24 C21        -0.4479   -6.2214   -9.6753 C.ar      1 <0>         0.2020
     25 C22        -0.4497   -6.4892   -8.3125 C.ar      1 <0>        -0.1555
     26 N4          0.2445   -7.0619  -10.5542 N.am      1 <0>        -0.5742
     27 C23         1.0949   -8.1943  -10.1579 C.3       1 <0>         0.0857
     28 C24         1.6017   -8.7621  -11.4979 C.3       1 <0>         0.0889
     29 N5          0.9830   -7.8894  -12.5069 N.am      1 <0>        -0.7318
     30 C25         0.2334   -6.9663  -11.8902 C.2       1 <0>         0.6994
     31 O1         -0.3969   -6.1161  -12.4888 O.2       1 <0>        -0.5594
     32 H1          0.9944    1.8066    0.0650 H         1 <0>         0.0861
     33 H2         -0.5487    1.8085   -0.8223 H         1 <0>         0.0802
     34 H3         -0.5455    1.7876    0.9576 H         1 <0>         0.0841
     35 H4         -0.0165   -0.1684   -2.1002 H         1 <0>         0.1388
     36 H5         -0.0019   -2.6302   -2.1547 H         1 <0>         0.1232
     37 H6         -0.0198   -2.2006    3.3707 H         1 <0>         0.1418
     38 H7         -0.0048   -4.6322    3.4007 H         1 <0>         0.1381
     39 H8          0.0096   -5.9228    1.3114 H         1 <0>         0.1308
     40 H9          2.1065   -4.8299   -1.2777 H         1 <0>         0.1163
     41 H10         1.4054   -6.4205   -1.6769 H         1 <0>         0.0826
     42 H11         1.1855   -3.8614   -3.3293 H         1 <0>         0.1284
     43 H12         2.1133   -5.3208   -3.7511 H         1 <0>         0.1390
     44 H13        -1.1461   -3.8665   -3.3421 H         1 <0>         0.1294
     45 H14        -2.0627   -5.3301   -3.7741 H         1 <0>         0.1406
     46 H15        -1.3685   -6.4320   -1.6889 H         1 <0>         0.0832
     47 H16        -2.0861   -4.8472   -1.2958 H         1 <0>         0.1162
     48 H17        -0.0535   -4.1688   -5.4611 H         1 <0>         0.1311
     49 H18         0.9665   -5.6007   -5.7400 H         1 <0>         0.1329
     50 H19        -1.0590   -7.0293   -5.8127 H         1 <0>         0.0951
     51 H20        -2.0789   -5.5974   -5.5338 H         1 <0>         0.0966
     52 H21        -2.3517   -3.9111   -7.2594 H         1 <0>         0.1244
     53 H22        -2.3436   -3.4264   -9.6721 H         1 <0>         0.1341
     54 H23        -1.1272   -4.9017  -11.2220 H         1 <0>         0.1632
     55 H24         0.0839   -7.3464   -7.9293 H         1 <0>         0.1261
     56 H25         1.9301   -7.8505   -9.5478 H         1 <0>         0.0916
     57 H26         0.5107   -8.9423   -9.6219 H         1 <0>         0.0922
     58 H27         2.6885   -8.7002  -11.5531 H         1 <0>         0.0930
     59 H28         1.2691   -9.7921  -11.6273 H         1 <0>         0.0930
     60 H29         1.0964   -7.9716  -13.4667 H         1 <0>         0.4388
     61 H30         0.0277   -6.5286   -3.7203 H         1 <0>         0.4226
@<TRIPOS>BOND
     1    1    2 1
     2    1   32 1
     3    1   33 1
     4    1   34 1
     5    2    7 ar
     6    2    3 ar
     7    3    4 ar
     8    3   35 1
     9    4    5 ar
    10    4   36 1
    11    5   11 ar
    12    5    6 ar
    13    6    7 ar
    14    6    8 ar
    15    8    9 ar
    16    8   37 1
    17    9   10 ar
    18    9   38 1
    19   10   11 ar
    20   10   39 1
    21   11   12 1
    22   12   17 1
    23   12   13 1
    24   13   14 1
    25   13   40 1
    26   13   41 1
    27   14   15 1
    28   14   42 1
    29   14   43 1
    30   15   16 1
    31   15   18 1
    32   15   61 1
    33   16   17 1
    34   16   44 1
    35   16   45 1
    36   17   46 1
    37   17   47 1
    38   18   19 1
    39   18   48 1
    40   18   49 1
    41   19   20 1
    42   19   50 1
    43   19   51 1
    44   20   25 ar
    45   20   21 ar
    46   21   22 ar
    47   21   52 1
    48   22   23 ar
    49   22   53 1
    50   23   24 ar
    51   23   54 1
    52   24   25 ar
    53   24   26 1
    54   25   55 1
    55   26   30 am
    56   26   27 1
    57   27   28 1
    58   27   56 1
    59   27   57 1
    60   28   29 1
    61   28   58 1
    62   28   59 1
    63   29   30 am
    64   29   60 1
    65   30   31 2
@<TRIPOS>MOLECULE
ZINC34451922
   60    64     0     0     0
SMALL
USER_CHARGES

@<TRIPOS>ATOM
      1 C1         -0.0321    1.4340    0.0669 C.3       1 <0>        -0.1087
      2 C2         -0.0231   -0.0728    0.0484 C.ar      1 <0>         0.1614
      3 C3         -0.0155   -0.7357   -1.1761 C.ar      1 <0>        -0.1790
      4 C4         -0.0069   -2.1021   -1.2116 C.ar      1 <0>        -0.0439
      5 C5         -0.0060   -2.7975    0.0093 C.ar      1 <0>        -0.1162
      6 C6         -0.0140   -2.0623    1.2203 C.ar      1 <0>         0.1383
      7 N1         -0.0173   -0.7252    1.1858 N.ar      1 <0>        -0.4780
      8 C7         -0.0131   -2.7542    2.4430 C.ar      1 <0>        -0.1017
      9 C8         -0.0042   -4.1162    2.4563 C.ar      1 <0>        -0.0895
     10 C9          0.0042   -4.8477    1.2736 C.ar      1 <0>        -0.1280
     11 C10         0.0032   -4.2076    0.0512 C.ar      1 <0>         0.1972
     12 N2          0.0115   -4.9458   -1.1288 N.pl3     1 <0>        -0.6786
     13 C11         1.2784   -5.3431   -1.7618 C.3       1 <0>         0.1496
     14 C12         1.2359   -4.9304   -3.2369 C.3       1 <0>         0.0396
     15 N3          0.0281   -5.4851   -3.8627 N.3       1 <0>        -0.5337
     16 C13        -1.1893   -4.9364   -3.2504 C.3       1 <0>         0.0347
     17 C14        -1.2462   -5.3545   -1.7725 C.3       1 <0>         0.1493
     18 C15         0.0356   -5.2584   -5.3140 C.3       1 <0>         0.0625
     19 C16        -1.0979   -6.0570   -5.9608 C.3       1 <0>        -0.0749
     20 C17        -1.0902   -5.8244   -7.4498 C.ar      1 <0>        -0.0542
     21 C18        -1.8204   -4.7814   -7.9898 C.ar      1 <0>        -0.1431
     22 C19        -1.8159   -4.5647   -9.3553 C.ar      1 <0>        -0.0866
     23 C20        -1.0816   -5.3899  -10.1846 C.ar      1 <0>        -0.1581
     24 C21        -0.3474   -6.4379   -9.6456 C.ar      1 <0>         0.1910
     25 C22        -0.3495   -6.6495   -8.2729 C.ar      1 <0>        -0.1551
     26 N4          0.3976   -7.2758  -10.4831 N.am      1 <0>        -0.5709
     27 C23         1.3021   -8.3444  -10.0332 C.3       1 <0>         0.0845
     28 C24         1.8522   -8.9388  -11.3442 C.3       1 <0>         0.0912
     29 N5          1.1993   -8.1420  -12.3936 N.am      1 <0>        -0.7361
     30 C25         0.3956   -7.2356  -11.8220 C.2       1 <0>         0.6995
     31 O1         -0.2721   -6.4452  -12.4605 O.2       1 <0>        -0.5652
     32 H1          0.9934    1.8035    0.0696 H         1 <0>         0.0813
     33 H2         -0.5496    1.8052   -0.8177 H         1 <0>         0.0768
     34 H3         -0.5465    1.7834    0.9621 H         1 <0>         0.0795
     35 H4         -0.0168   -0.1709   -2.0966 H         1 <0>         0.1342
     36 H5         -0.0012   -2.6326   -2.1523 H         1 <0>         0.1348
     37 H6         -0.0192   -2.2057    3.3733 H         1 <0>         0.1347
     38 H7         -0.0032   -4.6373    3.4022 H         1 <0>         0.1312
     39 H8          0.0116   -5.9269    1.3122 H         1 <0>         0.1282
     40 H9          2.1089   -4.8415   -1.2650 H         1 <0>         0.0717
     41 H10         1.4019   -6.4235   -1.6872 H         1 <0>         0.0627
     42 H11         1.2167   -3.8430   -3.3100 H         1 <0>         0.0346
     43 H12         2.1191   -5.3142   -3.7476 H         1 <0>         0.0822
     44 H13        -1.1747   -3.8489   -3.3233 H         1 <0>         0.0351
     45 H14        -2.0649   -5.3244   -3.7708 H         1 <0>         0.0854
     46 H15        -1.3606   -6.4360   -1.6990 H         1 <0>         0.0631
     47 H16        -2.0854   -4.8605   -1.2829 H         1 <0>         0.0716
     48 H17        -0.1062   -4.1968   -5.5167 H         1 <0>         0.0355
     49 H18         0.9905   -5.5828   -5.7275 H         1 <0>         0.0763
     50 H19        -0.9561   -7.1185   -5.7582 H         1 <0>         0.0819
     51 H20        -2.0528   -5.7326   -5.5474 H         1 <0>         0.0744
     52 H21        -2.3957   -4.1350   -7.3435 H         1 <0>         0.1206
     53 H22        -2.3875   -3.7496   -9.7740 H         1 <0>         0.1267
     54 H23        -1.0788   -5.2204  -11.2512 H         1 <0>         0.1568
     55 H24         0.2243   -7.4609   -7.8501 H         1 <0>         0.1245
     56 H25         2.1115   -7.9321   -9.4307 H         1 <0>         0.0924
     57 H26         0.7524   -9.0998   -9.4716 H         1 <0>         0.0923
     58 H27         2.9348   -8.8217  -11.3927 H         1 <0>         0.0897
     59 H28         1.5757   -9.9893  -11.4336 H         1 <0>         0.0895
     60 H29         1.3270   -8.2573  -13.3482 H         1 <0>         0.4348
@<TRIPOS>BOND
     1    1    2 1
     2    1   32 1
     3    1   33 1
     4    1   34 1
     5    2    7 ar
     6    2    3 ar
     7    3    4 ar
     8    3   35 1
     9    4    5 ar
    10    4   36 1
    11    5   11 ar
    12    5    6 ar
    13    6    7 ar
    14    6    8 ar
    15    8    9 ar
    16    8   37 1
    17    9   10 ar
    18    9   38 1
    19   10   11 ar
    20   10   39 1
    21   11   12 1
    22   12   17 1
    23   12   13 1
    24   13   14 1
    25   13   40 1
    26   13   41 1
    27   14   15 1
    28   14   42 1
    29   14   43 1
    30   15   16 1
    31   15   18 1
    32   16   17 1
    33   16   44 1
    34   16   45 1
    35   17   46 1
    36   17   47 1
    37   18   19 1
    38   18   48 1
    39   18   49 1
    40   19   20 1
    41   19   50 1
    42   19   51 1
    43   20   25 ar
    44   20   21 ar
    45   21   22 ar
    46   21   52 1
    47   22   23 ar
    48   22   53 1
    49   23   24 ar
    50   23   54 1
    51   24   25 ar
    52   24   26 1
    53   25   55 1
    54   26   30 am
    55   26   27 1
    56   27   28 1
    57   27   56 1
    58   27   57 1
    59   28   29 1
    60   28   58 1
    61   28   59 1
    62   29   30 am
    63   29   60 1
    64   30   31 2
@<TRIPOS>MOLECULE
ZINC34451922
   62    66     0     0     0
SMALL
USER_CHARGES

@<TRIPOS>ATOM
      1 C1         -0.0312    1.4376    0.0625 C.3       1 <0>        -0.1610
      2 C2         -0.0229   -0.0693    0.0447 C.ar      1 <0>         0.2542
      3 C3         -0.0155   -0.7327   -1.1794 C.ar      1 <0>        -0.1670
      4 C4         -0.0074   -2.0992   -1.2143 C.ar      1 <0>         0.0386
      5 C5         -0.0068   -2.7940    0.0070 C.ar      1 <0>        -0.0964
      6 C6         -0.0145   -2.0581    1.2176 C.ar      1 <0>         0.1451
      7 N1         -0.0173   -0.7211    1.1825 N.ar      1 <0>        -0.4584
      8 C7         -0.0139   -2.7495    2.4406 C.ar      1 <0>        -0.1305
      9 C8         -0.0055   -4.1115    2.4546 C.ar      1 <0>        -0.0263
     10 C9          0.0026   -4.8435    1.2722 C.ar      1 <0>        -0.0895
     11 C10         0.0018   -4.2041    0.0495 C.ar      1 <0>         0.2051
     12 N2          0.0100   -4.9428   -1.1301 N.pl3     1 <0>        -0.6830
     13 C11         1.2761   -5.3417   -1.7641 C.3       1 <0>         0.1133
     14 C12         1.2238   -4.9473   -3.2438 C.3       1 <0>        -0.0251
     15 N3          0.0263   -5.5297   -3.8626 N.4       1 <0>        -0.3836
     16 C13        -1.1805   -4.9526   -3.2570 C.3       1 <0>        -0.0322
     17 C14        -1.2473   -5.3521   -1.7749 C.3       1 <0>         0.1142
     18 C15         0.0336   -5.2439   -5.3035 C.3       1 <0>        -0.0083
     19 C16        -1.1461   -5.9543   -5.9703 C.3       1 <0>        -0.0958
     20 C17        -1.1386   -5.6610   -7.4485 C.ar      1 <0>        -0.0824
     21 C18        -1.8170   -4.5596   -7.9377 C.ar      1 <0>        -0.1409
     22 C19        -1.8126   -4.2871   -9.2931 C.ar      1 <0>        -0.0796
     23 C20        -1.1300   -5.1148  -10.1632 C.ar      1 <0>        -0.1415
     24 C21        -0.4479   -6.2214   -9.6753 C.ar      1 <0>         0.2063
     25 C22        -0.4497   -6.4892   -8.3125 C.ar      1 <0>        -0.1564
     26 N4          0.2445   -7.0619  -10.5542 N.am      1 <0>        -0.5752
     27 C23         1.0949   -8.1943  -10.1579 C.3       1 <0>         0.0862
     28 C24         1.6017   -8.7621  -11.4979 C.3       1 <0>         0.0880
     29 N5          0.9830   -7.8894  -12.5069 N.am      1 <0>        -0.7302
     30 C25         0.2334   -6.9663  -11.8902 C.2       1 <0>         0.6992
     31 O1         -0.3969   -6.1161  -12.4888 O.2       1 <0>        -0.5578
     32 H1          0.9944    1.8066    0.0650 H         1 <0>         0.1292
     33 H2         -0.5487    1.8085   -0.8223 H         1 <0>         0.1262
     34 H3         -0.5455    1.7876    0.9576 H         1 <0>         0.1073
     35 H4         -0.0165   -0.1684   -2.1002 H         1 <0>         0.1869
     36 H5         -0.0019   -2.6302   -2.1547 H         1 <0>         0.1595
     37 H6         -0.0198   -2.2006    3.3707 H         1 <0>         0.1627
     38 H7         -0.0048   -4.6322    3.4007 H         1 <0>         0.1641
     39 H8          0.0096   -5.9228    1.3114 H         1 <0>         0.1565
     40 H9          2.1065   -4.8299   -1.2777 H         1 <0>         0.1196
     41 H10         1.4054   -6.4205   -1.6769 H         1 <0>         0.0952
     42 H11         1.1855   -3.8614   -3.3293 H         1 <0>         0.1261
     43 H12         2.1133   -5.3208   -3.7511 H         1 <0>         0.1471
     44 H13        -1.1461   -3.8665   -3.3421 H         1 <0>         0.1272
     45 H14        -2.0627   -5.3301   -3.7741 H         1 <0>         0.1488
     46 H15        -1.3685   -6.4320   -1.6889 H         1 <0>         0.0958
     47 H16        -2.0861   -4.8472   -1.2958 H         1 <0>         0.1195
     48 H17        -0.0535   -4.1688   -5.4611 H         1 <0>         0.1321
     49 H18         0.9665   -5.6007   -5.7400 H         1 <0>         0.1368
     50 H19        -1.0590   -7.0293   -5.8127 H         1 <0>         0.0966
     51 H20        -2.0789   -5.5974   -5.5338 H         1 <0>         0.0955
     52 H21        -2.3517   -3.9111   -7.2594 H         1 <0>         0.1224
     53 H22        -2.3436   -3.4264   -9.6721 H         1 <0>         0.1347
     54 H23        -1.1272   -4.9017  -11.2220 H         1 <0>         0.1647
     55 H24         0.0839   -7.3464   -7.9293 H         1 <0>         0.1263
     56 H25         1.9301   -7.8505   -9.5478 H         1 <0>         0.0912
     57 H26         0.5107   -8.9423   -9.6219 H         1 <0>         0.0923
     58 H27         2.6885   -8.7002  -11.5531 H         1 <0>         0.0940
     59 H28         1.2691   -9.7921  -11.6273 H         1 <0>         0.0943
     60 H29         1.0964   -7.9716  -13.4667 H         1 <0>         0.4403
     61 H30         0.0277   -6.5286   -3.7203 H         1 <0>         0.4274
     62 H31        -0.0190   -0.2237    2.0152 H         1 <0>         0.4506
@<TRIPOS>BOND
     1    1    2 1
     2    1   32 1
     3    1   33 1
     4    1   34 1
     5    2    7 ar
     6    2    3 ar
     7    3    4 ar
     8    3   35 1
     9    4    5 ar
    10    4   36 1
    11    5   11 ar
    12    5    6 ar
    13    6    7 ar
    14    6    8 ar
    15    7   62 1
    16    8    9 ar
    17    8   37 1
    18    9   10 ar
    19    9   38 1
    20   10   11 ar
    21   10   39 1
    22   11   12 1
    23   12   17 1
    24   12   13 1
    25   13   14 1
    26   13   40 1
    27   13   41 1
    28   14   15 1
    29   14   42 1
    30   14   43 1
    31   15   16 1
    32   15   18 1
    33   15   61 1
    34   16   17 1
    35   16   44 1
    36   16   45 1
    37   17   46 1
    38   17   47 1
    39   18   19 1
    40   18   48 1
    41   18   49 1
    42   19   20 1
    43   19   50 1
    44   19   51 1
    45   20   25 ar
    46   20   21 ar
    47   21   22 ar
    48   21   52 1
    49   22   23 ar
    50   22   53 1
    51   23   24 ar
    52   23   54 1
    53   24   25 ar
    54   24   26 1
    55   25   55 1
    56   26   30 am
    57   26   27 1
    58   27   28 1
    59   27   56 1
    60   27   57 1
    61   28   29 1
    62   28   58 1
    63   28   59 1
    64   29   30 am
    65   29   60 1
    66   30   31 2
@<TRIPOS>MOLECULE
ZINC00044027
   41    43     0     0     0
SMALL
USER_CHARGES

@<TRIPOS>ATOM
      1 C1         -4.8538   -4.0638    0.9108 C.3       1 <0>        -0.0548
      2 N1         -4.6244   -2.8061    1.6344 N.4       1 <0>        -0.3863
      3 C2         -4.0000   -3.0949    2.9324 C.3       1 <0>        -0.0478
      4 C3         -3.7364   -1.9420    0.8453 C.3       1 <0>        -0.0093
      5 C4         -4.4383   -1.5396   -0.4533 C.3       1 <0>        -0.1865
      6 C5         -3.5134   -0.6397   -1.2752 C.3       1 <0>         0.1190
      7 N2         -4.1855   -0.2544   -2.5186 N.pl3     1 <0>        -0.5621
      8 C6         -4.9466    0.9115   -2.5039 C.ar      1 <0>         0.1833
      9 C7         -5.4466    1.3707   -1.2896 C.ar      1 <0>        -0.1632
     10 C8         -6.2007    2.5274   -1.2376 C.ar      1 <0>        -0.0789
     11 C9         -6.4648    3.2382   -2.3930 C.ar      1 <0>        -0.1269
     12 C10        -5.9746    2.7903   -3.6059 C.ar      1 <0>        -0.0533
     13 C11        -5.2180    1.6285   -3.6658 C.ar      1 <0>        -0.1513
     14 S1         -4.6102    1.0681   -5.2211 S.3       1 <0>         0.0418
     15 C12        -4.1728   -0.6126   -4.9268 C.ar      1 <0>        -0.1476
     16 C13        -4.0101   -1.0788   -3.6268 C.ar      1 <0>         0.2001
     17 C14        -3.6645   -2.4105   -3.4235 C.ar      1 <0>        -0.1605
     18 C15        -3.4778   -3.2563   -4.5018 C.ar      1 <0>         0.0017
     19 C16        -3.6338   -2.7836   -5.7916 C.ar      1 <0>        -0.1199
     20 C17        -3.9865   -1.4684   -6.0025 C.ar      1 <0>        -0.0415
     21 Cl1        -3.0468   -4.9167   -4.2348 Cl        1 <0>        -0.0547
     22 H1         -5.5127   -4.7049    1.4964 H         1 <0>         0.1270
     23 H2         -5.3171   -3.8495   -0.0523 H         1 <0>         0.1230
     24 H3         -3.9018   -4.5701    0.7514 H         1 <0>         0.1245
     25 H4         -3.0479   -3.6012    2.7730 H         1 <0>         0.1232
     26 H5         -3.8297   -2.1617    3.4693 H         1 <0>         0.1245
     27 H6         -4.6589   -3.7360    3.5180 H         1 <0>         0.1260
     28 H7         -3.4947   -1.0479    1.4199 H         1 <0>         0.1356
     29 H8         -2.8190   -2.4818    0.6102 H         1 <0>         0.1342
     30 H9         -4.6799   -2.4338   -1.0279 H         1 <0>         0.0966
     31 H10        -5.3556   -0.9999   -0.2183 H         1 <0>         0.0979
     32 H11        -3.2718    0.2545   -0.7007 H         1 <0>         0.0984
     33 H12        -2.5960   -1.1794   -1.5103 H         1 <0>         0.0962
     34 H13        -5.2447    0.8199   -0.3828 H         1 <0>         0.1245
     35 H14        -6.5853    2.8770   -0.2909 H         1 <0>         0.1332
     36 H15        -7.0538    4.1423   -2.3487 H         1 <0>         0.1374
     37 H16        -6.1810    3.3459   -4.5088 H         1 <0>         0.1390
     38 H17        -3.5416   -2.7862   -2.4184 H         1 <0>         0.1339
     39 H18        -3.4863   -3.4459   -6.6318 H         1 <0>         0.1476
     40 H19        -4.1082   -1.1006   -7.0106 H         1 <0>         0.1483
     41 H20        -5.5056   -2.3374    1.7820 H         1 <0>         0.4275
@<TRIPOS>BOND
     1    1    2 1
     2    1   22 1
     3    1   23 1
     4    1   24 1
     5    2    3 1
     6    2    4 1
     7    2   41 1
     8    3   25 1
     9    3   26 1
    10    3   27 1
    11    4    5 1
    12    4   28 1
    13    4   29 1
    14    5    6 1
    15    5   30 1
    16    5   31 1
    17    6    7 1
    18    6   32 1
    19    6   33 1
    20    7   16 1
    21    7    8 1
    22    8   13 ar
    23    8    9 ar
    24    9   10 ar
    25    9   34 1
    26   10   11 ar
    27   10   35 1
    28   11   12 ar
    29   11   36 1
    30   12   13 ar
    31   12   37 1
    32   13   14 1
    33   14   15 1
    34   15   20 ar
    35   15   16 ar
    36   16   17 ar
    37   17   18 ar
    38   17   38 1
    39   18   19 ar
    40   18   21 1
    41   19   20 ar
    42   19   39 1
    43   20   40 1
@<TRIPOS>MOLECULE
ZINC52619107
   59    62     0     0     0
SMALL
USER_CHARGES

@<TRIPOS>ATOM
      1 C1         -0.0167    1.3800    0.0096 C.ar      1 <0>        -0.0718
      2 C2          1.1935    2.0589    0.0017 C.ar      1 <0>        -0.1708
      3 C3          2.3747    1.3394   -0.0134 C.ar      1 <0>         0.1057
      4 N1          2.3643    0.0223   -0.0208 N.ar      1 <0>        -0.4761
      5 C4          1.2291   -0.6644   -0.0137 C.ar      1 <0>         0.1591
      6 C5          0.0021   -0.0041    0.0020 C.ar      1 <0>        -0.1591
      7 C6          1.2664   -2.1468   -0.0230 C.ar      1 <0>        -0.0227
      8 C7          0.0760   -2.8740   -0.0213 C.ar      1 <0>        -0.1086
      9 C8          0.1095   -4.2506   -0.0295 C.ar      1 <0>        -0.0602
     10 C9          1.3360   -4.9187   -0.0400 C.ar      1 <0>        -0.1263
     11 C10         2.5274   -4.1897   -0.0421 C.ar      1 <0>        -0.0900
     12 C11         2.4917   -2.8132   -0.0392 C.ar      1 <0>        -0.0872
     13 C12         1.3732   -6.3961   -0.0483 C.2       1 <0>         0.5581
     14 O1          0.3360   -7.0302   -0.0460 O.2       1 <0>        -0.5332
     15 N2          2.5569   -7.0404   -0.0583 N.am      1 <0>        -0.7231
     16 C13         2.5937   -8.5049   -0.0666 C.3       1 <0>         0.1519
     17 C14         4.0267   -8.9713   -0.0771 C.2       1 <0>        -0.1829
     18 C15         4.4532   -9.7979    0.8454 C.2       1 <0>        -0.1138
     19 C16         5.8862  -10.2643    0.8349 C.3       1 <0>         0.0804
     20 N3          6.5056   -9.9726    2.1346 N.3       1 <0>        -0.5294
     21 C17         6.6037   -8.5239    2.3577 C.3       1 <0>         0.0395
     22 C18         7.0840   -8.2623    3.7892 C.3       1 <0>         0.1519
     23 N4          8.3309   -9.0111    4.0078 N.pl3     1 <0>        -0.6750
     24 C19         8.3497  -10.4437    3.6756 C.3       1 <0>         0.1521
     25 C20         7.8196  -10.6195    2.2486 C.3       1 <0>         0.0385
     26 C21         9.4675   -8.3781    4.5182 C.ar      1 <0>         0.1934
     27 C22         9.6818   -8.3321    5.8897 C.ar      1 <0>        -0.1091
     28 C23        10.8059   -7.7060    6.3917 C.ar      1 <0>        -0.0961
     29 C24        11.7187   -7.1246    5.5309 C.ar      1 <0>        -0.1045
     30 C25        11.5093   -7.1675    4.1636 C.ar      1 <0>        -0.0286
     31 C26        10.3887   -7.7984    3.6542 C.ar      1 <0>        -0.0428
     32 Cl1        10.1296   -7.8592    1.9388 Cl        1 <0>        -0.0438
     33 Cl2        12.6577   -6.4358    3.0868 Cl        1 <0>        -0.0489
     34 H1         -0.9522    1.9194    0.0259 H         1 <0>         0.1389
     35 H2          1.2130    3.1387    0.0070 H         1 <0>         0.1383
     36 H3          3.3183    1.8647   -0.0196 H         1 <0>         0.1604
     37 H4         -0.9212   -0.5643    0.0082 H         1 <0>         0.1395
     38 H5         -0.8722   -2.3571   -0.0132 H         1 <0>         0.1352
     39 H6         -0.8122   -4.8134   -0.0275 H         1 <0>         0.1417
     40 H7          3.4763   -4.7055   -0.0502 H         1 <0>         0.1287
     41 H8          3.4128   -2.2492   -0.0453 H         1 <0>         0.1423
     42 H9          3.3845   -6.5344   -0.0601 H         1 <0>         0.4011
     43 H10         2.0941   -8.8859    0.8241 H         1 <0>         0.0749
     44 H11         2.0843   -8.8762   -0.9558 H         1 <0>         0.0778
     45 H12         4.7020   -8.6241   -0.8451 H         1 <0>         0.1143
     46 H13         3.7779  -10.1451    1.6134 H         1 <0>         0.1204
     47 H14         5.9174  -11.3381    0.6504 H         1 <0>         0.0869
     48 H15         6.4318   -9.7443    0.0475 H         1 <0>         0.0387
     49 H16         7.3142   -8.0945    1.6514 H         1 <0>         0.0400
     50 H17         5.6249   -8.0666    2.2131 H         1 <0>         0.0812
     51 H18         7.2683   -7.1966    3.9245 H         1 <0>         0.0710
     52 H19         6.3261   -8.5984    4.4968 H         1 <0>         0.0626
     53 H20         9.3708  -10.8202    3.7358 H         1 <0>         0.0720
     54 H21         7.7135  -10.9895    4.3723 H         1 <0>         0.0634
     55 H22         7.7226  -11.6819    2.0249 H         1 <0>         0.0813
     56 H23         8.5132  -10.1608    1.5439 H         1 <0>         0.0409
     57 H24         8.9696   -8.7854    6.5633 H         1 <0>         0.1388
     58 H25        10.9721   -7.6701    7.4582 H         1 <0>         0.1404
     59 H26        12.5967   -6.6358    5.9265 H         1 <0>         0.1425
@<TRIPOS>BOND
     1    1    6 ar
     2    1    2 ar
     3    1   34 1
     4    2    3 ar
     5    2   35 1
     6    3    4 ar
     7    3   36 1
     8    4    5 ar
     9    5    6 ar
    10    5    7 1
    11    6   37 1
    12    7   12 ar
    13    7    8 ar
    14    8    9 ar
    15    8   38 1
    16    9   10 ar
    17    9   39 1
    18   10   11 ar
    19   10   13 1
    20   11   12 ar
    21   11   40 1
    22   12   41 1
    23   13   14 2
    24   13   15 am
    25   15   16 1
    26   15   42 1
    27   16   17 1
    28   16   43 1
    29   16   44 1
    30   17   18 2
    31   17   45 1
    32   18   19 1
    33   18   46 1
    34   19   20 1
    35   19   47 1
    36   19   48 1
    37   20   25 1
    38   20   21 1
    39   21   22 1
    40   21   49 1
    41   21   50 1
    42   22   23 1
    43   22   51 1
    44   22   52 1
    45   23   24 1
    46   23   26 1
    47   24   25 1
    48   24   53 1
    49   24   54 1
    50   25   55 1
    51   25   56 1
    52   26   31 ar
    53   26   27 ar
    54   27   28 ar
    55   27   57 1
    56   28   29 ar
    57   28   58 1
    58   29   30 ar
    59   29   59 1
    60   30   31 ar
    61   30   33 1
    62   31   32 1
@<TRIPOS>MOLECULE
ZINC03961870
   57    60     0     0     0
SMALL
USER_CHARGES

@<TRIPOS>ATOM
      1 C1         -1.2666    0.4432    0.5823 C.3       1 <0>         0.1083
      2 N1          0.0021   -0.0041    0.0020 N.pl3     1 <0>        -0.6766
      3 C2          1.2692    0.3682    0.6361 C.3       1 <0>         0.1068
      4 C3          0.0035   -0.7752   -1.1405 C.ar      1 <0>         0.6033
      5 C4          0.0431   -0.1734   -2.4234 C.ar      1 <0>        -0.1837
      6 C5          0.0828    1.2149   -2.5907 C.ar      1 <0>        -0.0158
      7 C6          0.1203    1.7396   -3.8494 C.ar      1 <0>        -0.1225
      8 C7          0.1192    0.9124   -4.9687 C.ar      1 <0>        -0.0114
      9 C8          0.0806   -0.4443   -4.8394 C.ar      1 <0>        -0.1535
     10 C9          0.0425   -1.0168   -3.5607 C.ar      1 <0>         0.1913
     11 N2          0.0047   -2.3454   -3.3797 N.ar      1 <0>        -0.5649
     12 C10        -0.0317   -2.8528   -2.1625 C.ar      1 <0>         0.6628
     13 N3         -0.0266   -2.0975   -1.0674 N.ar      1 <0>        -0.5488
     14 N4         -0.0709   -4.2279   -2.0188 N.pl3     1 <0>        -0.6587
     15 C11        -0.0714   -5.0885   -3.2044 C.3       1 <0>         0.1192
     16 C12         1.3687   -5.3246   -3.6639 C.3       1 <0>        -0.1369
     17 C13         1.3681   -6.2234   -4.9021 C.3       1 <0>        -0.1270
     18 C14         0.7161   -7.5642   -4.5586 C.3       1 <0>         0.1419
     19 C15        -0.7241   -7.3282   -4.0990 C.3       1 <0>        -0.1296
     20 C16        -0.7234   -6.4293   -2.8609 C.3       1 <0>        -0.1228
     21 N5          0.7155   -8.4249   -5.7441 N.am      1 <0>        -0.7247
     22 C17         0.6773   -9.7648   -5.6041 C.2       1 <0>         0.5675
     23 O1          0.6433  -10.2593   -4.4940 O.2       1 <0>        -0.5209
     24 C18         0.6767  -10.6327   -6.7996 C.ar      1 <0>        -0.1256
     25 C19         0.7214  -10.0673   -8.0757 C.ar      1 <0>        -0.0674
     26 C20         0.7206  -10.8807   -9.1887 C.ar      1 <0>        -0.1311
     27 C21         0.6756  -12.2585   -9.0439 C.ar      1 <0>         0.1011
     28 C22         0.6305  -12.8270   -7.7781 C.ar      1 <0>         0.0668
     29 C23         0.6371  -12.0212   -6.6571 C.ar      1 <0>        -0.0647
     30 F1          0.5858  -14.1705   -7.6431 F         1 <0>        -0.1178
     31 F2          0.6750  -13.0508  -10.1382 F         1 <0>        -0.1167
     32 H1         -1.4995    1.4441    0.2188 H         1 <0>         0.0620
     33 H2         -2.0615   -0.2433    0.2908 H         1 <0>         0.0650
     34 H3         -1.1827    0.4616    1.6689 H         1 <0>         0.0832
     35 H4          1.5461   -0.3907    1.3678 H         1 <0>         0.0586
     36 H5          2.0476    0.4419   -0.1234 H         1 <0>         0.0644
     37 H6          1.1566    1.3305    1.1355 H         1 <0>         0.0887
     38 H7          0.0833    1.8666   -1.7295 H         1 <0>         0.1585
     39 H8          0.1509    2.8113   -3.9790 H         1 <0>         0.1545
     40 H9          0.1489    1.3520   -5.9548 H         1 <0>         0.1575
     41 H10         0.0799   -1.0739   -5.7168 H         1 <0>         0.1562
     42 H11        -0.0980   -4.6224   -1.1331 H         1 <0>         0.4436
     43 H12        -0.6334   -4.6055   -4.0038 H         1 <0>         0.0923
     44 H13         1.8332   -4.3693   -3.9087 H         1 <0>         0.0712
     45 H14         1.9306   -5.8076   -2.8646 H         1 <0>         0.0923
     46 H15         0.8061   -5.7404   -5.7015 H         1 <0>         0.0763
     47 H16         2.3940   -6.3916   -5.2295 H         1 <0>         0.0894
     48 H17         1.2780   -8.0473   -3.7592 H         1 <0>         0.0988
     49 H18        -1.2860   -6.8451   -4.8984 H         1 <0>         0.0736
     50 H19        -1.1886   -8.2834   -3.8543 H         1 <0>         0.0893
     51 H20        -0.1615   -6.9124   -2.0615 H         1 <0>         0.0888
     52 H21        -1.7494   -6.2612   -2.5335 H         1 <0>         0.0871
     53 H22         0.7426   -8.0304   -6.6298 H         1 <0>         0.4025
     54 H23         0.7562   -8.9940   -8.1906 H         1 <0>         0.1425
     55 H24         0.7549  -10.4435  -10.1756 H         1 <0>         0.1568
     56 H25         0.6073  -12.4635   -5.6724 H         1 <0>         0.1616
     57 H26         0.0037   -2.9368   -4.1486 H         1 <0>         0.4377
@<TRIPOS>BOND
     1    1    2 1
     2    1   32 1
     3    1   33 1
     4    1   34 1
     5    2    3 1
     6    2    4 1
     7    3   35 1
     8    3   36 1
     9    3   37 1
    10    4   13 ar
    11    4    5 ar
    12    5   10 ar
    13    5    6 ar
    14    6    7 ar
    15    6   38 1
    16    7    8 ar
    17    7   39 1
    18    8    9 ar
    19    8   40 1
    20    9   10 ar
    21    9   41 1
    22   10   11 ar
    23   11   12 ar
    24   11   57 1
    25   12   13 ar
    26   12   14 1
    27   14   15 1
    28   14   42 1
    29   15   20 1
    30   15   16 1
    31   15   43 1
    32   16   17 1
    33   16   44 1
    34   16   45 1
    35   17   18 1
    36   17   46 1
    37   17   47 1
    38   18   19 1
    39   18   21 1
    40   18   48 1
    41   19   20 1
    42   19   49 1
    43   19   50 1
    44   20   51 1
    45   20   52 1
    46   21   22 am
    47   21   53 1
    48   22   23 2
    49   22   24 1
    50   24   29 ar
    51   24   25 ar
    52   25   26 ar
    53   25   54 1
    54   26   27 ar
    55   26   55 1
    56   27   28 ar
    57   27   31 1
    58   28   29 ar
    59   28   30 1
    60   29   56 1
@<TRIPOS>MOLECULE
ZINC00602825
   52    55     0     0     0
SMALL
USER_CHARGES
N-[(4-BLAHylaminocyclohexyl)methyl]methanesulfonamide
@<TRIPOS>ATOM
      1 C1          1.2991    1.2572    5.5492 C.3       1 <0>        -0.6739
      2 S1         -0.3896    0.7225    5.1580 S.o2      1 <0>         2.6153
      3 O1         -1.3094    1.2937    6.0783 O.2       1 <0>        -0.9588
      4 O2         -0.4104   -0.6717    4.8840 O.2       1 <0>        -0.9569
      5 N1         -0.7392    1.4432    3.7087 N.pl3     1 <0>        -1.1196
      6 C2          0.0111    1.0724    2.5063 C.3       1 <0>         0.1164
      7 C3         -0.7288    1.5792    1.2668 C.3       1 <0>        -0.0967
      8 C4         -0.0127    1.0858    0.0080 C.3       1 <0>        -0.1089
      9 C5         -0.7527    1.5927   -1.2315 C.3       1 <0>        -0.1268
     10 C6         -0.7734    3.1225   -1.2231 C.3       1 <0>         0.1610
     11 C7         -1.4896    3.6159    0.0357 C.3       1 <0>        -0.1315
     12 C8         -0.7496    3.1091    1.2752 C.3       1 <0>        -0.1122
     13 N2         -1.4820    3.6078   -2.4100 N.pl3     1 <0>        -0.6733
     14 C9         -1.2101    4.8705   -2.9110 C.2       1 <0>         0.3903
     15 N3         -0.3637    5.7807   -2.4669 N.2       1 <0>        -0.5636
     16 C10        -0.2282    6.9761   -3.0639 C.2       1 <0>         0.1458
     17 C11        -0.9754    7.1957   -4.1838 C.2       1 <0>        -0.2061
     18 S2         -1.9190    5.7033   -4.3278 S.3       1 <0>         0.0031
     19 C12        -0.9066    8.3830   -5.0739 C.3       1 <0>        -0.0338
     20 C13        -1.8018    9.5388   -4.5626 C.3       1 <0>        -0.0910
     21 S3         -1.5834    9.6158   -2.7534 S.3       1 <0>        -0.1476
     22 C14         0.1370    9.3615   -2.4872 C.ar      1 <0>        -0.0973
     23 C15         0.6546    8.0763   -2.5593 C.ar      1 <0>         0.0228
     24 C16         1.9670    7.8192   -2.1864 C.ar      1 <0>        -0.0943
     25 C17         2.7729    8.8743   -1.7945 C.ar      1 <0>        -0.0982
     26 C18         2.2767   10.1659   -1.7836 C.ar      1 <0>        -0.1211
     27 C19         0.9610   10.4196   -2.1304 C.ar      1 <0>        -0.0697
     28 H1          1.3283    2.3443    5.6222 H         1 <0>         0.1290
     29 H2          1.6074    0.8209    6.4993 H         1 <0>         0.1296
     30 H3          1.9763    0.9276    4.7613 H         1 <0>         0.1266
     31 H4         -1.4408    2.1109    3.6559 H         1 <0>         0.4186
     32 H5          0.1037   -0.0125    2.4560 H         1 <0>         0.0836
     33 H6          1.0041    1.5203    2.5452 H         1 <0>         0.0661
     34 H7         -1.7514    1.2020    1.2746 H         1 <0>         0.0843
     35 H8          0.0021   -0.0041    0.0020 H         1 <0>         0.0760
     36 H9          1.0099    1.4631    0.0003 H         1 <0>         0.0711
     37 H10        -0.2425    1.2411   -2.1283 H         1 <0>         0.0741
     38 H11        -1.7753    1.2154   -1.2238 H         1 <0>         0.0721
     39 H12         0.2491    3.4998   -1.2308 H         1 <0>         0.0913
     40 H13        -1.5044    4.7058    0.0417 H         1 <0>         0.0718
     41 H14        -2.5122    3.2386    0.0434 H         1 <0>         0.0658
     42 H15         0.2730    3.4864    1.2675 H         1 <0>         0.0694
     43 H16        -1.2598    3.4606    2.1720 H         1 <0>         0.0680
     44 H17        -2.1415    3.0450   -2.8450 H         1 <0>         0.4183
     45 H18         0.1256    8.7292   -5.1248 H         1 <0>         0.0863
     46 H19        -1.2332    8.0965   -6.0737 H         1 <0>         0.0880
     47 H20        -2.8454    9.3362   -4.8035 H         1 <0>         0.1101
     48 H21        -1.4915   10.4804   -5.0156 H         1 <0>         0.0969
     49 H22         2.3536    6.8109   -2.2024 H         1 <0>         0.1321
     50 H23         3.7937    8.6883   -1.4950 H         1 <0>         0.1300
     51 H24         2.9226   10.9844   -1.5020 H         1 <0>         0.1302
     52 H25         0.5796   11.4300   -2.1231 H         1 <0>         0.1375
@<TRIPOS>BOND
     1    1    2 1
     2    1   28 1
     3    1   29 1
     4    1   30 1
     5    2    3 2
     6    2    4 2
     7    2    5 1
     8    5    6 1
     9    5   31 1
    10    6    7 1
    11    6   32 1
    12    6   33 1
    13    7   12 1
    14    7    8 1
    15    7   34 1
    16    8    9 1
    17    8   35 1
    18    8   36 1
    19    9   10 1
    20    9   37 1
    21    9   38 1
    22   10   11 1
    23   10   13 1
    24   10   39 1
    25   11   12 1
    26   11   40 1
    27   11   41 1
    28   12   42 1
    29   12   43 1
    30   13   14 1
    31   13   44 1
    32   14   18 1
    33   14   15 2
    34   15   16 1
    35   16   23 1
    36   16   17 2
    37   17   18 1
    38   17   19 1
    39   19   20 1
    40   19   45 1
    41   19   46 1
    42   20   21 1
    43   20   47 1
    44   20   48 1
    45   21   22 1
    46   22   27 ar
    47   22   23 ar
    48   23   24 ar
    49   24   25 ar
    50   24   49 1
    51   25   26 ar
    52   25   50 1
    53   26   27 ar
    54   26   51 1
    55   27   52 1
