@<TRIPOS>MOLECULE
ZINC00014360
   42    43     0     0     0
SMALL
USER_CHARGES

@<TRIPOS>ATOM
      1 C1         -0.0178    1.4608    0.0101 C.3       1 <0>         0.0793
      2 N1          0.0021   -0.0041    0.0020 N.pl3     1 <0>        -1.1235
      3 S1          0.7421   -0.8289    1.2326 S.o2      1 <0>         2.6084
      4 O1          0.5924   -2.2002    0.8914 O.2       1 <0>        -0.9468
      5 O2          2.0334   -0.2448    1.3355 O.2       1 <0>        -0.9510
      6 C2         -0.2382   -0.4417    2.7090 C.3       1 <0>        -0.5828
      7 C3          0.3516   -1.1474    3.9028 C.ar      1 <0>        -0.1049
      8 C4         -0.0784   -2.4267    4.2282 C.ar      1 <0>        -0.0826
      9 C5          0.4473   -3.0893    5.3155 C.ar      1 <0>        -0.1137
     10 C6          1.4193   -2.4726    6.0968 C.ar      1 <0>         0.1042
     11 C7          1.8519   -1.1765    5.7625 C.ar      1 <0>        -0.0991
     12 C8          1.3091   -0.5253    4.6530 C.ar      1 <0>        -0.0640
     13 C9          2.8614   -0.8166    6.7612 C.2       1 <0>        -0.2000
     14 C10         2.9754   -1.8603    7.5977 C.2       1 <0>         0.0879
     15 N2          2.1214   -2.8591    7.2163 N.pl3     1 <0>        -0.5851
     16 H1          2.0253   -3.7124    7.6673 H         1 <0>         0.4255
     17 C11         3.6270    0.4793    6.8351 C.3       1 <0>        -0.0627
     18 C12         2.7992    1.5182    7.5943 C.3       1 <0>        -0.0095
     19 N3          3.5455    2.7814    7.6664 N.4       1 <0>        -0.3881
     20 C13         3.7116    3.3299    6.3138 C.3       1 <0>        -0.0545
     21 C14         2.8051    3.7410    8.4964 C.3       1 <0>        -0.0469
     22 H2          1.0048    1.8381    0.0023 H         1 <0>         0.0693
     23 H3         -0.5450    1.8219   -0.8730 H         1 <0>         0.0876
     24 H4         -0.5280    1.8123    0.9069 H         1 <0>         0.0574
     25 H5         -0.4183   -0.4908   -0.7241 H         1 <0>         0.4222
     26 H6         -0.2266    0.6346    2.8808 H         1 <0>         0.1378
     27 H7         -1.2653   -0.7750    2.5608 H         1 <0>         0.1453
     28 H8         -0.8329   -2.9072    3.6230 H         1 <0>         0.1399
     29 H9          0.1057   -4.0841    5.5609 H         1 <0>         0.1340
     30 H10         1.6421    0.4681    4.3911 H         1 <0>         0.1262
     31 H11         3.6421   -1.9048    8.4461 H         1 <0>         0.1761
     32 H12         4.5701    0.3149    7.3563 H         1 <0>         0.0931
     33 H13         3.8275    0.8410    5.8266 H         1 <0>         0.0945
     34 H14         1.8561    1.6826    7.0732 H         1 <0>         0.1293
     35 H15         2.5988    1.1565    8.6029 H         1 <0>         0.1303
     36 H16         4.2654    4.2672    6.3673 H         1 <0>         0.1245
     37 H17         4.2611    2.6179    5.6980 H         1 <0>         0.1265
     38 H18         2.7316    3.5116    5.8726 H         1 <0>         0.1219
     39 H19         2.6818    3.3340    9.5001 H         1 <0>         0.1225
     40 H20         3.3588    4.6783    8.5499 H         1 <0>         0.1241
     41 H21         1.8251    3.9226    8.0552 H         1 <0>         0.1209
     42 H22         4.4527    2.6132    8.0749 H         1 <0>         0.4266
@<TRIPOS>BOND
     1    1    2 1
     2    1   22 1
     3    1   23 1
     4    1   24 1
     5    2    3 1
     6    2   25 1
     7    3    4 2
     8    3    5 2
     9    3    6 1
    10    6    7 1
    11    6   26 1
    12    6   27 1
    13    7   12 ar
    14    7    8 ar
    15    8    9 ar
    16    8   28 1
    17    9   10 ar
    18    9   29 1
    19   10   15 1
    20   10   11 ar
    21   11   12 ar
    22   11   13 1
    23   12   30 1
    24   13   14 2
    25   13   17 1
    26   14   15 1
    27   14   31 1
    28   15   16 1
    29   17   18 1
    30   17   32 1
    31   17   33 1
    32   18   19 1
    33   18   34 1
    34   18   35 1
    35   19   20 1
    36   19   21 1
    37   19   42 1
    38   20   36 1
    39   20   37 1
    40   20   38 1
    41   21   39 1
    42   21   40 1
    43   21   41 1
@<TRIPOS>MOLECULE
ZINC11632569
   35    36     0     0     0
SMALL
USER_CHARGES
1-(2,5-dimethoxyphenyl)piperazine
@<TRIPOS>ATOM
      1 C1         -3.6155    2.9977    0.1033 C.3       1 <0>         0.0245
      2 O1         -2.4303    3.7960    0.0979 O.3       1 <0>        -0.3157
      3 C2         -1.2419    3.1365    0.0574 C.ar      1 <0>         0.1208
      4 C3         -1.2198    1.7502    0.0172 C.ar      1 <0>        -0.1717
      5 C4         -0.0130    1.0762   -0.0188 C.ar      1 <0>        -0.1444
      6 C5          1.1771    1.7841   -0.0264 C.ar      1 <0>         0.0934
      7 C6          1.1583    3.1765    0.0081 C.ar      1 <0>         0.0904
      8 C7         -0.0534    3.8503    0.0499 C.ar      1 <0>        -0.1616
      9 N1          2.3597    3.8943    0.0009 N.pl3     1 <0>        -0.4748
     10 C8          2.1145    5.3295   -0.1985 C.3       1 <0>         0.0174
     11 C9          3.4534    6.0665   -0.2796 C.3       1 <0>         0.0024
     12 C10         4.4596    4.3966    1.1548 C.3       1 <0>         0.0027
     13 C11         3.1207    3.6595    1.2359 C.3       1 <0>         0.0252
     14 O2          2.3642    1.1199   -0.0680 O.3       1 <0>        -0.3119
     15 C12         2.3082   -0.3075   -0.1022 C.3       1 <0>         0.0228
     16 H1         -4.4906    3.6468    0.1371 H         1 <0>         0.1068
     17 H2         -3.6484    2.3902   -0.8011 H         1 <0>         0.0597
     18 H3         -3.6115    2.3473    0.9779 H         1 <0>         0.0590
     19 H4         -2.1468    1.1960    0.0183 H         1 <0>         0.1385
     20 H5          0.0014   -0.0034   -0.0455 H         1 <0>         0.1408
     21 H6         -0.0710    4.9298    0.0763 H         1 <0>         0.1415
     22 H7          1.5606    5.4784   -1.1254 H         1 <0>         0.1290
     23 H8          1.5350    5.7191    0.6384 H         1 <0>         0.0713
     24 H9          3.2737    7.1350   -0.3985 H         1 <0>         0.1409
     25 H10         4.0215    5.6958   -1.1329 H         1 <0>         0.1404
     26 H11         5.0135    4.2476    2.0817 H         1 <0>         0.1399
     27 H12         5.0393    4.0067    0.3181 H         1 <0>         0.1409
     28 H13         2.5527    4.0302    2.0892 H         1 <0>         0.0656
     29 H14         3.3001    2.5910    1.3550 H         1 <0>         0.1335
     30 H15         1.7618   -0.6286   -0.9890 H         1 <0>         0.0593
     31 H16         3.3205   -0.7103   -0.1335 H         1 <0>         0.1048
     32 H17         1.7994   -0.6726    0.7900 H         1 <0>         0.0572
     33 N2          4.2176    5.8389    0.9615 N.4       1 <0>        -0.5191
     34 H18         3.6840    6.2030    1.7597 H         1 <0>         0.4308
     35 H19         5.1180    6.3284    0.8998 H         1 <0>         0.4392
@<TRIPOS>BOND
     1    1    2 1
     2    1   16 1
     3    1   17 1
     4    1   18 1
     5    2    3 1
     6    3    8 ar
     7    3    4 ar
     8    4    5 ar
     9    4   19 1
    10    5    6 ar
    11    5   20 1
    12    6    7 ar
    13    6   14 1
    14    7    8 ar
    15    7    9 1
    16    8   21 1
    17    9   13 1
    18    9   10 1
    19   10   11 1
    20   10   22 1
    21   10   23 1
    22   11   24 1
    23   11   25 1
    24   11   33 1
    25   12   13 1
    26   12   26 1
    27   12   27 1
    28   12   33 1
    29   13   28 1
    30   13   29 1
    31   14   15 1
    32   15   30 1
    33   15   31 1
    34   15   32 1
    35   33   34 1
    36   33   35 1
@<TRIPOS>MOLECULE
ZINC27714862
   38    39     0     0     0
SMALL
USER_CHARGES
1-(2,5-dimethoxy-4-methyl-phenyl)piperazine
@<TRIPOS>ATOM
      1 C1         -2.0173    2.4476    3.4994 C.3       1 <0>        -0.1135
      2 C2         -2.6835    1.5748    2.4672 C.ar      1 <0>        -0.0744
      3 C3         -4.0076    1.2073    2.6248 C.ar      1 <0>        -0.1509
      4 C4         -4.6223    0.4057    1.6783 C.ar      1 <0>         0.1001
      5 C5         -3.9061   -0.0313    0.5658 C.ar      1 <0>         0.0810
      6 C6         -2.5803    0.3427    0.4073 C.ar      1 <0>        -0.2119
      7 C7         -1.9678    1.1414    1.3614 C.ar      1 <0>         0.1161
      8 O1         -0.6662    1.5041    1.2097 O.3       1 <0>        -0.3062
      9 C8          0.0105    1.0218    0.0472 C.3       1 <0>         0.0235
     10 N1         -4.5252   -0.8418   -0.3925 N.pl3     1 <0>        -0.4742
     11 C9         -3.6812   -0.9833   -1.5872 C.3       1 <0>         0.0169
     12 C10        -4.4256   -1.8084   -2.6396 C.3       1 <0>         0.0034
     13 N2         -4.7633   -3.1238   -2.0780 N.4       1 <0>        -0.5384
     14 C11        -5.6072   -2.9823   -0.8833 C.3       1 <0>         0.0015
     15 C12        -4.8628   -2.1572    0.1691 C.3       1 <0>         0.0233
     16 O2         -5.9250    0.0442    1.8345 O.3       1 <0>        -0.3117
     17 C13        -6.5973    0.5281    2.9989 C.3       1 <0>         0.0190
     18 H1         -2.7369    2.6881    4.2958 H         1 <0>         0.0691
     19 H2         -1.6712    3.3777    3.0249 H         1 <0>         0.0775
     20 H3         -1.1575    1.9141    3.9309 H         1 <0>         0.0767
     21 H4         -4.5623    1.5458    3.4873 H         1 <0>         0.1442
     22 H5         -2.0239    0.0089   -0.4561 H         1 <0>         0.1386
     23 H6          1.0481    1.3869    0.0490 H         1 <0>         0.1085
     24 H7         -0.5046    1.3854   -0.8542 H         1 <0>         0.0551
     25 H8          0.0089   -0.0782    0.0519 H         1 <0>         0.0523
     26 H9         -3.4528    0.0125   -1.9948 H         1 <0>         0.1253
     27 H10        -2.7444   -1.4922   -1.3162 H         1 <0>         0.0663
     28 H11        -5.3483   -1.2850   -2.9305 H         1 <0>         0.1381
     29 H12        -3.7843   -1.9397   -3.5236 H         1 <0>         0.1402
     30 H13        -5.3092   -3.7139   -2.8289 H         1 <0>         0.4576
     31 H14        -6.5440   -2.4734   -1.1543 H         1 <0>         0.1381
     32 H15        -5.8356   -3.9781   -0.4756 H         1 <0>         0.1400
     33 H16        -3.9395   -2.6795    0.4602 H         1 <0>         0.0631
     34 H17        -5.5036   -2.0249    1.0533 H         1 <0>         0.1329
     35 H18        -7.6354    0.1642    3.0007 H         1 <0>         0.1060
     36 H19        -6.5944    1.6281    2.9934 H         1 <0>         0.0607
     37 H20        -6.0797    0.1645    3.8988 H         1 <0>         0.0586
     38 H21        -3.8394   -3.6512   -1.7981 H         1 <0>         0.4472
@<TRIPOS>BOND
     1    1    2 1
     2    1   18 1
     3    1   19 1
     4    1   20 1
     5    2    7 ar
     6    2    3 ar
     7    3    4 ar
     8    3   21 1
     9    4    5 ar
    10    4   16 1
    11    5    6 ar
    12    5   10 1
    13    6    7 ar
    14    6   22 1
    15    7    8 1
    16    8    9 1
    17    9   23 1
    18    9   24 1
    19    9   25 1
    20   10   15 1
    21   10   11 1
    22   11   12 1
    23   11   26 1
    24   11   27 1
    25   12   13 1
    26   12   28 1
    27   12   29 1
    28   13   14 1
    29   13   30 1
    30   13   38 1
    31   14   15 1
    32   14   31 1
    33   14   32 1
    34   15   33 1
    35   15   34 1
    36   16   17 1
    37   17   35 1
    38   17   36 1
    39   17   37 1
@<TRIPOS>MOLECULE
ZINC19376338
   32    34     0     0     0
SMALL
USER_CHARGES

@<TRIPOS>ATOM
      1 C1         -0.0239    1.3370    0.2441 C.ar      1 <0>        -0.1256
      2 C2          1.1550    2.0478    0.4568 C.ar      1 <0>        -0.0782
      3 C3          2.3643    1.4231    0.4379 C.ar      1 <0>        -0.1141
      4 C4          2.4311    0.0393    0.2011 C.ar      1 <0>         0.1744
      5 C5          1.2312   -0.6814   -0.0144 C.ar      1 <0>        -0.1375
      6 C6          0.0018   -0.0048    0.0116 C.ar      1 <0>        -0.0809
      7 C7          1.2976   -2.0694   -0.2519 C.ar      1 <0>        -0.0096
      8 C8          2.5231   -2.6645   -0.2643 C.ar      1 <0>        -0.2222
      9 C9          3.6751   -1.8960   -0.0441 C.ar      1 <0>         0.4150
     10 N1          3.6064   -0.5993    0.1777 N.ar      1 <0>        -0.5363
     11 N2          4.9157   -2.5156   -0.0597 N.pl3     1 <0>        -0.6266
     12 C10         6.1561   -1.7247   -0.0617 C.3       1 <0>         0.1015
     13 C11         7.0719   -2.2550    1.0465 C.3       1 <0>        -0.0225
     14 N3          7.2730   -3.6982    0.8653 N.4       1 <0>        -0.5046
     15 C12         5.9976   -4.4059    1.0344 C.3       1 <0>        -0.0221
     16 C13         5.0286   -3.9823   -0.0687 C.3       1 <0>         0.0992
     17 H1         -0.9708    1.8557    0.2683 H         1 <0>         0.1324
     18 H2          1.1089    3.1113    0.6392 H         1 <0>         0.1343
     19 H3          3.2692    1.9888    0.6039 H         1 <0>         0.1349
     20 H4         -0.9189   -0.5453   -0.1515 H         1 <0>         0.1333
     21 H5          0.4000   -2.6463   -0.4193 H         1 <0>         0.1464
     22 H6          2.6072   -3.7262   -0.4432 H         1 <0>         0.1365
     23 H7          6.6530   -1.8250   -1.0266 H         1 <0>         0.0880
     24 H8          5.9227   -0.6768    0.1263 H         1 <0>         0.1390
     25 H9          8.0340   -1.7450    0.9980 H         1 <0>         0.1449
     26 H10         6.6116   -2.0712    2.0173 H         1 <0>         0.1341
     27 H11         7.6328   -3.8727   -0.0611 H         1 <0>         0.4286
     28 H12         6.1681   -5.4809    0.9769 H         1 <0>         0.1469
     29 H13         5.5698   -4.1571    2.0056 H         1 <0>         0.1344
     30 H14         4.0501   -4.4261    0.1146 H         1 <0>         0.1284
     31 H15         5.4097   -4.3144   -1.0344 H         1 <0>         0.0943
     32 H16         7.9351   -4.0327    1.5492 H         1 <0>         0.4339
@<TRIPOS>BOND
     1    1    6 ar
     2    1    2 ar
     3    1   17 1
     4    2    3 ar
     5    2   18 1
     6    3    4 ar
     7    3   19 1
     8    4   10 ar
     9    4    5 ar
    10    5    6 ar
    11    5    7 ar
    12    6   20 1
    13    7    8 ar
    14    7   21 1
    15    8    9 ar
    16    8   22 1
    17    9   10 ar
    18    9   11 1
    19   11   16 1
    20   11   12 1
    21   12   13 1
    22   12   23 1
    23   12   24 1
    24   13   14 1
    25   13   25 1
    26   13   26 1
    27   14   15 1
    28   14   27 1
    29   14   32 1
    30   15   16 1
    31   15   28 1
    32   15   29 1
    33   16   30 1
    34   16   31 1
@<TRIPOS>MOLECULE
ZINC71754993
   49    52     0     0     0
SMALL
USER_CHARGES

@<TRIPOS>ATOM
      1 C1          2.6170   -2.6358   -1.1889 C.3       1 <0>        -0.1671
      2 C2          2.2134   -1.1611   -1.2456 C.3       1 <0>         0.1069
      3 N1          0.7528   -1.0529   -1.2130 N.am      1 <0>        -0.6114
      4 C3          0.0461   -1.0616    0.0703 C.3       1 <0>         0.0994
      5 C4         -0.0614    0.3687    0.6029 C.3       1 <0>        -0.1765
      6 C5          0.0592   -0.9454   -2.3636 C.2       1 <0>         0.5267
      7 O1          0.6474   -0.8703   -3.4215 O.2       1 <0>        -0.5333
      8 C6         -1.4473   -0.9186   -2.3355 C.3       1 <0>        -0.0725
      9 H1         -1.8080   -1.4645   -1.4638 H         1 <0>         0.1146
     10 C7         -1.9990   -1.5624   -3.6126 C.3       1 <0>         0.0770
     11 N2         -3.4593   -1.4331   -3.6037 N.3       1 <0>        -0.5484
     12 C8         -3.9081   -0.0485   -3.6742 C.3       1 <0>         0.1385
     13 H2         -3.8294    0.2578   -4.7173 H         1 <0>         0.0457
     14 C9         -5.3934    0.0321   -3.2953 C.3       1 <0>        -0.0232
     15 C10        -5.8207    1.4760   -3.2538 C.2       1 <0>        -0.1681
     16 C11        -6.9734    2.1212   -3.3973 C.2       1 <0>         0.0572
     17 N3         -6.7828    3.4861   -3.2468 N.pl3     1 <0>        -0.5952
     18 H3         -7.4843    4.1531   -3.3095 H         1 <0>         0.4163
     19 C12        -5.4715    3.7584   -2.9981 C.ar      1 <0>         0.1107
     20 C13        -4.8308    2.5163   -3.0000 C.ar      1 <0>        -0.1310
     21 C14        -3.4506    2.3050   -2.7990 C.ar      1 <0>        -0.0034
     22 C15        -2.7031    3.4367   -2.5663 C.ar      1 <0>        -0.1283
     23 C16        -3.3241    4.6838   -2.5516 C.ar      1 <0>        -0.0962
     24 C17        -4.6837    4.8842   -2.7614 C.ar      1 <0>        -0.1216
     25 C18        -3.0445    0.8889   -2.8726 C.2       1 <0>        -0.0548
     26 C19        -1.9279    0.5065   -2.2758 C.2       1 <0>        -0.1279
     27 C20        -4.0657   -2.2382   -4.6723 C.3       1 <0>         0.0274
     28 H4          2.2786   -3.0692   -0.2477 H         1 <0>         0.0559
     29 H5          2.1583   -3.1703   -2.0208 H         1 <0>         0.0579
     30 H6          3.7017   -2.7185   -1.2577 H         1 <0>         0.0673
     31 H7          2.6359   -0.6355   -0.3892 H         1 <0>         0.0755
     32 H8          2.5902   -0.7164   -2.1667 H         1 <0>         0.0872
     33 H9         -0.9534   -1.4738   -0.0682 H         1 <0>         0.0851
     34 H10         0.5964   -1.6747    0.7839 H         1 <0>         0.0811
     35 H11        -0.5106    0.3537    1.5960 H         1 <0>         0.0701
     36 H12         0.9333    0.8106    0.6607 H         1 <0>         0.0594
     37 H13        -0.6835    0.9606   -0.0684 H         1 <0>         0.0612
     38 H14        -1.5914   -1.0526   -4.4855 H         1 <0>         0.0533
     39 H15        -1.7248   -2.6170   -3.6391 H         1 <0>         0.0845
     40 H16        -5.9874   -0.5018   -4.0371 H         1 <0>         0.0765
     41 H17        -5.5435   -0.4200   -2.3149 H         1 <0>         0.0843
     42 H18        -7.9232    1.6497   -3.6022 H         1 <0>         0.1695
     43 H19        -1.6396    3.3585   -2.3953 H         1 <0>         0.1220
     44 H20        -2.7091    5.5517   -2.3648 H         1 <0>         0.1224
     45 H21        -5.1135    5.8748   -2.7421 H         1 <0>         0.1285
     46 H22        -1.3518    1.2331   -1.7222 H         1 <0>         0.1200
     47 H23        -3.7498   -3.2763   -4.5689 H         1 <0>         0.0734
     48 H24        -5.1517   -2.1799   -4.5994 H         1 <0>         0.0744
     49 H25        -3.7455   -1.8558   -5.6415 H         1 <0>         0.0291
@<TRIPOS>BOND
     1    1    2 1
     2    1   28 1
     3    1   29 1
     4    1   30 1
     5    2    3 1
     6    2   31 1
     7    2   32 1
     8    3    4 1
     9    3    6 am
    10    4    5 1
    11    4   33 1
    12    4   34 1
    13    5   35 1
    14    5   36 1
    15    5   37 1
    16    6    7 2
    17    6    8 1
    18    8    9 1
    19    8   26 1
    20    8   10 1
    21   10   11 1
    22   10   38 1
    23   10   39 1
    24   11   12 1
    25   11   27 1
    26   12   13 1
    27   12   25 1
    28   12   14 1
    29   14   15 1
    30   14   40 1
    31   14   41 1
    32   15   20 1
    33   15   16 2
    34   16   17 1
    35   16   42 1
    36   17   18 1
    37   17   19 1
    38   19   24 ar
    39   19   20 ar
    40   20   21 ar
    41   21   22 ar
    42   21   25 1
    43   22   23 ar
    44   22   43 1
    45   23   24 ar
    46   23   44 1
    47   24   45 1
    48   25   26 2
    49   26   46 1
    50   27   47 1
    51   27   48 1
    52   27   49 1
@<TRIPOS>MOLECULE
ZINC71754993
   50    53     0     0     0
SMALL
USER_CHARGES

@<TRIPOS>ATOM
      1 C1         -4.4131    1.6542    2.7709 C.3       1 <0>        -0.1692
      2 C2         -3.1002    1.6745    1.9857 C.3       1 <0>         0.1077
      3 N1         -3.2120    0.7884    0.8243 N.am      1 <0>        -0.6044
      4 C3         -3.6997    1.3136   -0.4534 C.3       1 <0>         0.0980
      5 C4         -2.5178    1.8262   -1.2787 C.3       1 <0>        -0.1810
      6 C5         -2.8661   -0.5098    0.9314 C.2       1 <0>         0.5240
      7 O1         -2.5501   -0.9662    2.0097 O.2       1 <0>        -0.5069
      8 C6         -2.8722   -1.3943   -0.2887 C.3       1 <0>        -0.1042
      9 H1         -2.7358   -0.7873   -1.1837 H         1 <0>         0.1306
     10 C7         -4.2036   -2.1497   -0.3737 C.3       1 <0>         0.0021
     11 N2         -4.1503   -3.0574   -1.5221 N.4       1 <0>        -0.3772
     12 C8         -3.1649   -4.1132   -1.3324 C.3       1 <0>         0.0727
     13 H2         -3.6138   -4.8485   -0.6647 H         1 <0>         0.1401
     14 C9         -2.9105   -4.8224   -2.6700 C.3       1 <0>        -0.0390
     15 C10        -1.8064   -5.8325   -2.5003 C.2       1 <0>        -0.2014
     16 C11        -1.4541   -6.9552   -3.1179 C.2       1 <0>         0.0960
     17 N3         -0.3151   -7.4883   -2.5346 N.pl3     1 <0>        -0.5871
     18 H3          0.1234   -8.3046   -2.8215 H         1 <0>         0.4245
     19 C12         0.1019   -6.7038   -1.5020 C.ar      1 <0>         0.1104
     20 C13        -0.8165   -5.6518   -1.4449 C.ar      1 <0>        -0.1254
     21 C14        -0.7954   -4.5939   -0.5123 C.ar      1 <0>        -0.0281
     22 C15         0.2416   -4.6193    0.3924 C.ar      1 <0>        -0.0998
     23 C16         1.1732   -5.6542    0.3464 C.ar      1 <0>        -0.0987
     24 C17         1.1382   -6.6995   -0.5693 C.ar      1 <0>        -0.0978
     25 C18        -1.9016   -3.6317   -0.6709 C.2       1 <0>        -0.0695
     26 C19        -1.7626   -2.4072   -0.1876 C.2       1 <0>        -0.1111
     27 C20        -5.4735   -3.6664   -1.7125 C.3       1 <0>        -0.0520
     28 H4         -4.3299    2.3134    3.6350 H         1 <0>         0.0742
     29 H5         -5.2253    1.9965    2.1296 H         1 <0>         0.0570
     30 H6         -4.6195    0.6382    3.1076 H         1 <0>         0.0594
     31 H7         -2.8938    2.6904    1.6490 H         1 <0>         0.0854
     32 H8         -2.2879    1.3322    2.6269 H         1 <0>         0.0886
     33 H9         -4.2089    0.5208   -1.0014 H         1 <0>         0.0700
     34 H10        -4.3955    2.1319   -0.2680 H         1 <0>         0.0939
     35 H11        -2.8686    2.1332   -2.2639 H         1 <0>         0.0759
     36 H12        -2.0638    2.6783   -0.7728 H         1 <0>         0.0695
     37 H13        -1.7789    1.0322   -1.3872 H         1 <0>         0.0580
     38 H14        -4.3580   -2.7236    0.5400 H         1 <0>         0.1434
     39 H15        -5.0199   -1.4395   -0.5058 H         1 <0>         0.1437
     40 H16        -3.8204   -5.3293   -2.9914 H         1 <0>         0.0997
     41 H17        -2.6190   -4.0881   -3.4210 H         1 <0>         0.0934
     42 H18        -1.9802   -7.3903   -3.9547 H         1 <0>         0.1758
     43 H19         0.3329   -3.8400    1.1346 H         1 <0>         0.1302
     44 H20         1.9754   -5.6435    1.0695 H         1 <0>         0.1317
     45 H21         1.8852   -7.4794   -0.5582 H         1 <0>         0.1373
     46 H22        -0.8304   -2.1256    0.2794 H         1 <0>         0.1476
     47 H23        -6.2103   -2.8845   -1.8961 H         1 <0>         0.1309
     48 H24        -5.4422   -4.3438   -2.5658 H         1 <0>         0.1309
     49 H25        -5.7497   -4.2228   -0.8168 H         1 <0>         0.1266
     50 H26        -3.9112   -2.5291   -2.3478 H         1 <0>         0.4234
@<TRIPOS>BOND
     1    1    2 1
     2    1   28 1
     3    1   29 1
     4    1   30 1
     5    2    3 1
     6    2   31 1
     7    2   32 1
     8    3    4 1
     9    3    6 am
    10    4    5 1
    11    4   33 1
    12    4   34 1
    13    5   35 1
    14    5   36 1
    15    5   37 1
    16    6    7 2
    17    6    8 1
    18    8    9 1
    19    8   26 1
    20    8   10 1
    21   10   11 1
    22   10   38 1
    23   10   39 1
    24   11   12 1
    25   11   27 1
    26   11   50 1
    27   12   13 1
    28   12   25 1
    29   12   14 1
    30   14   15 1
    31   14   40 1
    32   14   41 1
    33   15   20 1
    34   15   16 2
    35   16   17 1
    36   16   42 1
    37   17   18 1
    38   17   19 1
    39   19   24 ar
    40   19   20 ar
    41   20   21 ar
    42   21   22 ar
    43   21   25 1
    44   22   23 ar
    45   22   43 1
    46   23   24 ar
    47   23   44 1
    48   24   45 1
    49   25   26 2
    50   26   46 1
    51   27   47 1
    52   27   48 1
    53   27   49 1
@<TRIPOS>MOLECULE
ZINC00157416
   28    29     0     0     0
SMALL
USER_CHARGES
2-piperazin-1-ylphenol
@<TRIPOS>ATOM
      1 C1          1.1407    3.5085    0.0361 C.ar      1 <0>        -0.1019
      2 C2         -0.0762    4.1646    0.0380 C.ar      1 <0>        -0.1041
      3 C3         -1.2554    3.4425    0.0198 C.ar      1 <0>        -0.1244
      4 C4         -1.2199    2.0580   -0.0000 C.ar      1 <0>         0.1059
      5 C5          0.0060    1.3960   -0.0020 C.ar      1 <0>         0.0566
      6 C6          1.1848    2.1270    0.0212 C.ar      1 <0>        -0.1477
      7 N1          0.0480   -0.0028   -0.0214 N.pl3     1 <0>        -0.4788
      8 C7          1.4160   -0.4854   -0.2565 C.3       1 <0>         0.0189
      9 C8          1.4063   -2.0130   -0.3498 C.3       1 <0>         0.0017
     10 C9         -0.5086   -2.0911    1.1287 C.3       1 <0>         0.0021
     11 C10        -0.4988   -0.5635    1.2220 C.3       1 <0>         0.0248
     12 O1         -2.3789    1.3465   -0.0171 O.3       1 <0>        -0.4835
     13 H1          2.0590    4.0766    0.0507 H         1 <0>         0.1337
     14 H2         -0.1060    5.2441    0.0541 H         1 <0>         0.1358
     15 H3         -2.2043    3.9582    0.0213 H         1 <0>         0.1392
     16 H4          2.1367    1.6169    0.0239 H         1 <0>         0.1306
     17 H5          1.7942   -0.0665   -1.1890 H         1 <0>         0.1285
     18 H6          2.0577   -0.1756    0.5684 H         1 <0>         0.0704
     19 H7          2.4241   -2.3750   -0.4952 H         1 <0>         0.1417
     20 H8          0.7864   -2.3220   -1.1914 H         1 <0>         0.1408
     21 H9         -0.8868   -2.5100    2.0612 H         1 <0>         0.1411
     22 H10        -1.1505   -2.4010    0.3041 H         1 <0>         0.1418
     23 H11         0.1211   -0.2545    2.0637 H         1 <0>         0.0671
     24 H12        -1.5165   -0.2012    1.3676 H         1 <0>         0.1230
     25 H13        -2.7631    1.1996    0.8581 H         1 <0>         0.3839
     26 N2          0.8644   -2.5799    0.8997 N.4       1 <0>        -0.5186
     27 H14         1.4604   -2.2974    1.6865 H         1 <0>         0.4308
     28 H15         0.8523   -3.6042    0.8299 H         1 <0>         0.4405
@<TRIPOS>BOND
     1    1    6 ar
     2    1    2 ar
     3    1   13 1
     4    2    3 ar
     5    2   14 1
     6    3    4 ar
     7    3   15 1
     8    4    5 ar
     9    4   12 1
    10    5    6 ar
    11    5    7 1
    12    6   16 1
    13    7   11 1
    14    7    8 1
    15    8    9 1
    16    8   17 1
    17    8   18 1
    18    9   19 1
    19    9   20 1
    20    9   26 1
    21   10   11 1
    22   10   21 1
    23   10   22 1
    24   10   26 1
    25   11   23 1
    26   11   24 1
    27   12   25 1
    28   26   27 1
    29   26   28 1
@<TRIPOS>MOLECULE
ZINC13805803
   41    42     0     0     0
SMALL
USER_CHARGES
2-(2-ethyl-5-methoxy-1H-indol-3-yl)-N,N-dimethyl-ethanamine
@<TRIPOS>ATOM
      1 C1         -0.5324   -2.0518   -2.9154 C.3       1 <0>        -0.1494
      2 C2         -1.8562   -2.3550   -2.2107 C.3       1 <0>        -0.0751
      3 C3         -1.5806   -2.8367   -0.8096 C.2       1 <0>         0.1256
      4 C4         -1.3886   -2.0415    0.2549 C.2       1 <0>        -0.2066
      5 C5         -1.1617   -2.9160    1.4080 C.ar      1 <0>        -0.0554
      6 C6         -0.9137   -2.6879    2.7635 C.ar      1 <0>        -0.1287
      7 C7         -0.7404   -3.7604    3.6150 C.ar      1 <0>         0.1168
      8 C8         -0.8120   -5.0628    3.1270 C.ar      1 <0>        -0.1757
      9 C9         -1.0559   -5.2994    1.7928 C.ar      1 <0>        -0.0790
     10 C10        -1.2334   -4.2323    0.9184 C.ar      1 <0>         0.0635
     11 N1         -1.4859   -4.1489   -0.4347 N.pl3     1 <0>        -0.5834
     12 H1         -1.5852   -4.9075   -1.0310 H         1 <0>         0.4205
     13 O1         -0.4983   -3.5443    4.9356 O.3       1 <0>        -0.3182
     14 C11        -0.3286   -4.6982    5.7613 C.3       1 <0>         0.0253
     15 C12        -1.4090   -0.5347    0.2631 C.3       1 <0>        -0.0590
     16 C13         0.0021   -0.0041    0.0020 C.3       1 <0>        -0.0102
     17 C14         1.3463    2.0098   -0.0000 C.3       1 <0>        -0.0426
     18 C15        -0.8017    1.9868   -1.1173 C.3       1 <0>        -0.0479
     19 H2          0.0737   -2.9568   -2.9550 H         1 <0>         0.0624
     20 H3         -0.7318   -1.7034   -3.9288 H         1 <0>         0.0715
     21 H4          0.0038   -1.2791   -2.3644 H         1 <0>         0.0503
     22 H5         -2.3924   -3.1277   -2.7616 H         1 <0>         0.0840
     23 H6         -2.4624   -1.4500   -2.1711 H         1 <0>         0.0915
     24 H7         -0.8583   -1.6783    3.1432 H         1 <0>         0.1270
     25 H8         -0.6746   -5.8951    3.8015 H         1 <0>         0.1373
     26 H9         -1.1090   -6.3135    1.4251 H         1 <0>         0.1291
     27 H10        -0.1423   -4.3856    6.7888 H         1 <0>         0.1042
     28 H11        -1.2320   -5.3071    5.7250 H         1 <0>         0.0580
     29 H12         0.5179   -5.2822    5.4001 H         1 <0>         0.0574
     30 H13        -1.7561   -0.1814    1.2341 H         1 <0>         0.0920
     31 H14        -2.0819   -0.1762   -0.5158 H         1 <0>         0.0894
     32 H15         0.3492   -0.3574   -0.9689 H         1 <0>         0.1307
     33 H16         0.6750   -0.3626    0.7809 H         1 <0>         0.1304
     34 H17         1.8658    1.6723   -0.8968 H         1 <0>         0.1215
     35 H18         1.3024    3.0989    0.0063 H         1 <0>         0.1222
     36 H19         1.8828    1.6627    0.8830 H         1 <0>         0.1213
     37 H20        -1.8268    1.6230   -1.0465 H         1 <0>         0.1224
     38 H21        -0.8000    3.0764   -1.0873 H         1 <0>         0.1224
     39 H22        -0.3600    1.6485   -2.0545 H         1 <0>         0.1222
     40 N2         -0.0305    1.4733    0.0344 N.4       1 <0>        -0.3989
     41 H23        -0.4856    1.7779    0.9029 H         1 <0>         0.4311
@<TRIPOS>BOND
     1    1    2 1
     2    1   19 1
     3    1   20 1
     4    1   21 1
     5    2    3 1
     6    2   22 1
     7    2   23 1
     8    3   11 1
     9    3    4 2
    10    4    5 1
    11    4   15 1
    12    5   10 ar
    13    5    6 ar
    14    6    7 ar
    15    6   24 1
    16    7    8 ar
    17    7   13 1
    18    8    9 ar
    19    8   25 1
    20    9   10 ar
    21    9   26 1
    22   10   11 1
    23   11   12 1
    24   13   14 1
    25   14   27 1
    26   14   28 1
    27   14   29 1
    28   15   16 1
    29   15   30 1
    30   15   31 1
    31   16   32 1
    32   16   33 1
    33   16   40 1
    34   17   34 1
    35   17   35 1
    36   17   36 1
    37   17   40 1
    38   18   37 1
    39   18   38 1
    40   18   39 1
    41   18   40 1
    42   40   41 1
@<TRIPOS>MOLECULE
ZINC00056464
   30    31     0     0     0
SMALL
USER_CHARGES

@<TRIPOS>ATOM
      1 C1          2.3803    1.4154    0.0012 C.ar      1 <0>        -0.0679
      2 C2          1.1706    2.0859    0.0021 C.ar      1 <0>        -0.1090
      3 C3         -0.0163    1.3769   -0.0041 C.ar      1 <0>        -0.1302
      4 C4          0.0024   -0.0042   -0.0117 C.ar      1 <0>        -0.1396
      5 C5          1.2154   -0.6807   -0.0131 C.ar      1 <0>         0.1972
      6 C6          2.4063    0.0349   -0.0064 C.ar      1 <0>        -0.1554
      7 N1          1.2380   -2.0772   -0.0208 N.pl3     1 <0>        -0.6444
      8 C7          2.5064   -2.8125   -0.1411 C.3       1 <0>         0.0969
      9 C8          2.5675   -3.8614    0.9742 C.3       1 <0>        -0.0235
     10 N2          1.3686   -4.7073    0.9155 N.4       1 <0>        -0.5041
     11 C9          0.1737   -3.9014    1.1960 C.3       1 <0>        -0.0226
     12 C10        -0.0054   -2.8545    0.0974 C.3       1 <0>         0.0946
     13 C11        -1.3320    2.1118   -0.0021 C.3       1 <0>         0.5058
     14 F1         -1.0960    3.4907    0.0064 F         1 <0>        -0.1705
     15 F2         -2.0588    1.7701   -1.1476 F         1 <0>        -0.1737
     16 F3         -2.0627    1.7568    1.1369 F         1 <0>        -0.1752
     17 H1          3.3057    1.9723    0.0018 H         1 <0>         0.1434
     18 H2          1.1532    3.1658    0.0080 H         1 <0>         0.1444
     19 H3         -0.9251   -0.5574   -0.0162 H         1 <0>         0.1345
     20 H4          3.3512   -0.4881   -0.0074 H         1 <0>         0.1338
     21 H5          2.5527   -3.3067   -1.1115 H         1 <0>         0.0922
     22 H6          3.3422   -2.1203   -0.0390 H         1 <0>         0.1279
     23 H7          3.4554   -4.4799    0.8433 H         1 <0>         0.1458
     24 H8          2.6122   -3.3612    1.9416 H         1 <0>         0.1353
     25 H9          1.2902   -5.1139   -0.0047 H         1 <0>         0.4291
     26 H10        -0.7022   -4.5493    1.2286 H         1 <0>         0.1464
     27 H11         0.2909   -3.3999    2.1567 H         1 <0>         0.1354
     28 H12        -0.8295   -2.1900    0.3570 H         1 <0>         0.1263
     29 H13        -0.2170   -3.3529   -0.8486 H         1 <0>         0.0922
     30 H14         1.4444   -5.4441    1.6007 H         1 <0>         0.4350
@<TRIPOS>BOND
     1    1    6 ar
     2    1    2 ar
     3    1   17 1
     4    2    3 ar
     5    2   18 1
     6    3    4 ar
     7    3   13 1
     8    4    5 ar
     9    4   19 1
    10    5    6 ar
    11    5    7 1
    12    6   20 1
    13    7   12 1
    14    7    8 1
    15    8    9 1
    16    8   21 1
    17    8   22 1
    18    9   10 1
    19    9   23 1
    20    9   24 1
    21   10   11 1
    22   10   25 1
    23   10   30 1
    24   11   12 1
    25   11   26 1
    26   11   27 1
    27   12   28 1
    28   12   29 1
    29   13   14 1
    30   13   15 1
    31   13   16 1
@<TRIPOS>MOLECULE
ZINC02516045
   33    35     0     0     0
SMALL
USER_CHARGES

@<TRIPOS>ATOM
      1 C1         -0.0164    1.3568    0.0095 C.ar      1 <0>        -0.1126
      2 C2          1.1685    2.0902    0.0021 C.ar      1 <0>        -0.1056
      3 C3          2.3785    1.4660   -0.0127 C.ar      1 <0>        -0.1107
      4 C4          2.4369    0.0637   -0.0208 C.ar      1 <0>        -0.0518
      5 C5          1.2329   -0.6830   -0.0133 C.ar      1 <0>        -0.0490
      6 C6          0.0021   -0.0041    0.0020 C.ar      1 <0>        -0.1001
      7 C7          1.2897   -2.0870   -0.0204 C.ar      1 <0>        -0.0877
      8 C8          2.4960   -2.7188   -0.0343 C.ar      1 <0>        -0.1184
      9 C9          3.6853   -1.9966   -0.0413 C.ar      1 <0>        -0.1083
     10 C10         3.6728   -0.6178   -0.0357 C.ar      1 <0>         0.1496
     11 N1          4.8691    0.0961   -0.0437 N.pl3     1 <0>        -0.6725
     12 C11         5.5338    0.4724    1.2136 C.3       1 <0>         0.1164
     13 C12         7.0032    0.0457    1.1328 C.3       1 <0>        -0.0236
     14 N2          7.6138    0.6222   -0.0717 N.4       1 <0>        -0.5026
     15 C13         6.9746    0.0667   -1.2713 C.3       1 <0>        -0.0233
     16 C14         5.5067    0.4896   -1.3097 C.3       1 <0>         0.1159
     17 H1         -0.9633    1.8759    0.0259 H         1 <0>         0.1287
     18 H2          1.1264    3.1693    0.0079 H         1 <0>         0.1252
     19 H3          3.2888    2.0471   -0.0187 H         1 <0>         0.1205
     20 H4         -0.9241   -0.5595    0.0082 H         1 <0>         0.1330
     21 H5          0.3773   -2.6647   -0.0144 H         1 <0>         0.1332
     22 H6          2.5301   -3.7982   -0.0396 H         1 <0>         0.1296
     23 H7          4.6289   -2.5219   -0.0517 H         1 <0>         0.1206
     24 H8          5.4729    1.5520    1.3511 H         1 <0>         0.0790
     25 H9          5.0507   -0.0340    2.0491 H         1 <0>         0.1164
     26 H10         7.5342    0.4020    2.0155 H         1 <0>         0.1398
     27 H11         7.0639   -1.0416    1.0862 H         1 <0>         0.1321
     28 H12         7.4939    1.6240   -0.0616 H         1 <0>         0.4274
     29 H13         7.4845    0.4385   -2.1601 H         1 <0>         0.1402
     30 H14         7.0361   -1.0212   -1.2452 H         1 <0>         0.1320
     31 H15         5.0057   -0.0055   -2.1415 H         1 <0>         0.1165
     32 H16         5.4430    1.5709   -1.4312 H         1 <0>         0.0785
     33 H17         8.5988    0.4040   -0.0854 H         1 <0>         0.4316
@<TRIPOS>BOND
     1    1    6 ar
     2    1    2 ar
     3    1   17 1
     4    2    3 ar
     5    2   18 1
     6    3    4 ar
     7    3   19 1
     8    4   10 ar
     9    4    5 ar
    10    5    6 ar
    11    5    7 ar
    12    6   20 1
    13    7    8 ar
    14    7   21 1
    15    8    9 ar
    16    8   22 1
    17    9   10 ar
    18    9   23 1
    19   10   11 1
    20   11   16 1
    21   11   12 1
    22   12   13 1
    23   12   24 1
    24   12   25 1
    25   13   14 1
    26   13   26 1
    27   13   27 1
    28   14   15 1
    29   14   28 1
    30   14   33 1
    31   15   16 1
    32   15   29 1
    33   15   30 1
    34   16   31 1
    35   16   32 1
@<TRIPOS>MOLECULE
ZINC03716177
   33    35     0     0     0
SMALL
USER_CHARGES
1-(2-naphthyl)piperazine
@<TRIPOS>ATOM
      1 C1         -0.0126    1.0758    0.0080 C.ar      1 <0>        -0.1119
      2 C2         -1.2348    1.7455    0.0175 C.ar      1 <0>        -0.0997
      3 C3         -1.2880    3.1053    0.0310 C.ar      1 <0>        -0.1149
      4 C4         -0.0946    3.8484    0.0236 C.ar      1 <0>        -0.0318
      5 C5         -0.1122    5.2526    0.0308 C.ar      1 <0>        -0.1143
      6 C6          1.0780    5.9460    0.0227 C.ar      1 <0>         0.0845
      7 C7          2.3015    5.2649    0.0079 C.ar      1 <0>        -0.1631
      8 C8          2.3444    3.9066    0.0002 C.ar      1 <0>        -0.0683
      9 C9          1.1485    3.1673    0.0081 C.ar      1 <0>        -0.0637
     10 C10         1.1628    1.7621    0.0004 C.ar      1 <0>        -0.1017
     11 N1          1.0644    7.3421    0.0298 N.pl3     1 <0>        -0.4868
     12 C11         0.3072    7.8555    1.1799 C.3       1 <0>         0.0231
     13 C12         0.2487    9.3832    1.1078 C.3       1 <0>         0.0009
     14 C13         2.3726    9.4098   -0.0529 C.3       1 <0>         0.0010
     15 C14         2.4311    7.8821    0.0192 C.3       1 <0>         0.0188
     16 H1          0.0021   -0.0041    0.0020 H         1 <0>         0.1295
     17 H2         -2.1530    1.1770    0.0188 H         1 <0>         0.1295
     18 H3         -2.2422    3.6111    0.0429 H         1 <0>         0.1298
     19 H4         -1.0519    5.7849    0.0430 H         1 <0>         0.1314
     20 H5          3.2237    5.8268    0.0024 H         1 <0>         0.1274
     21 H6          3.2959    3.3957   -0.0113 H         1 <0>         0.1341
     22 H7          2.1021    1.2291   -0.0118 H         1 <0>         0.1315
     23 H8         -0.7049    7.4514    1.1587 H         1 <0>         0.1276
     24 H9          0.8003    7.5537    2.1040 H         1 <0>         0.0697
     25 H10        -0.2876    9.7679    1.9753 H         1 <0>         0.1412
     26 H11        -0.2685    9.6847    0.1970 H         1 <0>         0.1406
     27 H12         3.3847    9.8139   -0.0316 H         1 <0>         0.1413
     28 H13         1.8798    9.7116   -0.9771 H         1 <0>         0.1404
     29 H14         2.9483    7.5806    0.9301 H         1 <0>         0.0716
     30 H15         2.9675    7.4971   -0.8480 H         1 <0>         0.1296
     31 N2          1.6190    9.9295    1.1040 N.4       1 <0>        -0.5189
     32 H16         2.0960    9.6543    1.9705 H         1 <0>         0.4313
     33 H17         1.5754   10.9537    1.0477 H         1 <0>         0.4401
@<TRIPOS>BOND
     1    1   10 ar
     2    1    2 ar
     3    1   16 1
     4    2    3 ar
     5    2   17 1
     6    3    4 ar
     7    3   18 1
     8    4    9 ar
     9    4    5 ar
    10    5    6 ar
    11    5   19 1
    12    6    7 ar
    13    6   11 1
    14    7    8 ar
    15    7   20 1
    16    8    9 ar
    17    8   21 1
    18    9   10 ar
    19   10   22 1
    20   11   15 1
    21   11   12 1
    22   12   13 1
    23   12   23 1
    24   12   24 1
    25   13   25 1
    26   13   26 1
    27   13   31 1
    28   14   15 1
    29   14   27 1
    30   14   28 1
    31   14   31 1
    32   15   29 1
    33   15   30 1
    34   31   32 1
    35   31   33 1
@<TRIPOS>MOLECULE
ZINC04721990
   25    26     0     0     0
SMALL
USER_CHARGES
(2R)-tetralin-2-amine
@<TRIPOS>ATOM
      1 C1         -0.1874    4.2686    0.0344 C.ar      1 <0>        -0.1038
      2 C2         -1.3424    3.5086    0.0376 C.ar      1 <0>        -0.1115
      3 C3         -1.2563    2.1320    0.0315 C.ar      1 <0>        -0.1108
      4 C4         -0.0184    1.5021    0.0103 C.ar      1 <0>        -0.0956
      5 C5          1.1315    2.2589    0.0034 C.ar      1 <0>        -0.0853
      6 C6          1.0428    3.6451    0.0178 C.ar      1 <0>        -0.1141
      7 C7          2.5066    1.6443   -0.0221 C.3       1 <0>        -0.0787
      8 C8          2.4464    0.1758    0.3934 C.3       1 <0>        -0.1405
      9 C9          1.3681   -0.5202   -0.4455 C.3       1 <0>         0.0306
     10 H1          1.5191   -0.2921   -1.5007 H         1 <0>         0.1477
     11 C10         0.0021   -0.0041    0.0020 C.3       1 <0>        -0.0951
     12 H2         -0.2483    5.3469    0.0453 H         1 <0>         0.1313
     13 H3         -2.3086    3.9911    0.0487 H         1 <0>         0.1310
     14 H4         -2.1589    1.5389    0.0381 H         1 <0>         0.1259
     15 H5          1.9445    4.2395    0.0155 H         1 <0>         0.1286
     16 H6          3.1554    2.1863    0.6659 H         1 <0>         0.0973
     17 H7          2.9128    1.7160   -1.0310 H         1 <0>         0.0891
     18 H8          2.1923    0.1036    1.4509 H         1 <0>         0.0929
     19 H9          3.4124   -0.2963    0.2144 H         1 <0>         0.0940
     20 H10        -0.2099   -0.3719    1.0059 H         1 <0>         0.0961
     21 H11        -0.7621   -0.3701   -0.6836 H         1 <0>         0.0990
     22 H12         0.7269   -2.4497   -0.7683 H         1 <0>         0.4390
     23 H13         2.3578   -2.3253   -0.4670 H         1 <0>         0.4397
     24 N1          1.4361   -1.9737   -0.2131 N.4       1 <0>        -0.6444
     25 H14         1.2669   -2.1647    0.7814 H         1 <0>         0.4377
@<TRIPOS>BOND
     1    1    6 ar
     2    1    2 ar
     3    1   12 1
     4    2    3 ar
     5    2   13 1
     6    3    4 ar
     7    3   14 1
     8    4   11 1
     9    4    5 ar
    10    5    6 ar
    11    5    7 1
    12    6   15 1
    13    7    8 1
    14    7   16 1
    15    7   17 1
    16    8    9 1
    17    8   18 1
    18    8   19 1
    19    9   10 1
    20    9   11 1
    21    9   24 1
    22   11   20 1
    23   11   21 1
    24   22   24 1
    25   23   24 1
    26   24   25 1
@<TRIPOS>MOLECULE
ZINC05934789
   25    26     0     0     0
SMALL
USER_CHARGES
(2S)-tetralin-2-amine
@<TRIPOS>ATOM
      1 C1         -1.2195    1.7435    0.0173 C.ar      1 <0>        -0.1038
      2 C2         -1.2393    3.1259    0.0305 C.ar      1 <0>        -0.1114
      3 C3         -0.0521    3.8279    0.0260 C.ar      1 <0>        -0.1107
      4 C4          1.1645    3.1574    0.0131 C.ar      1 <0>        -0.0953
      5 C5          1.1842    1.7810    0.0003 C.ar      1 <0>        -0.0854
      6 C6         -0.0126    1.0758    0.0080 C.ar      1 <0>        -0.1141
      7 C7          2.4650    0.9888   -0.0306 C.3       1 <0>        -0.0787
      8 C8          3.6459    1.8599    0.3927 C.3       1 <0>        -0.1403
      9 C9          3.6175    3.1497   -0.4359 C.3       1 <0>         0.0303
     10 H1          3.5154    2.9047   -1.4930 H         1 <0>         0.1443
     11 C10         2.4222    3.9863    0.0162 C.3       1 <0>        -0.0920
     12 H2         -2.1459    1.1882    0.0186 H         1 <0>         0.1313
     13 H3         -2.1812    3.6543    0.0403 H         1 <0>         0.1311
     14 H4         -0.0683    4.9078    0.0323 H         1 <0>         0.1260
     15 H5          0.0021   -0.0041    0.0020 H         1 <0>         0.1286
     16 H6          2.3805    0.1422    0.6506 H         1 <0>         0.0972
     17 H7          2.6350    0.6198   -1.0421 H         1 <0>         0.0891
     18 H8          4.5791    1.3270    0.2103 H         1 <0>         0.0937
     19 H9          3.5621    2.1023    1.4521 H         1 <0>         0.0932
     20 H10         2.2978    4.8309   -0.6615 H         1 <0>         0.0987
     21 H11         2.6052    4.3582    1.0243 H         1 <0>         0.0962
     22 H12         4.8537    4.7668   -0.7444 H         1 <0>         0.4389
     23 H13         5.0108    4.0789    0.7615 H         1 <0>         0.4358
     24 N1          4.8761    3.8879   -0.2300 N.4       1 <0>        -0.6445
     25 H14         5.6603    3.3198   -0.5713 H         1 <0>         0.4422
@<TRIPOS>BOND
     1    1    6 ar
     2    1    2 ar
     3    1   12 1
     4    2    3 ar
     5    2   13 1
     6    3    4 ar
     7    3   14 1
     8    4   11 1
     9    4    5 ar
    10    5    6 ar
    11    5    7 1
    12    6   15 1
    13    7    8 1
    14    7   16 1
    15    7   17 1
    16    8    9 1
    17    8   18 1
    18    8   19 1
    19    9   10 1
    20    9   11 1
    21    9   24 1
    22   11   20 1
    23   11   21 1
    24   22   24 1
    25   23   24 1
    26   24   25 1
@<TRIPOS>MOLECULE
ZINC07274819
   35    36     0     0     0
SMALL
USER_CHARGES
1-(4-bromo-2,5-dimethoxy-phenyl)piperazine
@<TRIPOS>ATOM
      1 C1          0.0322    1.1512    0.0088 C.3       1 <0>         0.0244
      2 O1         -0.6517    1.5901    1.1842 O.3       1 <0>        -0.2955
      3 C2         -0.1334    1.2038    2.3807 C.ar      1 <0>         0.1481
      4 C3          1.0092    0.4190    2.4198 C.ar      1 <0>        -0.2128
      5 C4          1.5370    0.0256    3.6403 C.ar      1 <0>         0.1063
      6 C5          0.9176    0.4200    4.8242 C.ar      1 <0>         0.1003
      7 C6         -0.2229    1.2035    4.7800 C.ar      1 <0>        -0.1205
      8 C7         -0.7448    1.5997    3.5613 C.ar      1 <0>        -0.0959
      9 Br1        -2.2981    2.6768    3.5049 Br        1 <0>        -0.0115
     10 O2          1.4332    0.0350    6.0234 O.3       1 <0>        -0.3074
     11 C8          0.7464    0.4759    7.1965 C.3       1 <0>         0.0195
     12 N1          2.6902   -0.7670    3.6826 N.pl3     1 <0>        -0.4756
     13 C9          3.0380   -1.2627    2.3436 C.3       1 <0>         0.0171
     14 C10         4.2539   -2.1867    2.4445 C.3       1 <0>         0.0025
     15 C11         5.0302   -0.9541    4.3775 C.3       1 <0>         0.0024
     16 C12         3.8143   -0.0301    4.2766 C.3       1 <0>         0.0250
     17 H1          0.0479    0.0616   -0.0169 H         1 <0>         0.0575
     18 H2          1.0545    1.5291    0.0208 H         1 <0>         0.0548
     19 H3         -0.4842    1.5280   -0.8741 H         1 <0>         0.1111
     20 H4          1.4873    0.1143    1.5006 H         1 <0>         0.1471
     21 H5         -0.7034    1.5091    5.6977 H         1 <0>         0.1536
     22 H6          1.2604    0.1002    8.0812 H         1 <0>         0.1079
     23 H7          0.7311    1.5656    7.2205 H         1 <0>         0.0601
     24 H8         -0.2760    0.0984    7.1824 H         1 <0>         0.0621
     25 H9          2.1945   -1.8155    1.9300 H         1 <0>         0.1284
     26 H10         3.2746   -0.4200    1.6940 H         1 <0>         0.0696
     27 H11         4.5314   -2.5326    1.4488 H         1 <0>         0.1417
     28 H12         4.0085   -3.0434    3.0721 H         1 <0>         0.1417
     29 H13         5.8737   -0.4013    4.7911 H         1 <0>         0.1414
     30 H14         4.7938   -1.7966    5.0274 H         1 <0>         0.1421
     31 H15         4.0597    0.8267    3.6490 H         1 <0>         0.0669
     32 H16         3.5366    0.3162    5.2722 H         1 <0>         0.1355
     33 N2          5.3867   -1.4483    3.0341 N.4       1 <0>        -0.5193
     34 H17         5.6223   -0.6512    2.4312 H         1 <0>         0.4307
     35 H18         6.1978   -2.0737    3.1072 H         1 <0>         0.4404
@<TRIPOS>BOND
     1    1    2 1
     2    1   17 1
     3    1   18 1
     4    1   19 1
     5    2    3 1
     6    3    8 ar
     7    3    4 ar
     8    4    5 ar
     9    4   20 1
    10    5    6 ar
    11    5   12 1
    12    6    7 ar
    13    6   10 1
    14    7    8 ar
    15    7   21 1
    16    8    9 1
    17   10   11 1
    18   11   22 1
    19   11   23 1
    20   11   24 1
    21   12   16 1
    22   12   13 1
    23   13   14 1
    24   13   25 1
    25   13   26 1
    26   14   27 1
    27   14   28 1
    28   14   33 1
    29   15   16 1
    30   15   29 1
    31   15   30 1
    32   15   33 1
    33   16   31 1
    34   16   32 1
    35   33   34 1
    36   33   35 1
@<TRIPOS>MOLECULE
ZINC00057058
   26    27     0     0     0
SMALL
USER_CHARGES

@<TRIPOS>ATOM
      1 C1         -0.0168    1.3880    0.0097 C.ar      1 <0>        -0.1182
      2 C2          1.1587    2.1055    0.0023 C.ar      1 <0>        -0.1024
      3 C3          2.3795    1.4398   -0.0129 C.ar      1 <0>         0.0862
      4 C4          2.4019    0.0334   -0.0206 C.ar      1 <0>        -0.0842
      5 C5          1.2039   -0.6838   -0.0130 C.ar      1 <0>        -0.1143
      6 C6          0.0021   -0.0041    0.0020 C.ar      1 <0>         0.0953
      7 O1         -1.1679   -0.6972    0.0094 O.3       1 <0>        -0.4959
      8 C7          3.8159   -0.3493   -0.0361 C.2       1 <0>        -0.2101
      9 C8          4.5307    0.7870   -0.0369 C.2       1 <0>         0.0918
     10 N1          3.6908    1.8667   -0.0231 N.pl3     1 <0>        -0.5866
     11 H1          3.9751    2.7941   -0.0208 H         1 <0>         0.4248
     12 C9          4.3642   -1.7530   -0.0489 C.3       1 <0>        -0.0616
     13 C10         4.4190   -2.2661   -1.4892 C.3       1 <0>        -0.0080
     14 N2          4.9535   -3.6343   -1.5017 N.4       1 <0>        -0.6389
     15 H2         -0.9621    1.9101    0.0260 H         1 <0>         0.1389
     16 H3          1.1325    3.1852    0.0080 H         1 <0>         0.1315
     17 H4          1.2172   -1.7637   -0.0192 H         1 <0>         0.1256
     18 H5         -1.5147   -0.8930   -0.8718 H         1 <0>         0.3922
     19 H6          5.6093    0.8408   -0.0472 H         1 <0>         0.1750
     20 H7          5.3681   -1.7548    0.3759 H         1 <0>         0.0927
     21 H8          3.7180   -2.4009    0.5433 H         1 <0>         0.0925
     22 H9          3.4152   -2.2643   -1.9140 H         1 <0>         0.1329
     23 H10         5.0652   -1.6182   -2.0814 H         1 <0>         0.1331
     24 H11         5.8827   -3.6360   -1.1085 H         1 <0>         0.4347
     25 H12         4.3553   -4.2341   -0.9535 H         1 <0>         0.4353
     26 H13         4.9896   -3.9727   -2.4515 H         1 <0>         0.4379
@<TRIPOS>BOND
     1    1    6 ar
     2    1    2 ar
     3    1   15 1
     4    2    3 ar
     5    2   16 1
     6    3   10 1
     7    3    4 ar
     8    4    5 ar
     9    4    8 1
    10    5    6 ar
    11    5   17 1
    12    6    7 1
    13    7   18 1
    14    8    9 2
    15    8   12 1
    16    9   10 1
    17    9   19 1
    18   10   11 1
    19   12   13 1
    20   12   20 1
    21   12   21 1
    22   13   14 1
    23   13   22 1
    24   13   23 1
    25   14   24 1
    26   14   25 1
    27   14   26 1
@<TRIPOS>MOLECULE
ZINC00537822
   50    52     0     0     0
SMALL
USER_CHARGES

@<TRIPOS>ATOM
      1 C1         -0.0169    1.3952    0.0097 C.ar      1 <0>        -0.0260
      2 C2          1.1683    2.0970    0.0022 C.ar      1 <0>        -0.1650
      3 C3          2.3789    1.4198   -0.0130 C.ar      1 <0>         0.1439
      4 C4          2.4047    0.0329   -0.0212 C.ar      1 <0>        -0.1670
      5 C5          1.2267   -0.6810   -0.0142 C.ar      1 <0>        -0.0432
      6 C6          0.0021   -0.0041    0.0020 C.ar      1 <0>        -0.1967
      7 C7         -1.2591   -0.7596    0.0105 C.2       1 <0>         0.4038
      8 O1         -2.3189   -0.1702    0.0242 O.2       1 <0>        -0.4483
      9 C8         -1.2348   -2.2664    0.0022 C.3       1 <0>        -0.1653
     10 C9         -2.6689   -2.7996    0.0135 C.3       1 <0>        -0.1429
     11 C10        -2.6443   -4.3293    0.0051 C.3       1 <0>        -0.0092
     12 N1         -4.0211   -4.8413    0.0160 N.4       1 <0>        -0.3830
     13 C11        -4.6726   -4.4620    1.2755 C.3       1 <0>        -0.0093
     14 C12        -6.1318   -4.9225    1.2582 C.3       1 <0>        -0.1330
     15 C13        -6.1791   -6.4445    1.0954 C.3       1 <0>         0.1746
     16 C14        -5.4322   -6.8346   -0.1834 C.3       1 <0>        -0.1706
     17 C15        -3.9990   -6.3033   -0.1127 C.3       1 <0>        -0.0017
     18 C16        -7.6135   -6.8966    0.9991 C.ar      1 <0>        -0.1262
     19 C17        -8.5661   -6.0599    0.4482 C.ar      1 <0>        -0.1006
     20 C18        -9.8818   -6.4740    0.3596 C.ar      1 <0>        -0.1039
     21 C19       -10.2453   -7.7262    0.8224 C.ar      1 <0>        -0.0247
     22 C20        -9.2914   -8.5631    1.3735 C.ar      1 <0>        -0.1016
     23 C21        -7.9750   -8.1501    1.4564 C.ar      1 <0>        -0.0934
     24 Cl1       -11.8977   -8.2468    0.7119 Cl        1 <0>        -0.0500
     25 O2         -5.5554   -7.0652    2.2213 O.3       1 <0>        -0.5474
     26 F1          3.5378    2.1141   -0.0204 F         1 <0>        -0.1258
     27 H1         -0.9587    1.9236    0.0260 H         1 <0>         0.1459
     28 H2          1.1551    3.1769    0.0077 H         1 <0>         0.1477
     29 H3          3.3506   -0.4883   -0.0334 H         1 <0>         0.1469
     30 H4          1.2482   -1.7608   -0.0213 H         1 <0>         0.1412
     31 H5         -0.7241   -2.6166   -0.8948 H         1 <0>         0.1127
     32 H6         -0.7064   -2.6261    0.8850 H         1 <0>         0.1127
     33 H7         -3.1796   -2.4493    0.9105 H         1 <0>         0.0952
     34 H8         -3.1973   -2.4398   -0.8693 H         1 <0>         0.0947
     35 H9         -2.1335   -4.6796   -0.8919 H         1 <0>         0.1333
     36 H10        -2.1158   -4.6891    0.8880 H         1 <0>         0.1327
     37 H11        -4.1530   -4.9339    2.1093 H         1 <0>         0.1388
     38 H12        -4.6353   -3.3788    1.3915 H         1 <0>         0.1356
     39 H13        -6.6132   -4.6415    2.1949 H         1 <0>         0.1238
     40 H14        -6.6524   -4.4509    0.4248 H         1 <0>         0.1045
     41 H15        -5.4137   -7.9204   -0.2771 H         1 <0>         0.1175
     42 H16        -5.9384   -6.4027   -1.0467 H         1 <0>         0.1009
     43 H17        -3.4644   -6.5795   -1.0215 H         1 <0>         0.1329
     44 H18        -3.4937   -6.7360    0.7507 H         1 <0>         0.1354
     45 H19        -8.2824   -5.0823    0.0874 H         1 <0>         0.1334
     46 H20       -10.6260   -5.8201   -0.0704 H         1 <0>         0.1408
     47 H21        -9.5746   -9.5405    1.7352 H         1 <0>         0.1414
     48 H22        -7.2294   -8.8051    1.8823 H         1 <0>         0.1323
     49 H23        -5.5495   -8.0314    2.1846 H         1 <0>         0.3907
     50 H24        -4.5327   -4.4442   -0.7578 H         1 <0>         0.4215
@<TRIPOS>BOND
     1    1    6 ar
     2    1    2 ar
     3    1   27 1
     4    2    3 ar
     5    2   28 1
     6    3    4 ar
     7    3   26 1
     8    4    5 ar
     9    4   29 1
    10    5    6 ar
    11    5   30 1
    12    6    7 1
    13    7    8 2
    14    7    9 1
    15    9   10 1
    16    9   31 1
    17    9   32 1
    18   10   11 1
    19   10   33 1
    20   10   34 1
    21   11   12 1
    22   11   35 1
    23   11   36 1
    24   12   17 1
    25   12   13 1
    26   12   50 1
    27   13   14 1
    28   13   37 1
    29   13   38 1
    30   14   15 1
    31   14   39 1
    32   14   40 1
    33   15   16 1
    34   15   18 1
    35   15   25 1
    36   16   17 1
    37   16   41 1
    38   16   42 1
    39   17   43 1
    40   17   44 1
    41   18   23 ar
    42   18   19 ar
    43   19   20 ar
    44   19   45 1
    45   20   21 ar
    46   20   46 1
    47   21   22 ar
    48   21   24 1
    49   22   23 ar
    50   22   47 1
    51   23   48 1
    52   25   49 1
@<TRIPOS>MOLECULE
ZINC00000504
   41    44     0     0     0
SMALL
USER_CHARGES

@<TRIPOS>ATOM
      1 C1         -0.0178    1.4648    0.0101 C.3       1 <0>        -0.0457
      2 N1          0.0021   -0.0041    0.0020 N.4       1 <0>        -0.3851
      3 C2         -1.3782   -0.5248    0.0610 C.3       1 <0>        -0.0107
      4 C3         -1.3147   -2.0017   -0.3247 C.3       1 <0>         0.1097
      5 N2         -0.2536   -2.6823    0.4304 N.pl3     1 <0>        -0.6570
      6 C4         -0.1632   -4.0681    0.2474 C.ar      1 <0>         0.1515
      7 C5          0.1651   -4.5655   -1.0110 C.ar      1 <0>        -0.1283
      8 C6          0.3219   -5.9257   -1.1894 C.ar      1 <0>        -0.1053
      9 C7          0.1595   -6.7897   -0.1216 C.ar      1 <0>        -0.1122
     10 C8         -0.1903   -6.2968    1.1226 C.ar      1 <0>        -0.0978
     11 C9         -0.3794   -4.9379    1.2936 C.ar      1 <0>        -0.0863
     12 C10        -0.9055   -4.4020    2.5876 C.3       1 <0>        -0.0401
     13 C11         0.0255   -3.4607    3.2849 C.ar      1 <0>        -0.0434
     14 C12         0.2033   -3.7275    4.6483 C.ar      1 <0>        -0.1164
     15 C13         1.0009   -2.9352    5.4386 C.ar      1 <0>        -0.1037
     16 C14         1.6407   -1.8450    4.8776 C.ar      1 <0>        -0.1092
     17 C15         1.4792   -1.5873    3.5373 C.ar      1 <0>        -0.1345
     18 C16         0.6836   -2.4040    2.7249 C.ar      1 <0>        -0.1120
     19 C17         0.6957   -2.0166    1.2712 C.3       1 <0>         0.2145
     20 H1          1.6762   -2.3177    0.9022 H         1 <0>         0.0814
     21 C18         0.7079   -0.4980    1.1840 C.3       1 <0>        -0.0096
     22 H2          1.0047    1.8421    0.0024 H         1 <0>         0.1256
     23 H3         -0.5450    1.8259   -0.8730 H         1 <0>         0.1278
     24 H4         -0.5280    1.8163    0.9069 H         1 <0>         0.1233
     25 H5         -1.7720   -0.4210    1.0720 H         1 <0>         0.1359
     26 H6         -2.0104    0.0166   -0.6429 H         1 <0>         0.1459
     27 H7         -2.2727   -2.4732   -0.1054 H         1 <0>         0.1007
     28 H8         -1.1096   -2.0872   -1.3918 H         1 <0>         0.0828
     29 H9          0.2970   -3.8905   -1.8436 H         1 <0>         0.1222
     30 H10         0.5722   -6.3158   -2.1649 H         1 <0>         0.1292
     31 H11         0.3058   -7.8509   -0.2596 H         1 <0>         0.1304
     32 H12        -0.3156   -6.9709    1.9570 H         1 <0>         0.1304
     33 H13        -1.8427   -3.8810    2.3915 H         1 <0>         0.0851
     34 H14        -1.1118   -5.2412    3.2519 H         1 <0>         0.0847
     35 H15        -0.2988   -4.5760    5.0892 H         1 <0>         0.1275
     36 H16         1.1270   -3.1618    6.4870 H         1 <0>         0.1317
     37 H17         2.2602   -1.2030    5.4861 H         1 <0>         0.1308
     38 H18         1.9776   -0.7345    3.1006 H         1 <0>         0.1191
     39 H19         1.7417   -0.1544    1.1475 H         1 <0>         0.1407
     40 H20         0.2329   -0.0891    2.0758 H         1 <0>         0.1370
     41 H21         0.4593   -0.3360   -0.8339 H         1 <0>         0.4294
@<TRIPOS>BOND
     1    1    2 1
     2    1   22 1
     3    1   23 1
     4    1   24 1
     5    2   21 1
     6    2    3 1
     7    2   41 1
     8    3    4 1
     9    3   25 1
    10    3   26 1
    11    4    5 1
    12    4   27 1
    13    4   28 1
    14    5   19 1
    15    5    6 1
    16    6   11 ar
    17    6    7 ar
    18    7    8 ar
    19    7   29 1
    20    8    9 ar
    21    8   30 1
    22    9   10 ar
    23    9   31 1
    24   10   11 ar
    25   10   32 1
    26   11   12 1
    27   12   13 1
    28   12   33 1
    29   12   34 1
    30   13   18 ar
    31   13   14 ar
    32   14   15 ar
    33   14   35 1
    34   15   16 ar
    35   15   36 1
    36   16   17 ar
    37   16   37 1
    38   17   18 ar
    39   17   38 1
    40   18   19 1
    41   19   20 1
    42   19   21 1
    43   21   39 1
    44   21   40 1
@<TRIPOS>MOLECULE
ZINC19702119
   40    43     0     0     0
SMALL
USER_CHARGES

@<TRIPOS>ATOM
      1 C1         -0.0178    1.4648    0.0101 C.3       1 <0>        -0.0454
      2 N1          0.0021   -0.0041    0.0020 N.4       1 <0>        -0.3860
      3 C2         -1.3783   -0.5248    0.0608 C.3       1 <0>        -0.0097
      4 C3         -1.3145   -2.0016   -0.3258 C.3       1 <0>         0.1124
      5 N2         -0.2539   -2.6821    0.4305 N.pl3     1 <0>        -0.6421
      6 C4         -0.1644   -4.0618    0.2458 C.ar      1 <0>         0.3542
      7 C5         -0.3795   -4.9308    1.2960 C.ar      1 <0>        -0.1288
      8 C6         -0.1847   -6.2880    1.1174 C.ar      1 <0>        -0.0548
      9 C7          0.1706   -6.7372   -0.1491 C.ar      1 <0>        -0.1645
     10 C8          0.3143   -5.8212   -1.1718 C.ar      1 <0>         0.1192
     11 N3          0.1488   -4.5302   -0.9575 N.ar      1 <0>        -0.4975
     12 C9         -0.9081   -4.3992    2.5895 C.3       1 <0>        -0.0368
     13 C10         0.0224   -3.4574    3.2885 C.ar      1 <0>        -0.0457
     14 C11         0.1986   -3.7223    4.6521 C.ar      1 <0>        -0.1150
     15 C12         0.9953   -2.9282    5.4417 C.ar      1 <0>        -0.1027
     16 C13         1.6349   -1.8386    4.8795 C.ar      1 <0>        -0.1076
     17 C14         1.4749   -1.5830    3.5386 C.ar      1 <0>        -0.1330
     18 C15         0.6805   -2.4016    2.7268 C.ar      1 <0>        -0.1121
     19 C16         0.6937   -2.0166    1.2726 C.3       1 <0>         0.2159
     20 H1          1.6746   -2.3185    0.9055 H         1 <0>         0.0814
     21 C17         0.7079   -0.4980    1.1840 C.3       1 <0>        -0.0074
     22 H2          1.0047    1.8421    0.0024 H         1 <0>         0.1257
     23 H3         -0.5450    1.8259   -0.8730 H         1 <0>         0.1282
     24 H4         -0.5280    1.8163    0.9069 H         1 <0>         0.1236
     25 H5         -1.7720   -0.4217    1.0720 H         1 <0>         0.1366
     26 H6         -2.0105    0.0169   -0.6426 H         1 <0>         0.1472
     27 H7         -2.2726   -2.4733   -0.1077 H         1 <0>         0.0996
     28 H8         -1.1080   -2.0865   -1.3927 H         1 <0>         0.0904
     29 H9         -0.3056   -6.9793    1.9383 H         1 <0>         0.1438
     30 H10         0.3326   -7.7894   -0.3307 H         1 <0>         0.1453
     31 H11         0.5666   -6.1671   -2.1633 H         1 <0>         0.1637
     32 H12        -1.8457   -3.8790    2.3937 H         1 <0>         0.0888
     33 H13        -1.1133   -5.2399    3.2522 H         1 <0>         0.0879
     34 H14        -0.3035   -4.5704    5.0938 H         1 <0>         0.1284
     35 H15         1.1202   -3.1526    6.4908 H         1 <0>         0.1325
     36 H16         2.2534   -1.1951    5.4877 H         1 <0>         0.1318
     37 H17         1.9733   -0.7306    3.1011 H         1 <0>         0.1205
     38 H18         1.7422   -0.1560    1.1466 H         1 <0>         0.1419
     39 H19         0.2340   -0.0876    2.0757 H         1 <0>         0.1388
     40 H20         0.4594   -0.3360   -0.8339 H         1 <0>         0.4313
@<TRIPOS>BOND
     1    1    2 1
     2    1   22 1
     3    1   23 1
     4    1   24 1
     5    2   21 1
     6    2    3 1
     7    2   40 1
     8    3    4 1
     9    3   25 1
    10    3   26 1
    11    4    5 1
    12    4   27 1
    13    4   28 1
    14    5   19 1
    15    5    6 1
    16    6   11 ar
    17    6    7 ar
    18    7    8 ar
    19    7   12 1
    20    8    9 ar
    21    8   29 1
    22    9   10 ar
    23    9   30 1
    24   10   11 ar
    25   10   31 1
    26   12   13 1
    27   12   32 1
    28   12   33 1
    29   13   18 ar
    30   13   14 ar
    31   14   15 ar
    32   14   34 1
    33   15   16 ar
    34   15   35 1
    35   16   17 ar
    36   16   36 1
    37   17   18 ar
    38   17   37 1
    39   18   19 1
    40   19   20 1
    41   19   21 1
    42   21   38 1
    43   21   39 1
@<TRIPOS>MOLECULE
ZINC19702119
   39    42     0     0     0
SMALL
USER_CHARGES

@<TRIPOS>ATOM
      1 C1         -0.0178    1.4648    0.0101 C.3       1 <0>         0.0209
      2 N1          0.0021   -0.0041    0.0020 N.3       1 <0>        -0.5267
      3 C2         -1.3696   -0.5520   -0.0129 C.3       1 <0>         0.0369
      4 C3         -1.2587   -2.0140   -0.4414 C.3       1 <0>         0.1508
      5 N2         -0.2104   -2.6979    0.3284 N.pl3     1 <0>        -0.6237
      6 C4         -0.0943   -4.0707    0.1064 C.ar      1 <0>         0.3753
      7 C5         -0.3267   -4.9738    1.1232 C.ar      1 <0>        -0.1410
      8 C6         -0.1059   -6.3221    0.9104 C.ar      1 <0>        -0.0580
      9 C7          0.2932   -6.7278   -0.3578 C.ar      1 <0>        -0.1849
     10 C8          0.4527   -5.7794   -1.3480 C.ar      1 <0>         0.1154
     11 N3          0.2613   -4.4979   -1.1005 N.ar      1 <0>        -0.4972
     12 C9         -0.9013   -4.4894    2.4157 C.3       1 <0>        -0.0291
     13 C10        -0.0060   -3.5560    3.1696 C.ar      1 <0>        -0.0590
     14 C11         0.1339   -3.8590    4.5295 C.ar      1 <0>        -0.1210
     15 C12         0.8955   -3.0778    5.3654 C.ar      1 <0>        -0.1186
     16 C13         1.5355   -1.9634    4.8545 C.ar      1 <0>        -0.1174
     17 C14         1.4109   -1.6701    3.5176 C.ar      1 <0>        -0.1238
     18 C15         0.6525   -2.4748    2.6589 C.ar      1 <0>        -0.0908
     19 C16         0.7020   -2.0462    1.2178 C.3       1 <0>         0.2293
     20 H1          1.6969   -2.3259    0.8715 H         1 <0>         0.0579
     21 C17         0.7034   -0.5254    1.1756 C.3       1 <0>         0.0547
     22 H2          1.0047    1.8421    0.0024 H         1 <0>         0.0713
     23 H3         -0.5450    1.8259   -0.8730 H         1 <0>         0.0737
     24 H4         -0.5280    1.8163    0.9069 H         1 <0>         0.0282
     25 H5         -1.8068   -0.4882    0.9835 H         1 <0>         0.0458
     26 H6         -1.9829   -0.0007   -0.7257 H         1 <0>         0.0907
     27 H7         -2.2131   -2.5122   -0.2709 H         1 <0>         0.0539
     28 H8         -1.0139   -2.0603   -1.5025 H         1 <0>         0.0678
     29 H9         -0.2394   -7.0394    1.7068 H         1 <0>         0.1364
     30 H10         0.4764   -7.7717   -0.5656 H         1 <0>         0.1367
     31 H11         0.7392   -6.0916   -2.3414 H         1 <0>         0.1559
     32 H12        -1.8406   -3.9771    2.2077 H         1 <0>         0.0849
     33 H13        -1.1129   -5.3527    3.0467 H         1 <0>         0.0801
     34 H14        -0.3687   -4.7265    4.9310 H         1 <0>         0.1207
     35 H15         0.9929   -3.3315    6.4106 H         1 <0>         0.1241
     36 H16         2.1272   -1.3304    5.4992 H         1 <0>         0.1247
     37 H17         1.9097   -0.7985    3.1202 H         1 <0>         0.1225
     38 H18         1.7347   -0.1731    1.1568 H         1 <0>         0.0868
     39 H19         0.2182   -0.1462    2.0750 H         1 <0>         0.0458
@<TRIPOS>BOND
     1    1    2 1
     2    1   22 1
     3    1   23 1
     4    1   24 1
     5    2   21 1
     6    2    3 1
     7    3    4 1
     8    3   25 1
     9    3   26 1
    10    4    5 1
    11    4   27 1
    12    4   28 1
    13    5   19 1
    14    5    6 1
    15    6   11 ar
    16    6    7 ar
    17    7    8 ar
    18    7   12 1
    19    8    9 ar
    20    8   29 1
    21    9   10 ar
    22    9   30 1
    23   10   11 ar
    24   10   31 1
    25   12   13 1
    26   12   32 1
    27   12   33 1
    28   13   18 ar
    29   13   14 ar
    30   14   15 ar
    31   14   34 1
    32   15   16 ar
    33   15   35 1
    34   16   17 ar
    35   16   36 1
    36   17   18 ar
    37   17   37 1
    38   18   19 1
    39   19   20 1
    40   19   21 1
    41   21   38 1
    42   21   39 1
@<TRIPOS>MOLECULE
ZINC13553349
   48    50     0     0     0
SMALL
USER_CHARGES
2-[1-(benzenesulfonyl)-5-methoxy-indol-3-yl]-N,N-dimethyl-ethanamine
@<TRIPOS>ATOM
      1 C1         -2.5623    5.4639    7.3360 C.3       1 <0>        -0.0482
      2 C2         -0.3065    6.2599    6.9612 C.3       1 <0>        -0.0422
      3 C3         -1.3648    4.8108    5.3355 C.3       1 <0>        -0.0062
      4 C4         -2.6475    4.6085    4.5265 C.3       1 <0>        -0.0700
      5 C5         -2.4323    3.5190    3.5078 C.2       1 <0>        -0.1594
      6 C6         -2.0675    3.6848    2.2266 C.2       1 <0>         0.0910
      7 N1         -1.9742    2.4687    1.6068 N.pl3     1 <0>        -0.8230
      8 C7         -2.2761    1.4631    2.5009 C.ar      1 <0>         0.0666
      9 C8         -2.5760    2.0781    3.7298 C.ar      1 <0>        -0.0420
     10 C9         -2.9225    1.2977    4.8346 C.ar      1 <0>        -0.1239
     11 C10        -2.9681   -0.0769    4.7115 C.ar      1 <0>         0.1296
     12 C11        -2.6712   -0.6826    3.4936 C.ar      1 <0>        -0.1667
     13 C12        -2.3278    0.0773    2.3975 C.ar      1 <0>        -0.0768
     14 O1         -3.3049   -0.8421    5.7841 O.3       1 <0>        -0.3144
     15 C13        -3.3331   -2.2573    5.5881 C.3       1 <0>         0.0228
     16 S1         -1.5544    2.2383    0.0216 S.o2      1 <0>         2.6686
     17 O2         -1.3035    3.5264   -0.5234 O.2       1 <0>        -0.9251
     18 O3         -2.5194    1.3527   -0.5295 O.2       1 <0>        -0.9171
     19 C14        -0.0167    1.3781    0.0096 C.ar      1 <0>        -0.6774
     20 C15         1.1709    2.0855    0.0021 C.ar      1 <0>        -0.0168
     21 C16         2.3773    1.4107   -0.0141 C.ar      1 <0>        -0.1355
     22 C17         2.3960    0.0285   -0.0217 C.ar      1 <0>        -0.0502
     23 C18         1.2084   -0.6789   -0.0136 C.ar      1 <0>        -0.1326
     24 C19         0.0021   -0.0041    0.0020 C.ar      1 <0>        -0.0202
     25 H1         -2.2086    4.5700    7.8497 H         1 <0>         0.1237
     26 H2         -2.6985    6.2684    8.0587 H         1 <0>         0.1227
     27 H3         -3.5127    5.2499    6.8471 H         1 <0>         0.1233
     28 H4          0.3830    6.6245    6.1998 H         1 <0>         0.1212
     29 H5         -0.4905    7.0475    7.6918 H         1 <0>         0.1226
     30 H6          0.1289    5.3948    7.4613 H         1 <0>         0.1224
     31 H7         -1.1065    3.8826    5.8453 H         1 <0>         0.1337
     32 H8         -0.5535    5.0951    4.6653 H         1 <0>         0.1311
     33 H9         -2.9058    5.5367    4.0167 H         1 <0>         0.0989
     34 H10        -3.4587    4.3242    5.1967 H         1 <0>         0.0992
     35 H11        -1.8786    4.6374    1.7541 H         1 <0>         0.1952
     36 H12        -3.1537    1.7664    5.7797 H         1 <0>         0.1338
     37 H13        -2.7105   -1.7584    3.4076 H         1 <0>         0.1451
     38 H14        -2.0994   -0.4030    1.4575 H         1 <0>         0.1341
     39 H15        -4.0598   -2.5025    4.8137 H         1 <0>         0.0610
     40 H16        -2.3453   -2.6013    5.2815 H         1 <0>         0.0595
     41 H17        -3.6155   -2.7475    6.5198 H         1 <0>         0.1067
     42 H18         1.1563    3.1654    0.0081 H         1 <0>         0.1418
     43 H19         3.3051    1.9634   -0.0207 H         1 <0>         0.1396
     44 H20         3.3385   -0.4987   -0.0343 H         1 <0>         0.1390
     45 H21         1.2231   -1.7587   -0.0199 H         1 <0>         0.1409
     46 H22        -0.9258   -0.5567    0.0079 H         1 <0>         0.1410
     47 N2         -1.5849    5.8958    6.3148 N.4       1 <0>        -0.3987
     48 H23        -1.9564    6.7176    5.8241 H         1 <0>         0.4313
@<TRIPOS>BOND
     1    1   25 1
     2    1   26 1
     3    1   27 1
     4    1   47 1
     5    2   28 1
     6    2   29 1
     7    2   30 1
     8    2   47 1
     9    3    4 1
    10    3   31 1
    11    3   32 1
    12    3   47 1
    13    4    5 1
    14    4   33 1
    15    4   34 1
    16    5    9 1
    17    5    6 2
    18    6    7 1
    19    6   35 1
    20    7    8 1
    21    7   16 1
    22    8   13 ar
    23    8    9 ar
    24    9   10 ar
    25   10   11 ar
    26   10   36 1
    27   11   12 ar
    28   11   14 1
    29   12   13 ar
    30   12   37 1
    31   13   38 1
    32   14   15 1
    33   15   39 1
    34   15   40 1
    35   15   41 1
    36   16   17 2
    37   16   18 2
    38   16   19 1
    39   19   24 ar
    40   19   20 ar
    41   20   21 ar
    42   20   42 1
    43   21   22 ar
    44   21   43 1
    45   22   23 ar
    46   22   44 1
    47   23   24 ar
    48   23   45 1
    49   24   46 1
    50   47   48 1
@<TRIPOS>MOLECULE
ZINC26467647
   36    38     0     0     0
SMALL
USER_CHARGES
8-methoxy-2-piperazin-1-yl-quinoline
@<TRIPOS>ATOM
      1 C1         -2.3907    1.2500    0.0202 C.3       1 <0>         0.0170
      2 O1         -1.1998    2.0399    0.0188 O.3       1 <0>        -0.2981
      3 C2         -0.0166    1.3719    0.0096 C.ar      1 <0>         0.1507
      4 C3          0.0021   -0.0041    0.0020 C.ar      1 <0>        -0.1978
      5 C4          1.2070   -0.7008   -0.0132 C.ar      1 <0>        -0.0688
      6 C5          2.3978   -0.0396   -0.0210 C.ar      1 <0>        -0.1316
      7 C6          2.4187    1.3638   -0.0137 C.ar      1 <0>        -0.0775
      8 C7          1.2002    2.0838    0.0018 C.ar      1 <0>         0.1307
      9 N1          1.2147    3.4214    0.0083 N.ar      1 <0>        -0.4850
     10 C8          2.3478    4.0924    0.0007 C.ar      1 <0>         0.3072
     11 C9          3.5876    3.4374   -0.0146 C.ar      1 <0>        -0.1683
     12 C10         3.6359    2.0761   -0.0219 C.ar      1 <0>        -0.0367
     13 N2          2.3141    5.4797    0.0084 N.pl3     1 <0>        -0.4759
     14 C11         3.0534    6.0308   -1.1358 C.3       1 <0>         0.0237
     15 C12         3.0599    7.5587   -1.0474 C.3       1 <0>         0.0041
     16 N3          1.6757    8.0518   -1.0316 N.4       1 <0>        -0.5393
     17 C13         0.9364    7.5007    0.1126 C.3       1 <0>        -0.0022
     18 C14         0.9298    5.9728    0.0242 C.3       1 <0>         0.0341
     19 H1         -3.2695    1.9116    0.0279 H         1 <0>         0.1074
     20 H2         -2.4054    0.6104    0.9150 H         1 <0>         0.0620
     21 H3         -2.4139    0.6200   -0.8813 H         1 <0>         0.0612
     22 H4         -0.9297   -0.5501    0.0083 H         1 <0>         0.1401
     23 H5          1.1975   -1.7808   -0.0193 H         1 <0>         0.1364
     24 H6          3.3244   -0.5942   -0.0325 H         1 <0>         0.1372
     25 H7          4.5026    4.0112   -0.0202 H         1 <0>         0.1420
     26 H8          4.5821    1.5556   -0.0340 H         1 <0>         0.1516
     27 H9          4.0878    5.6571   -1.1183 H         1 <0>         0.1294
     28 H10         2.5666    5.7187   -2.0716 H         1 <0>         0.0713
     29 H11         3.5717    7.8704   -0.1250 H         1 <0>         0.1392
     30 H12         3.5882    7.9741   -1.9182 H         1 <0>         0.1429
     31 H13         1.6783    9.1492   -0.9558 H         1 <0>         0.4580
     32 H14         1.4233    7.8127    1.0483 H         1 <0>         0.1362
     33 H15        -0.0980    7.8744    0.0952 H         1 <0>         0.1418
     34 H16         0.4186    5.6601   -0.8983 H         1 <0>         0.0762
     35 H17         0.4021    5.5564    0.8949 H         1 <0>         0.1315
     36 H18         1.1682    7.7496   -1.9595 H         1 <0>         0.4490
@<TRIPOS>BOND
     1    1    2 1
     2    1   19 1
     3    1   20 1
     4    1   21 1
     5    2    3 1
     6    3    8 ar
     7    3    4 ar
     8    4    5 ar
     9    4   22 1
    10    5    6 ar
    11    5   23 1
    12    6    7 ar
    13    6   24 1
    14    7   12 ar
    15    7    8 ar
    16    8    9 ar
    17    9   10 ar
    18   10   11 ar
    19   10   13 1
    20   11   12 ar
    21   11   25 1
    22   12   26 1
    23   13   18 1
    24   13   14 1
    25   14   15 1
    26   14   27 1
    27   14   28 1
    28   15   16 1
    29   15   29 1
    30   15   30 1
    31   16   17 1
    32   16   31 1
    33   16   36 1
    34   17   18 1
    35   17   32 1
    36   17   33 1
    37   18   34 1
    38   18   35 1
@<TRIPOS>MOLECULE
ZINC00538312
   58    62     0     0     0
SMALL
USER_CHARGES

@<TRIPOS>ATOM
      1 C1         -0.0184    1.5028    0.0103 C.3       1 <0>        -0.1195
      2 C2          0.0021   -0.0041    0.0020 C.2       1 <0>         0.2267
      3 C3         -1.1658   -0.7051    0.0037 C.2       1 <0>        -0.3134
      4 C4         -1.0976   -2.1102    0.0026 C.2       1 <0>         0.5229
      5 O1         -2.1195   -2.7763   -0.0037 O.2       1 <0>        -0.5388
      6 N1          0.1170   -2.7181    0.0083 N.am      1 <0>        -0.5055
      7 C5          1.2324   -1.9722   -0.0125 C.2       1 <0>         0.4317
      8 N2          1.1610   -0.6576   -0.0126 N.2       1 <0>        -0.5532
      9 C6          2.6152   -2.5746   -0.0542 C.3       1 <0>        -0.0794
     10 C7          2.5757   -4.0399    0.3747 C.3       1 <0>        -0.1325
     11 C8          1.4654   -4.7382   -0.4208 C.3       1 <0>        -0.1400
     12 C9          0.1227   -4.1811    0.0440 C.3       1 <0>         0.0852
     13 C10        -2.4949    0.0052    0.0071 C.3       1 <0>        -0.0659
     14 C11        -3.0069    0.1361   -1.4287 C.3       1 <0>        -0.0060
     15 N3         -4.3025    0.8286   -1.4254 N.4       1 <0>        -0.3843
     16 C12        -5.2942    0.0044   -0.7242 C.3       1 <0>        -0.0080
     17 C13        -6.6248    0.7562   -0.6469 C.3       1 <0>        -0.1417
     18 C14        -7.1187    1.0558   -2.0652 C.3       1 <0>        -0.0246
     19 C15        -6.0446    1.8523   -2.8116 C.3       1 <0>        -0.1421
     20 C16        -4.7355    1.0599   -2.8086 C.3       1 <0>        -0.0031
     21 C17        -8.3887    1.8641   -1.9963 C.2       1 <0>         0.1325
     22 C18        -9.6953    1.4738   -2.5327 C.ar      1 <0>        -0.2134
     23 C19       -10.1611    0.3470   -3.2152 C.ar      1 <0>        -0.0098
     24 C20       -11.4711    0.2760   -3.5942 C.ar      1 <0>        -0.1750
     25 C21       -12.3461    1.3174   -3.3066 C.ar      1 <0>         0.1749
     26 C22       -11.9048    2.4388   -2.6332 C.ar      1 <0>        -0.1638
     27 C23       -10.5757    2.5285   -2.2393 C.ar      1 <0>         0.1187
     28 O2         -9.8642    3.4688   -1.5855 O.3       1 <0>        -0.0749
     29 N4         -8.5274    3.0311   -1.4462 N.2       1 <0>        -0.2751
     30 F1        -13.6388    1.2314   -3.6896 F         1 <0>        -0.1154
     31 H1          1.0042    1.8801    0.0026 H         1 <0>         0.0924
     32 H2         -0.5455    1.8639   -0.8728 H         1 <0>         0.0828
     33 H3         -0.5286    1.8543    0.9071 H         1 <0>         0.0913
     34 H4          3.0059   -2.5077   -1.0696 H         1 <0>         0.1148
     35 H5          3.2691   -2.0204    0.6191 H         1 <0>         0.1189
     36 H6          3.5346   -4.5121    0.1611 H         1 <0>         0.0978
     37 H7          2.3615   -4.1056    1.4415 H         1 <0>         0.0782
     38 H8          1.5965   -4.5420   -1.4849 H         1 <0>         0.0801
     39 H9          1.5014   -5.8120   -0.2372 H         1 <0>         0.1025
     40 H10        -0.0688   -4.5145    1.0639 H         1 <0>         0.0935
     41 H11        -0.6654   -4.5576   -0.6081 H         1 <0>         0.1043
     42 H12        -3.2109   -0.5666    0.5975 H         1 <0>         0.0984
     43 H13        -2.3754    0.9974    0.4422 H         1 <0>         0.0964
     44 H14        -2.2909    0.7079   -2.0190 H         1 <0>         0.1297
     45 H15        -3.1264   -0.8561   -1.8638 H         1 <0>         0.1316
     46 H16        -5.4368   -0.9309   -1.2655 H         1 <0>         0.1347
     47 H17        -4.9399   -0.2107    0.2839 H         1 <0>         0.1394
     48 H18        -7.3603    0.1418   -0.1276 H         1 <0>         0.1195
     49 H19        -6.4834    1.6916   -0.1055 H         1 <0>         0.0988
     50 H20        -7.3090    0.1197   -2.5902 H         1 <0>         0.1177
     51 H21        -6.3653    2.0214   -3.8395 H         1 <0>         0.1196
     52 H22        -5.8912    2.8104   -2.3151 H         1 <0>         0.0992
     53 H23        -3.9686    1.6240   -3.3394 H         1 <0>         0.1371
     54 H24        -4.8899    0.1021   -3.3055 H         1 <0>         0.1330
     55 H25        -9.4868   -0.4654   -3.4426 H         1 <0>         0.1453
     56 H26       -11.8300   -0.5955   -4.1217 H         1 <0>         0.1542
     57 H27       -12.5906    3.2435   -2.4131 H         1 <0>         0.1583
     58 H28        -4.2082    1.7141   -0.9510 H         1 <0>         0.4233
@<TRIPOS>BOND
     1    1    2 1
     2    1   31 1
     3    1   32 1
     4    1   33 1
     5    2    8 1
     6    2    3 2
     7    3    4 1
     8    3   13 1
     9    4    5 2
    10    4    6 am
    11    6   12 1
    12    6    7 1
    13    7    8 2
    14    7    9 1
    15    9   10 1
    16    9   34 1
    17    9   35 1
    18   10   11 1
    19   10   36 1
    20   10   37 1
    21   11   12 1
    22   11   38 1
    23   11   39 1
    24   12   40 1
    25   12   41 1
    26   13   14 1
    27   13   42 1
    28   13   43 1
    29   14   15 1
    30   14   44 1
    31   14   45 1
    32   15   20 1
    33   15   16 1
    34   15   58 1
    35   16   17 1
    36   16   46 1
    37   16   47 1
    38   17   18 1
    39   17   48 1
    40   17   49 1
    41   18   19 1
    42   18   21 1
    43   18   50 1
    44   19   20 1
    45   19   51 1
    46   19   52 1
    47   20   53 1
    48   20   54 1
    49   21   29 2
    50   21   22 1
    51   22   27 ar
    52   22   23 ar
    53   23   24 ar
    54   23   55 1
    55   24   25 ar
    56   24   56 1
    57   25   26 ar
    58   25   30 1
    59   26   27 ar
    60   26   57 1
    61   27   28 1
    62   28   29 1
@<TRIPOS>MOLECULE
ZINC00120271
   27    28     0     0     0
SMALL
USER_CHARGES
1-phenylpiperazine
@<TRIPOS>ATOM
      1 C1         -0.0126    1.0758    0.0080 C.ar      1 <0>        -0.1249
      2 C2         -1.2203    1.7493    0.0174 C.ar      1 <0>        -0.0917
      3 C3         -1.2426    3.1301    0.0307 C.ar      1 <0>        -0.1633
      4 C4         -0.0501    3.8425    0.0232 C.ar      1 <0>         0.0829
      5 C5          1.1613    3.1628    0.0080 C.ar      1 <0>        -0.1290
      6 C6          1.1764    1.7819    0.0004 C.ar      1 <0>        -0.0920
      7 N1         -0.0690    5.2391    0.0304 N.pl3     1 <0>        -0.4878
      8 C7          0.6758    5.7818   -1.1143 C.3       1 <0>         0.0241
      9 C8          0.6987    7.3097   -1.0265 C.3       1 <0>         0.0008
     10 C9         -1.4250    7.2749    0.1342 C.3       1 <0>         0.0011
     11 C10        -1.4480    5.7470    0.0464 C.3       1 <0>         0.0189
     12 H1          0.0021   -0.0041    0.0020 H         1 <0>         0.1302
     13 H2         -2.1471    1.1948    0.0184 H         1 <0>         0.1301
     14 H3         -2.1861    3.6555    0.0425 H         1 <0>         0.1262
     15 H4          2.0902    3.7137    0.0017 H         1 <0>         0.1274
     16 H5          2.1179    1.2529   -0.0118 H         1 <0>         0.1323
     17 H6          1.6971    5.4012   -1.0971 H         1 <0>         0.1278
     18 H7          0.1898    5.4781   -2.0414 H         1 <0>         0.0694
     19 H8          1.2258    7.7156   -1.8899 H         1 <0>         0.1415
     20 H9          1.2089    7.6138   -0.1125 H         1 <0>         0.1406
     21 H10        -2.4463    7.6555    0.1169 H         1 <0>         0.1415
     22 H11        -0.9393    7.5786    1.0615 H         1 <0>         0.1404
     23 H12        -1.9581    5.4429   -0.8676 H         1 <0>         0.0714
     24 H13        -1.9751    5.3410    0.9098 H         1 <0>         0.1291
     25 N2         -0.6840    7.8238   -1.0172 N.4       1 <0>        -0.5188
     26 H14        -1.1546    7.5465   -1.8866 H         1 <0>         0.4314
     27 H15        -0.6642    8.8482   -0.9504 H         1 <0>         0.4403
@<TRIPOS>BOND
     1    1    6 ar
     2    1    2 ar
     3    1   12 1
     4    2    3 ar
     5    2   13 1
     6    3    4 ar
     7    3   14 1
     8    4    5 ar
     9    4    7 1
    10    5    6 ar
    11    5   15 1
    12    6   16 1
    13    7   11 1
    14    7    8 1
    15    8    9 1
    16    8   17 1
    17    8   18 1
    18    9   19 1
    19    9   20 1
    20    9   25 1
    21   10   11 1
    22   10   21 1
    23   10   22 1
    24   10   25 1
    25   11   23 1
    26   11   24 1
    27   25   26 1
    28   25   27 1
@<TRIPOS>MOLECULE
ZINC00012687
   31    32     0     0     0
SMALL
USER_CHARGES

@<TRIPOS>ATOM
      1 C1         -0.0173    1.4248    0.0099 C.3       1 <0>         0.0227
      2 O1          0.0021   -0.0041    0.0020 O.3       1 <0>        -0.3117
      3 C2         -1.2013   -0.6380    0.0101 C.ar      1 <0>         0.1288
      4 C3         -2.3740    0.0989    0.0195 C.ar      1 <0>        -0.2021
      5 C4         -3.5967   -0.5469    0.0283 C.ar      1 <0>        -0.0665
      6 C5         -3.6532   -1.9283    0.0271 C.ar      1 <0>        -0.1489
      7 C6         -2.4875   -2.6710    0.0173 C.ar      1 <0>        -0.0822
      8 C7         -1.2572   -2.0300    0.0032 C.ar      1 <0>         0.1072
      9 N1         -0.0754   -2.7797   -0.0127 N.pl3     1 <0>        -0.6644
     10 C8          0.5725   -3.1969    1.2404 C.3       1 <0>         0.1192
     11 C9          0.8530   -4.7014    1.1647 C.3       1 <0>        -0.0238
     12 N2          1.6309   -4.9929   -0.0461 N.4       1 <0>        -0.5024
     13 C10         0.8351   -4.6789   -1.2395 C.3       1 <0>        -0.0234
     14 C11         0.5506   -3.1781   -1.2829 C.3       1 <0>         0.1188
     15 H1          1.0053    1.8021    0.0021 H         1 <0>         0.1038
     16 H2         -0.5445    1.7859   -0.8732 H         1 <0>         0.0591
     17 H3         -0.5275    1.7763    0.9067 H         1 <0>         0.0591
     18 H4         -2.3335    1.1781    0.0204 H         1 <0>         0.1344
     19 H5         -4.5101    0.0293    0.0363 H         1 <0>         0.1324
     20 H6         -4.6104   -2.4284    0.0343 H         1 <0>         0.1311
     21 H7         -2.5344   -3.7500    0.0168 H         1 <0>         0.1268
     22 H8          1.5101   -2.6554    1.3659 H         1 <0>         0.0784
     23 H9         -0.0891   -2.9896    2.0815 H         1 <0>         0.1136
     24 H10         1.4191   -5.0102    2.0435 H         1 <0>         0.1387
     25 H11        -0.0906   -5.2458    1.1302 H         1 <0>         0.1311
     26 H12         2.4712   -4.4343   -0.0471 H         1 <0>         0.4276
     27 H13         1.3880   -4.9711   -2.1323 H         1 <0>         0.1391
     28 H14        -0.1080   -5.2240   -1.2012 H         1 <0>         0.1310
     29 H15        -0.1254   -2.9583   -2.1092 H         1 <0>         0.1138
     30 H16         1.4860   -2.6346   -1.4165 H         1 <0>         0.0779
     31 H17         1.8799   -5.9706   -0.0571 H         1 <0>         0.4305
@<TRIPOS>BOND
     1    1    2 1
     2    1   15 1
     3    1   16 1
     4    1   17 1
     5    2    3 1
     6    3    8 ar
     7    3    4 ar
     8    4    5 ar
     9    4   18 1
    10    5    6 ar
    11    5   19 1
    12    6    7 ar
    13    6   20 1
    14    7    8 ar
    15    7   21 1
    16    8    9 1
    17    9   14 1
    18    9   10 1
    19   10   11 1
    20   10   22 1
    21   10   23 1
    22   11   12 1
    23   11   24 1
    24   11   25 1
    25   12   13 1
    26   12   26 1
    27   12   31 1
    28   13   14 1
    29   13   27 1
    30   13   28 1
    31   14   29 1
    32   14   30 1
