@<TRIPOS>MOLECULE
ZINC01488294
   49    52     0     0     0
SMALL
USER_CHARGES
4-fluoro-N-[3-(1-methyl-4-piperidyl)-1H-indol-5-yl]-benzamide
@<TRIPOS>ATOM
      1 C1         -8.7658   -6.3171   -0.6517 C.3       1 <0>        -0.0426
      2 C2         -6.7436   -5.5577   -1.7447 C.3       1 <0>        -0.0023
      3 C3         -5.2182   -5.6804   -1.7417 C.3       1 <0>        -0.1409
      4 C4         -4.6683   -5.1161   -0.4288 C.3       1 <0>        -0.0138
      5 C5         -5.2977   -5.8709    0.7454 C.3       1 <0>        -0.1414
      6 C6         -6.8208   -5.7426    0.6703 C.3       1 <0>        -0.0024
      7 C7         -3.1716   -5.2887   -0.3942 C.2       1 <0>        -0.1906
      8 C8         -2.5002   -6.4494   -0.4581 C.2       1 <0>         0.0731
      9 N1         -1.1539   -6.2137   -0.3978 N.pl3     1 <0>        -0.5885
     10 H1         -0.4666   -6.8976   -0.4259 H         1 <0>         0.4216
     11 C9         -0.9198   -4.8591   -0.2907 C.ar      1 <0>         0.0854
     12 C10        -2.1738   -4.2216   -0.2838 C.ar      1 <0>        -0.0776
     13 C11        -2.2497   -2.8313   -0.1836 C.ar      1 <0>        -0.1102
     14 C12        -1.0869   -2.0891   -0.0915 C.ar      1 <0>         0.1376
     15 C13         0.1538   -2.7240   -0.1044 C.ar      1 <0>        -0.0919
     16 C14         0.2386   -4.0950   -0.1972 C.ar      1 <0>        -0.1034
     17 N2         -1.1558   -0.6938    0.0094 N.am      1 <0>        -0.6708
     18 C15        -0.2361   -0.0241    0.7320 C.2       1 <0>         0.5645
     19 O1          0.5956   -0.6358    1.3741 O.2       1 <0>        -0.5103
     20 C16        -0.2385    1.4528    0.7437 C.ar      1 <0>        -0.1554
     21 C17        -1.1891    2.1580    0.0024 C.ar      1 <0>        -0.0559
     22 C18        -1.1910    3.5362    0.0224 C.ar      1 <0>        -0.1611
     23 C19        -0.2434    4.2226    0.7663 C.ar      1 <0>         0.1345
     24 C20         0.7065    3.5275    1.4991 C.ar      1 <0>        -0.1592
     25 C21         0.7134    2.1492    1.4917 C.ar      1 <0>        -0.0243
     26 F1         -0.2459    5.5736    0.7775 F         1 <0>        -0.1285
     27 H2         -9.0923   -6.8002   -1.5726 H         1 <0>         0.1211
     28 H3         -9.1500   -6.8707    0.2050 H         1 <0>         0.1212
     29 H4         -9.1444   -5.2953   -0.6234 H         1 <0>         0.1223
     30 H5         -7.0236   -4.5071   -1.6675 H         1 <0>         0.1298
     31 H6         -7.1394   -5.9717   -2.6721 H         1 <0>         0.1283
     32 H7         -4.8062   -5.1187   -2.5801 H         1 <0>         0.1131
     33 H8         -4.9374   -6.7297   -1.8327 H         1 <0>         0.0866
     34 H9         -4.9145   -4.0568   -0.3561 H         1 <0>         0.0923
     35 H10        -5.0181   -6.9231    0.6935 H         1 <0>         0.0867
     36 H11        -4.9425   -5.4452    1.6839 H         1 <0>         0.1132
     37 H12        -7.1004   -4.6911    0.7362 H         1 <0>         0.1299
     38 H13        -7.2727   -6.2909    1.4969 H         1 <0>         0.1284
     39 H14        -2.9554   -7.4249   -0.5447 H         1 <0>         0.1659
     40 H15        -3.2107   -2.3386   -0.1776 H         1 <0>         0.1239
     41 H16         1.0568   -2.1354   -0.0365 H         1 <0>         0.1422
     42 H17         1.2051   -4.5770   -0.2022 H         1 <0>         0.1292
     43 H18        -1.8655   -0.2094   -0.4408 H         1 <0>         0.4099
     44 H19        -1.9247    1.6244   -0.5812 H         1 <0>         0.1351
     45 H20        -1.9289    4.0825   -0.5464 H         1 <0>         0.1457
     46 H21         1.4422    4.0671    2.0771 H         1 <0>         0.1482
     47 H22         1.4533    1.6088    2.0634 H         1 <0>         0.1497
     48 N3         -7.2890   -6.3255   -0.6052 N.4       1 <0>        -0.3961
     49 H23        -6.9590   -7.2957   -0.6690 H         1 <0>         0.4279
@<TRIPOS>BOND
     1    1   27 1
     2    1   28 1
     3    1   29 1
     4    1   48 1
     5    2    3 1
     6    2   30 1
     7    2   31 1
     8    2   48 1
     9    3    4 1
    10    3   32 1
    11    3   33 1
    12    4    5 1
    13    4    7 1
    14    4   34 1
    15    5    6 1
    16    5   35 1
    17    5   36 1
    18    6   37 1
    19    6   38 1
    20    6   48 1
    21    7   12 1
    22    7    8 2
    23    8    9 1
    24    8   39 1
    25    9   10 1
    26    9   11 1
    27   11   16 ar
    28   11   12 ar
    29   12   13 ar
    30   13   14 ar
    31   13   40 1
    32   14   15 ar
    33   14   17 1
    34   15   16 ar
    35   15   41 1
    36   16   42 1
    37   17   18 am
    38   17   43 1
    39   18   19 2
    40   18   20 1
    41   20   25 ar
    42   20   21 ar
    43   21   22 ar
    44   21   44 1
    45   22   23 ar
    46   22   45 1
    47   23   24 ar
    48   23   26 1
    49   24   25 ar
    50   24   46 1
    51   25   47 1
    52   48   49 1
@<TRIPOS>MOLECULE
ZINC00200993
   31    32     0     0     0
SMALL
USER_CHARGES
2-(5-ethyl-1H-indol-3-yl)ethanamine
@<TRIPOS>ATOM
      1 C1          4.9139    4.0881    2.4716 C.3       1 <0>        -0.1472
      2 C2          3.7539    4.4310    3.4085 C.3       1 <0>        -0.0863
      3 C3          2.9491    3.1878    3.6875 C.ar      1 <0>        -0.0907
      4 C4          3.2803    2.3810    4.7677 C.ar      1 <0>        -0.0904
      5 C5          2.5580    1.2401    5.0400 C.ar      1 <0>        -0.1179
      6 C6          1.4854    0.8906    4.2259 C.ar      1 <0>         0.0900
      7 C7          1.1578    1.7080    3.1289 C.ar      1 <0>        -0.0968
      8 C8          1.8996    2.8634    2.8750 C.ar      1 <0>        -0.0842
      9 C9          0.0000    1.0800    2.4877 C.2       1 <0>        -0.2092
     10 C10        -0.2849   -0.0276    3.1905 C.2       1 <0>         0.0853
     11 N1          0.5921   -0.1571    4.2328 N.pl3     1 <0>        -0.5876
     12 H1          0.5858   -0.8797    4.8799 H         1 <0>         0.4231
     13 C11        -0.7288    1.5792    1.2668 C.3       1 <0>        -0.0613
     14 C12        -0.0127    1.0858    0.0080 C.3       1 <0>        -0.0037
     15 H2          5.5520    3.3401    2.9421 H         1 <0>         0.0573
     16 H3          4.5200    3.6926    1.5354 H         1 <0>         0.0512
     17 H4          5.4959    4.9873    2.2699 H         1 <0>         0.0611
     18 H5          3.1157    5.1790    2.9380 H         1 <0>         0.0710
     19 H6          4.1478    4.8265    4.3448 H         1 <0>         0.0754
     20 H7          4.1129    2.6504    5.4006 H         1 <0>         0.1308
     21 H8          2.8233    0.6192    5.8829 H         1 <0>         0.1260
     22 H9          1.6480    3.4956    2.0363 H         1 <0>         0.1171
     23 H10        -1.0874   -0.7147    2.9665 H         1 <0>         0.1726
     24 H11        -0.7436    2.6691    1.2728 H         1 <0>         0.0916
     25 H12        -1.7514    1.2020    1.2746 H         1 <0>         0.0910
     26 H13         0.0021   -0.0041    0.0020 H         1 <0>         0.1307
     27 H14         1.0099    1.4631    0.0003 H         1 <0>         0.1341
     28 H15        -0.8068    2.5779   -1.1674 H         1 <0>         0.4367
     29 H16        -0.2694    1.2597   -2.0273 H         1 <0>         0.4395
     30 N2         -0.7456    1.5611   -1.1787 N.4       1 <0>        -0.6479
     31 H17        -1.6942    1.1683   -1.1693 H         1 <0>         0.4385
@<TRIPOS>BOND
     1    1    2 1
     2    1   15 1
     3    1   16 1
     4    1   17 1
     5    2    3 1
     6    2   18 1
     7    2   19 1
     8    3    8 ar
     9    3    4 ar
    10    4    5 ar
    11    4   20 1
    12    5    6 ar
    13    5   21 1
    14    6   11 1
    15    6    7 ar
    16    7    8 ar
    17    7    9 1
    18    8   22 1
    19    9   10 2
    20    9   13 1
    21   10   11 1
    22   10   23 1
    23   11   12 1
    24   13   14 1
    25   13   24 1
    26   13   25 1
    27   14   26 1
    28   14   27 1
    29   14   30 1
    30   28   30 1
    31   29   30 1
    32   30   31 1
@<TRIPOS>MOLECULE
ZINC03807663
   33    35     0     0     0
SMALL
USER_CHARGES
6-methoxy-2,3,4,9-tetrahydro-1H-carbazol-3-amine
@<TRIPOS>ATOM
      1 C1          2.3408    7.9260   -1.5234 C.3       1 <0>         0.0245
      2 O1          1.4699    6.8158   -1.2975 O.3       1 <0>        -0.3190
      3 C2          2.0488    5.6422   -0.9275 C.ar      1 <0>         0.1136
      4 C3          3.4305    5.5839   -0.7909 C.ar      1 <0>        -0.1772
      5 C4          4.0863    4.4241   -0.4184 C.ar      1 <0>        -0.0814
      6 C5          3.3007    3.2984   -0.1806 C.ar      1 <0>         0.0662
      7 C6          1.8905    3.3550   -0.3189 C.ar      1 <0>        -0.0568
      8 C7          1.2439    4.5364   -0.6966 C.ar      1 <0>        -0.1183
      9 C8          1.4037    2.0287   -0.0004 C.2       1 <0>        -0.1928
     10 C9          2.4806    1.2713    0.3008 C.2       1 <0>         0.0866
     11 N1          3.6210    2.0232    0.1943 N.pl3     1 <0>        -0.5765
     12 H1          4.5203    1.6995    0.3602 H         1 <0>         0.4213
     13 C10         2.3989   -0.1854    0.6926 C.3       1 <0>        -0.0570
     14 C11         0.9541   -0.5038    1.0924 C.3       1 <0>        -0.1322
     15 C12         0.0021   -0.0041    0.0020 C.3       1 <0>         0.0304
     16 H2          0.3449   -0.3579   -0.9703 H         1 <0>         0.1441
     17 C13        -0.0187    1.5290    0.0104 C.3       1 <0>        -0.0563
     18 H3          3.0421    7.6811   -2.3211 H         1 <0>         0.0573
     19 H4          1.7521    8.7968   -1.8118 H         1 <0>         0.1040
     20 H5          2.8925    8.1468   -0.6096 H         1 <0>         0.0574
     21 H6          4.0119    6.4737   -0.9822 H         1 <0>         0.1351
     22 H7          5.1610    4.3926   -0.3167 H         1 <0>         0.1371
     23 H8          0.1704    4.5850   -0.8038 H         1 <0>         0.1374
     24 H9          3.0623   -0.3752    1.5363 H         1 <0>         0.1006
     25 H10         2.6914   -0.8109   -0.1508 H         1 <0>         0.0966
     26 H11         0.7200   -0.0080    2.0345 H         1 <0>         0.0962
     27 H12         0.8385   -1.5812    1.2100 H         1 <0>         0.0976
     28 H13        -0.5412    1.8928   -0.8743 H         1 <0>         0.0970
     29 H14        -0.5242    1.8832    0.9088 H         1 <0>         0.0918
     30 H15        -1.3633   -1.5231    0.2604 H         1 <0>         0.4386
     31 H16        -1.7155   -0.1486    1.1279 H         1 <0>         0.4361
     32 N2         -1.3631   -0.5047    0.2409 N.4       1 <0>        -0.6446
     33 H17        -1.9776   -0.1840   -0.5166 H         1 <0>         0.4426
@<TRIPOS>BOND
     1    1    2 1
     2    1   18 1
     3    1   19 1
     4    1   20 1
     5    2    3 1
     6    3    8 ar
     7    3    4 ar
     8    4    5 ar
     9    4   21 1
    10    5    6 ar
    11    5   22 1
    12    6   11 1
    13    6    7 ar
    14    7    8 ar
    15    7    9 1
    16    8   23 1
    17    9   17 1
    18    9   10 2
    19   10   11 1
    20   10   13 1
    21   11   12 1
    22   13   14 1
    23   13   24 1
    24   13   25 1
    25   14   15 1
    26   14   26 1
    27   14   27 1
    28   15   16 1
    29   15   17 1
    30   15   32 1
    31   17   28 1
    32   17   29 1
    33   30   32 1
    34   31   32 1
    35   32   33 1
@<TRIPOS>MOLECULE
ZINC13745611
   33    35     0     0     0
SMALL
USER_CHARGES
(3S)-6-methoxy-2,3,4,9-tetrahydro-1H-carbazol-3-amine
@<TRIPOS>ATOM
      1 C1         -0.0127    1.0858    0.0080 C.3       1 <0>         0.0251
      2 O1         -0.6816    1.5467    1.1837 O.3       1 <0>        -0.3169
      3 C2         -0.1484    1.1819    2.3804 C.ar      1 <0>         0.1170
      4 C3          0.9991    0.3937    2.4169 C.ar      1 <0>        -0.1724
      5 C4          1.5516    0.0158    3.6200 C.ar      1 <0>        -0.0814
      6 C5          0.9644    0.4210    4.8138 C.ar      1 <0>         0.0655
      7 C6         -0.1955    1.2180    4.7809 C.ar      1 <0>        -0.0525
      8 C7         -0.7436    1.5991    3.5536 C.ar      1 <0>        -0.1239
      9 C8         -0.5508    1.4634    6.1750 C.2       1 <0>        -0.1960
     10 C9          0.3628    0.8358    6.9400 C.2       1 <0>         0.0945
     11 N1          1.2763    0.2086    6.1412 N.pl3     1 <0>        -0.5801
     12 H1          2.0321   -0.3093    6.4598 H         1 <0>         0.4204
     13 C10         0.3405    0.8484    8.4514 C.3       1 <0>        -0.0567
     14 C11        -1.0520    1.2911    8.9141 C.3       1 <0>        -0.1358
     15 C12        -1.4476    2.5782    8.1848 C.3       1 <0>         0.0306
     16 H2         -0.6383    3.3041    8.2630 H         1 <0>         0.1472
     17 C13        -1.7117    2.2635    6.7073 C.3       1 <0>        -0.0565
     18 H3          0.0021   -0.0041    0.0020 H         1 <0>         0.0577
     19 H4          1.0099    1.4631    0.0003 H         1 <0>         0.0576
     20 H5         -0.5399    1.4469   -0.8751 H         1 <0>         0.1046
     21 H6          1.4596    0.0757    1.4932 H         1 <0>         0.1384
     22 H7          2.4418   -0.5955    3.6367 H         1 <0>         0.1297
     23 H8         -1.6308    2.2141    3.5231 H         1 <0>         0.1303
     24 H9          0.5509   -0.1522    8.8290 H         1 <0>         0.1011
     25 H10         1.0894    1.5479    8.8228 H         1 <0>         0.0973
     26 H11        -1.7759    0.5083    8.6879 H         1 <0>         0.0964
     27 H12        -1.0370    1.4725    9.9888 H         1 <0>         0.0981
     28 H13        -1.8044    3.1929    6.1454 H         1 <0>         0.0972
     29 H14        -2.6297    1.6830    6.6150 H         1 <0>         0.0912
     30 H15        -2.5154    3.3461    9.7687 H         1 <0>         0.4387
     31 H16        -2.9819    3.9469    8.2897 H         1 <0>         0.4402
     32 N2         -2.6798    3.1130    8.7908 N.4       1 <0>        -0.6445
     33 H17        -3.4190    2.4027    8.7354 H         1 <0>         0.4382
@<TRIPOS>BOND
     1    1    2 1
     2    1   18 1
     3    1   19 1
     4    1   20 1
     5    2    3 1
     6    3    8 ar
     7    3    4 ar
     8    4    5 ar
     9    4   21 1
    10    5    6 ar
    11    5   22 1
    12    6   11 1
    13    6    7 ar
    14    7    8 ar
    15    7    9 1
    16    8   23 1
    17    9   17 1
    18    9   10 2
    19   10   11 1
    20   10   13 1
    21   11   12 1
    22   13   14 1
    23   13   24 1
    24   13   25 1
    25   14   15 1
    26   14   26 1
    27   14   27 1
    28   15   16 1
    29   15   17 1
    30   15   32 1
    31   17   28 1
    32   17   29 1
    33   30   32 1
    34   31   32 1
    35   32   33 1
@<TRIPOS>MOLECULE
ZINC00000870
   30    31     0     0     0
SMALL
USER_CHARGES
1-[3-(2-aminoethyl)-1H-indol-5-yl]ethanone
@<TRIPOS>ATOM
      1 C1          3.4936    5.2197    2.2199 C.3       1 <0>        -0.1928
      2 C2          3.7629    4.3909    3.4494 C.2       1 <0>         0.3904
      3 O1          4.6340    4.7225    4.2254 O.2       1 <0>        -0.4491
      4 C3          2.9701    3.1812    3.7081 C.ar      1 <0>        -0.1829
      5 C4          3.2957    2.3458    4.7896 C.ar      1 <0>        -0.0422
      6 C5          2.5701    1.2207    5.0408 C.ar      1 <0>        -0.1306
      7 C6          1.4905    0.8836    4.2249 C.ar      1 <0>         0.1244
      8 C7          1.1558    1.7100    3.1335 C.ar      1 <0>        -0.1172
      9 C8          1.8944    2.8620    2.8797 C.ar      1 <0>        -0.0299
     10 C9         -0.0073    1.0862    2.4954 C.2       1 <0>        -0.1983
     11 C10        -0.2870   -0.0243    3.1948 C.2       1 <0>         0.0851
     12 N1          0.5977   -0.1597    4.2304 N.pl3     1 <0>        -0.5839
     13 H1          0.5947   -0.8861    4.8732 H         1 <0>         0.4263
     14 C11        -0.7440    1.5919    1.2819 C.3       1 <0>        -0.0641
     15 C12        -0.0363    1.1047    0.0159 C.3       1 <0>        -0.0044
     16 H2          2.6965    4.8540    1.7394 H         1 <0>         0.0699
     17 H3          3.2995    6.2515    2.5126 H         1 <0>         0.0961
     18 H4          4.3618    5.1859    1.5617 H         1 <0>         0.0971
     19 H5          4.1297    2.5979    5.4278 H         1 <0>         0.1421
     20 H6          2.8317    0.5872    5.8754 H         1 <0>         0.1327
     21 H7          1.6396    3.5003    2.0466 H         1 <0>         0.1322
     22 H8         -1.0913   -0.7102    2.9731 H         1 <0>         0.1765
     23 H9         -0.7584    2.6817    1.2936 H         1 <0>         0.0939
     24 H10        -1.7667    1.2149    1.2944 H         1 <0>         0.0939
     25 H11        -0.0220    0.0149    0.0042 H         1 <0>         0.1318
     26 H12         0.9863    1.4817    0.0034 H         1 <0>         0.1348
     27 H13        -0.8377    2.6030   -1.1466 H         1 <0>         0.4370
     28 H14        -0.3063    1.2891   -2.0167 H         1 <0>         0.4404
     29 N2         -0.7768    1.5863   -1.1635 N.4       1 <0>        -0.6481
     30 H15        -1.7254    1.1937   -1.1499 H         1 <0>         0.4391
@<TRIPOS>BOND
     1    1    2 1
     2    1   16 1
     3    1   17 1
     4    1   18 1
     5    2    3 2
     6    2    4 1
     7    4    9 ar
     8    4    5 ar
     9    5    6 ar
    10    5   19 1
    11    6    7 ar
    12    6   20 1
    13    7   12 1
    14    7    8 ar
    15    8    9 ar
    16    8   10 1
    17    9   21 1
    18   10   11 2
    19   10   14 1
    20   11   12 1
    21   11   22 1
    22   12   13 1
    23   14   15 1
    24   14   23 1
    25   14   24 1
    26   15   25 1
    27   15   26 1
    28   15   29 1
    29   27   29 1
    30   28   29 1
    31   29   30 1
@<TRIPOS>MOLECULE
ZINC00015515
   43    45     0     0     0
SMALL
USER_CHARGES

@<TRIPOS>ATOM
      1 C1         -0.0178    1.4648    0.0101 C.3       1 <0>        -0.0471
      2 N1          0.0021   -0.0041    0.0020 N.4       1 <0>        -0.3886
      3 C2          0.7126   -0.4907    1.1921 C.3       1 <0>        -0.0527
      4 C3         -1.3761   -0.5125    0.0124 C.3       1 <0>        -0.0087
      5 C4         -1.3584   -2.0365   -0.1216 C.3       1 <0>        -0.0607
      6 C5         -2.7722   -2.5582   -0.1109 C.2       1 <0>        -0.2038
      7 C6         -3.4483   -3.0106    0.9568 C.2       1 <0>         0.0869
      8 N2         -4.7052   -3.4010    0.5822 N.pl3     1 <0>        -0.5871
      9 H1         -5.3778   -3.7624    1.1803 H         1 <0>         0.4240
     10 C7         -4.8728   -3.2042   -0.7702 C.ar      1 <0>         0.0959
     11 C8         -3.6716   -2.6617   -1.2627 C.ar      1 <0>        -0.0955
     12 C9         -3.5517   -2.3510   -2.6183 C.ar      1 <0>        -0.0825
     13 C10        -4.6048   -2.5723   -3.4607 C.ar      1 <0>        -0.0995
     14 C11        -5.7932   -3.1034   -2.9792 C.ar      1 <0>        -0.0885
     15 C12        -5.9299   -3.4260   -1.6465 C.ar      1 <0>        -0.1148
     16 C13        -4.4748   -2.2367   -4.9240 C.3       1 <0>        -0.0841
     17 C14        -3.9414   -3.4545   -5.6812 C.3       1 <0>         0.0969
     18 H2         -4.5631   -4.3296   -5.4923 H         1 <0>         0.1029
     19 C15        -3.8474   -3.1625   -7.1977 C.3       1 <0>         0.0412
     20 O1         -2.6339   -3.8494   -7.5609 O.3       1 <0>        -0.3237
     21 C16        -1.8515   -3.9154   -6.4706 C.2       1 <0>         0.6446
     22 O2         -0.6563   -4.1299   -6.5129 O.2       1 <0>        -0.5150
     23 N3         -2.5346   -3.7218   -5.3222 N.am      1 <0>        -0.7365
     24 H3          1.0047    1.8421    0.0024 H         1 <0>         0.1243
     25 H4         -0.5450    1.8259   -0.8730 H         1 <0>         0.1226
     26 H5         -0.5280    1.8163    0.9069 H         1 <0>         0.1212
     27 H6          0.2024   -0.1392    2.0889 H         1 <0>         0.1217
     28 H7          0.7273   -1.5806    1.1861 H         1 <0>         0.1248
     29 H8          1.7352   -0.1134    1.1844 H         1 <0>         0.1241
     30 H9         -1.8584   -0.2358    0.9500 H         1 <0>         0.1288
     31 H10        -1.9290   -0.0808   -0.8218 H         1 <0>         0.1299
     32 H11        -0.8762   -2.3132   -1.0592 H         1 <0>         0.0914
     33 H12        -0.8055   -2.4683    0.7126 H         1 <0>         0.0919
     34 H13        -3.0579   -3.0597    1.9626 H         1 <0>         0.1733
     35 H14        -2.6302   -1.9368   -2.9999 H         1 <0>         0.1179
     36 H15        -6.6168   -3.2720   -3.6571 H         1 <0>         0.1334
     37 H16        -6.8592   -3.8377   -1.2812 H         1 <0>         0.1276
     38 H17        -5.4514   -1.9607   -5.3217 H         1 <0>         0.0989
     39 H18        -3.7841   -1.4022   -5.0454 H         1 <0>         0.0840
     40 H19        -4.7039   -3.5787   -7.7280 H         1 <0>         0.1254
     41 H20        -3.7591   -2.0920   -7.3832 H         1 <0>         0.0970
     42 H21        -2.1690   -3.7504   -4.4242 H         1 <0>         0.4311
     43 H22         0.4744   -0.3295   -0.8281 H         1 <0>         0.4271
@<TRIPOS>BOND
     1    1    2 1
     2    1   24 1
     3    1   25 1
     4    1   26 1
     5    2    3 1
     6    2    4 1
     7    2   43 1
     8    3   27 1
     9    3   28 1
    10    3   29 1
    11    4    5 1
    12    4   30 1
    13    4   31 1
    14    5    6 1
    15    5   32 1
    16    5   33 1
    17    6   11 1
    18    6    7 2
    19    7    8 1
    20    7   34 1
    21    8    9 1
    22    8   10 1
    23   10   15 ar
    24   10   11 ar
    25   11   12 ar
    26   12   13 ar
    27   12   35 1
    28   13   14 ar
    29   13   16 1
    30   14   15 ar
    31   14   36 1
    32   15   37 1
    33   16   17 1
    34   16   38 1
    35   16   39 1
    36   17   18 1
    37   17   23 1
    38   17   19 1
    39   19   20 1
    40   19   40 1
    41   19   41 1
    42   20   21 1
    43   21   22 2
    44   21   23 am
    45   23   42 1
@<TRIPOS>MOLECULE
ZINC00599925
   54    56     0     0     0
SMALL
USER_CHARGES

@<TRIPOS>ATOM
      1 C1         -0.0224    1.4620   -0.0128 C.3       1 <0>        -0.0477
      2 N1         -0.0039   -0.0069   -0.0210 N.4       1 <0>        -0.3874
      3 C2          0.7150   -0.4942    1.1637 C.3       1 <0>        -0.0535
      4 C3         -1.3824   -0.5141   -0.0003 C.3       1 <0>        -0.0117
      5 C4         -1.3672   -2.0381   -0.1345 C.3       1 <0>        -0.1448
      6 C5         -2.8029   -2.5664   -0.1128 C.3       1 <0>        -0.0709
      7 C6         -2.7879   -4.0675   -0.2450 C.ar      1 <0>        -0.1298
      8 C7         -2.9384   -4.8578    0.8728 C.ar      1 <0>        -0.0351
      9 C8         -2.9243   -6.2495    0.7491 C.ar      1 <0>        -0.1397
     10 C9         -2.7575   -6.8338   -0.5096 C.ar      1 <0>        -0.0626
     11 C10        -2.6077   -6.0367   -1.6221 C.ar      1 <0>        -0.1454
     12 C11        -2.6280   -4.6524   -1.4955 C.ar      1 <0>         0.1405
     13 O1         -2.4860   -3.8702   -2.5954 O.3       1 <0>        -0.4896
     14 C12        -3.0847   -7.1001    1.9443 C.2       1 <0>         0.5597
     15 O2         -3.2293   -6.5901    3.0386 O.2       1 <0>        -0.5127
     16 N2         -3.0708   -8.4423    1.8229 N.am      1 <0>        -0.6664
     17 C13        -3.1253   -9.2473    2.9632 C.ar      1 <0>         0.1455
     18 C14        -3.8827   -8.8486    4.0587 C.ar      1 <0>        -0.1167
     19 C15        -3.9380   -9.6413    5.1849 C.ar      1 <0>        -0.0826
     20 C16        -3.2338  -10.8441    5.2247 C.ar      1 <0>        -0.0638
     21 C17        -2.4752  -11.2422    4.1246 C.ar      1 <0>        -0.0818
     22 C18        -2.4268  -10.4487    2.9987 C.ar      1 <0>        -0.1394
     23 C19        -3.2913  -11.6984    6.4354 C.ar      1 <0>         0.0004
     24 C20        -4.0506  -11.3193    7.5465 C.ar      1 <0>        -0.1682
     25 C21        -4.0766  -12.1439    8.6521 C.ar      1 <0>         0.1054
     26 N3         -3.3981  -13.2753    8.6692 N.ar      1 <0>        -0.4862
     27 C22        -2.6697  -13.6697    7.6422 C.ar      1 <0>         0.1053
     28 C23        -2.5924  -12.9079    6.4948 C.ar      1 <0>        -0.1683
     29 H1          1.0004    1.8383   -0.0282 H         1 <0>         0.1247
     30 H2         -0.5559    1.8235   -0.8919 H         1 <0>         0.1240
     31 H3         -0.5255    1.8140    0.8878 H         1 <0>         0.1224
     32 H4          0.7288   -1.5841    1.1576 H         1 <0>         0.1239
     33 H5          1.7379   -0.1178    1.1483 H         1 <0>         0.1248
     34 H6          0.2119   -0.1422    2.0643 H         1 <0>         0.1234
     35 H7         -1.8574   -0.2370    0.9409 H         1 <0>         0.1321
     36 H8         -1.9412   -0.0818   -0.8304 H         1 <0>         0.1336
     37 H9         -0.8922   -2.3153   -1.0756 H         1 <0>         0.0837
     38 H10        -0.8084   -2.4704    0.6956 H         1 <0>         0.0902
     39 H11        -3.2779   -2.2892    0.8283 H         1 <0>         0.0873
     40 H12        -3.3617   -2.1341   -0.9429 H         1 <0>         0.0932
     41 H13        -3.0667   -4.4024    1.8437 H         1 <0>         0.1437
     42 H14        -2.7457   -7.9092   -0.6093 H         1 <0>         0.1353
     43 H15        -2.4788   -6.4875   -2.5950 H         1 <0>         0.1428
     44 H16        -1.5687   -3.6443   -2.8016 H         1 <0>         0.3905
     45 H17        -3.0230   -8.8494    0.9438 H         1 <0>         0.4118
     46 H18        -4.4279   -7.9168    4.0273 H         1 <0>         0.1428
     47 H19        -4.5259   -9.3308    6.0360 H         1 <0>         0.1327
     48 H20        -1.9287  -12.1733    4.1535 H         1 <0>         0.1341
     49 H21        -1.8426  -10.7586    2.1448 H         1 <0>         0.1312
     50 H22        -4.6081  -10.3943    7.5395 H         1 <0>         0.1373
     51 H23        -4.6600  -11.8593    9.5153 H         1 <0>         0.1591
     52 H24        -2.1301  -14.6035    7.6991 H         1 <0>         0.1591
     53 H25        -1.9977  -13.2389    5.6563 H         1 <0>         0.1373
     54 H26         0.4618   -0.3327   -0.8547 H         1 <0>         0.4263
@<TRIPOS>BOND
     1    1    2 1
     2    1   29 1
     3    1   30 1
     4    1   31 1
     5    2    3 1
     6    2    4 1
     7    2   54 1
     8    3   32 1
     9    3   33 1
    10    3   34 1
    11    4    5 1
    12    4   35 1
    13    4   36 1
    14    5    6 1
    15    5   37 1
    16    5   38 1
    17    6    7 1
    18    6   39 1
    19    6   40 1
    20    7   12 ar
    21    7    8 ar
    22    8    9 ar
    23    8   41 1
    24    9   10 ar
    25    9   14 1
    26   10   11 ar
    27   10   42 1
    28   11   12 ar
    29   11   43 1
    30   12   13 1
    31   13   44 1
    32   14   15 2
    33   14   16 am
    34   16   17 1
    35   16   45 1
    36   17   22 ar
    37   17   18 ar
    38   18   19 ar
    39   18   46 1
    40   19   20 ar
    41   19   47 1
    42   20   21 ar
    43   20   23 1
    44   21   22 ar
    45   21   48 1
    46   22   49 1
    47   23   28 ar
    48   23   24 ar
    49   24   25 ar
    50   24   50 1
    51   25   26 ar
    52   25   51 1
    53   26   27 ar
    54   27   28 ar
    55   27   52 1
    56   28   53 1
@<TRIPOS>MOLECULE
ZINC00004076
   49    51     0     0     0
SMALL
USER_CHARGES

@<TRIPOS>ATOM
      1 C1         -0.0178    1.4608    0.0101 C.3       1 <0>         0.0791
      2 N1          0.0021   -0.0041    0.0020 N.pl3     1 <0>        -1.1231
      3 S1          0.7184   -0.8155   -1.2513 S.o2      1 <0>         2.6114
      4 O1          0.5323   -2.1909   -0.9462 O.2       1 <0>        -0.9564
      5 O2          0.1475   -0.2497   -2.4231 O.2       1 <0>        -0.9490
      6 C2          2.4769   -0.3837   -1.1417 C.3       1 <0>        -0.6258
      7 C3          3.2451   -1.0851   -2.2637 C.3       1 <0>        -0.0696
      8 C4          4.7059   -0.7263   -2.1728 C.ar      1 <0>        -0.0915
      9 C5          5.1845    0.3886   -2.8476 C.ar      1 <0>        -0.0886
     10 C6          6.5162    0.7338   -2.7781 C.ar      1 <0>        -0.1201
     11 C7          7.3924   -0.0406   -2.0244 C.ar      1 <0>         0.0958
     12 C8          6.9024   -1.1689   -1.3421 C.ar      1 <0>        -0.0962
     13 C9          5.5477   -1.4976   -1.4223 C.ar      1 <0>        -0.0731
     14 C10         8.0540   -1.7580   -0.6546 C.2       1 <0>        -0.1861
     15 C11         9.1180   -0.9927   -0.9451 C.2       1 <0>         0.0687
     16 N2          8.7418    0.0382   -1.7624 N.pl3     1 <0>        -0.5890
     17 H1          9.3371    0.7228   -2.1057 H         1 <0>         0.4215
     18 C12         8.0458   -2.9892    0.2143 C.3       1 <0>        -0.0162
     19 C13         8.5253   -2.6254    1.6225 C.3       1 <0>        -0.1394
     20 C14         8.5904   -3.8933    2.4767 C.3       1 <0>        -0.0078
     21 N3          9.5262   -4.8482    1.8709 N.4       1 <0>        -0.3847
     22 C15         9.0353   -5.2566    0.5493 C.3       1 <0>        -0.0079
     23 C16         8.9873   -4.0411   -0.3791 C.3       1 <0>        -0.1397
     24 C17         9.6443   -6.0307    2.7346 C.3       1 <0>        -0.0475
     25 H2          1.0048    1.8381    0.0023 H         1 <0>         0.0585
     26 H3         -0.5450    1.8219   -0.8730 H         1 <0>         0.0714
     27 H4         -0.5280    1.8123    0.9069 H         1 <0>         0.0855
     28 H5         -0.4044   -0.4986    0.7308 H         1 <0>         0.4198
     29 H6          2.5929    0.6955   -1.2415 H         1 <0>         0.1339
     30 H7          2.8702   -0.7038   -0.1769 H         1 <0>         0.1327
     31 H8          3.1291   -2.1643   -2.1640 H         1 <0>         0.0890
     32 H9          2.8517   -0.7650   -3.2286 H         1 <0>         0.0923
     33 H10         4.5060    0.9910   -3.4333 H         1 <0>         0.1326
     34 H11         6.8790    1.6026   -3.3073 H         1 <0>         0.1264
     35 H12         5.1674   -2.3607   -0.8962 H         1 <0>         0.1218
     36 H13        10.1221   -1.1654   -0.5870 H         1 <0>         0.1660
     37 H14         7.0344   -3.3926    0.2653 H         1 <0>         0.0938
     38 H15         9.5160   -2.1744    1.5644 H         1 <0>         0.0866
     39 H16         7.8287   -1.9184    2.0729 H         1 <0>         0.1128
     40 H17         8.9313   -3.6378    3.4800 H         1 <0>         0.1305
     41 H18         7.5993   -4.3433    2.5343 H         1 <0>         0.1292
     42 H19         9.7046   -6.0075    0.1296 H         1 <0>         0.1308
     43 H20         8.0347   -5.6775    0.6480 H         1 <0>         0.1293
     44 H21         8.6209   -4.3460   -1.3593 H         1 <0>         0.1137
     45 H22         9.9876   -3.6195   -0.4787 H         1 <0>         0.0866
     46 H23         8.6664   -6.4994    2.8445 H         1 <0>         0.1218
     47 H24        10.3391   -6.7405    2.2856 H         1 <0>         0.1234
     48 H25        10.0151   -5.7295    3.7143 H         1 <0>         0.1233
     49 H26        10.4317   -4.4141    1.7729 H         1 <0>         0.4234
@<TRIPOS>BOND
     1    1    2 1
     2    1   25 1
     3    1   26 1
     4    1   27 1
     5    2    3 1
     6    2   28 1
     7    3    4 2
     8    3    5 2
     9    3    6 1
    10    6    7 1
    11    6   29 1
    12    6   30 1
    13    7    8 1
    14    7   31 1
    15    7   32 1
    16    8   13 ar
    17    8    9 ar
    18    9   10 ar
    19    9   33 1
    20   10   11 ar
    21   10   34 1
    22   11   16 1
    23   11   12 ar
    24   12   13 ar
    25   12   14 1
    26   13   35 1
    27   14   15 2
    28   14   18 1
    29   15   16 1
    30   15   36 1
    31   16   17 1
    32   18   23 1
    33   18   19 1
    34   18   37 1
    35   19   20 1
    36   19   38 1
    37   19   39 1
    38   20   21 1
    39   20   40 1
    40   20   41 1
    41   21   22 1
    42   21   24 1
    43   21   49 1
    44   22   23 1
    45   22   42 1
    46   22   43 1
    47   23   44 1
    48   23   45 1
    49   24   46 1
    50   24   47 1
    51   24   48 1
@<TRIPOS>MOLECULE
ZINC00018635
   36    38     0     0     0
SMALL
USER_CHARGES

@<TRIPOS>ATOM
      1 C1         -0.0178    1.4648    0.0101 C.3       1 <0>        -0.0518
      2 N1          0.0021   -0.0041    0.0020 N.4       1 <0>        -0.5073
      3 C2         -1.3761   -0.5125    0.0124 C.3       1 <0>         0.0240
      4 H1         -1.9294   -0.0810   -0.8217 H         1 <0>         0.1441
      5 C3         -2.0537   -0.1255    1.3300 C.3       1 <0>        -0.1358
      6 C4         -3.5525   -0.4328    1.2418 C.3       1 <0>        -0.0551
      7 C5         -3.7256   -1.8515    0.7522 C.2       1 <0>         0.0748
      8 C6         -2.7479   -2.5609    0.1494 C.2       1 <0>        -0.1709
      9 C7         -3.3002   -3.8628   -0.1656 C.ar      1 <0>        -0.1091
     10 C8         -2.7645   -4.9937   -0.7814 C.ar      1 <0>        -0.0006
     11 C9         -3.6158   -6.0942   -0.9175 C.ar      1 <0>        -0.1611
     12 C10        -4.9370   -6.0596   -0.4586 C.ar      1 <0>        -0.0638
     13 C11        -5.4723   -4.9535    0.1466 C.ar      1 <0>        -0.1286
     14 C12        -4.6437   -3.8400    0.2959 C.ar      1 <0>         0.1249
     15 N2         -4.8628   -2.6115    0.8420 N.pl3     1 <0>        -0.5734
     16 H2         -5.6991   -2.3182    1.2364 H         1 <0>         0.4237
     17 C13        -3.1086   -7.3223   -1.5615 C.2       1 <0>         0.5634
     18 O1         -1.9630   -7.3679   -1.9659 O.2       1 <0>        -0.5435
     19 N3         -3.9157   -8.3926   -1.7011 N.am      1 <0>        -0.8501
     20 C14        -1.3590   -2.0399   -0.1203 C.3       1 <0>        -0.0598
     21 H3          1.0047    1.8421    0.0024 H         1 <0>         0.1286
     22 H4         -0.5450    1.8259   -0.8730 H         1 <0>         0.1246
     23 H5         -0.5280    1.8163    0.9069 H         1 <0>         0.1248
     24 H6          0.4744   -0.3295   -0.8281 H         1 <0>         0.4335
     25 H7         -1.6130   -0.6969    2.1470 H         1 <0>         0.0969
     26 H8         -1.9112    0.9396    1.5129 H         1 <0>         0.0988
     27 H9         -4.0063   -0.3278    2.2273 H         1 <0>         0.1011
     28 H10        -4.0267    0.2560    0.5425 H         1 <0>         0.0967
     29 H11        -1.7443   -5.0179   -1.1351 H         1 <0>         0.1451
     30 H12        -5.5563   -6.9351   -0.5863 H         1 <0>         0.1307
     31 H13        -6.4947   -4.9432    0.4943 H         1 <0>         0.1403
     32 H14        -4.8297   -8.3562   -1.3784 H         1 <0>         0.4015
     33 H15        -3.5825   -9.1994   -2.1242 H         1 <0>         0.4086
     34 H16        -1.0535   -2.3162   -1.1295 H         1 <0>         0.1002
     35 H17        -0.6630   -2.4625    0.6043 H         1 <0>         0.0949
     36 H18         0.4901   -0.3383    0.8195 H         1 <0>         0.4296
@<TRIPOS>BOND
     1    1    2 1
     2    1   21 1
     3    1   22 1
     4    1   23 1
     5    2    3 1
     6    2   24 1
     7    2   36 1
     8    3    4 1
     9    3   20 1
    10    3    5 1
    11    5    6 1
    12    5   25 1
    13    5   26 1
    14    6    7 1
    15    6   27 1
    16    6   28 1
    17    7   15 1
    18    7    8 2
    19    8    9 1
    20    8   20 1
    21    9   14 ar
    22    9   10 ar
    23   10   11 ar
    24   10   29 1
    25   11   12 ar
    26   11   17 1
    27   12   13 ar
    28   12   30 1
    29   13   14 ar
    30   13   31 1
    31   14   15 1
    32   15   16 1
    33   17   18 2
    34   17   19 am
    35   19   32 1
    36   19   33 1
    37   20   34 1
    38   20   35 1
@<TRIPOS>MOLECULE
ZINC00014360
   42    43     0     0     0
SMALL
USER_CHARGES

@<TRIPOS>ATOM
      1 C1         -0.0178    1.4608    0.0101 C.3       1 <0>         0.0793
      2 N1          0.0021   -0.0041    0.0020 N.pl3     1 <0>        -1.1235
      3 S1          0.7421   -0.8289    1.2326 S.o2      1 <0>         2.6084
      4 O1          0.5924   -2.2002    0.8914 O.2       1 <0>        -0.9468
      5 O2          2.0334   -0.2448    1.3355 O.2       1 <0>        -0.9510
      6 C2         -0.2382   -0.4417    2.7090 C.3       1 <0>        -0.5828
      7 C3          0.3516   -1.1474    3.9028 C.ar      1 <0>        -0.1049
      8 C4         -0.0784   -2.4267    4.2282 C.ar      1 <0>        -0.0826
      9 C5          0.4473   -3.0893    5.3155 C.ar      1 <0>        -0.1137
     10 C6          1.4193   -2.4726    6.0968 C.ar      1 <0>         0.1042
     11 C7          1.8519   -1.1765    5.7625 C.ar      1 <0>        -0.0991
     12 C8          1.3091   -0.5253    4.6530 C.ar      1 <0>        -0.0640
     13 C9          2.8614   -0.8166    6.7612 C.2       1 <0>        -0.2000
     14 C10         2.9754   -1.8603    7.5977 C.2       1 <0>         0.0879
     15 N2          2.1214   -2.8591    7.2163 N.pl3     1 <0>        -0.5851
     16 H1          2.0253   -3.7124    7.6673 H         1 <0>         0.4255
     17 C11         3.6270    0.4793    6.8351 C.3       1 <0>        -0.0627
     18 C12         2.7992    1.5182    7.5943 C.3       1 <0>        -0.0095
     19 N3          3.5455    2.7814    7.6664 N.4       1 <0>        -0.3881
     20 C13         3.7116    3.3299    6.3138 C.3       1 <0>        -0.0545
     21 C14         2.8051    3.7410    8.4964 C.3       1 <0>        -0.0469
     22 H2          1.0048    1.8381    0.0023 H         1 <0>         0.0693
     23 H3         -0.5450    1.8219   -0.8730 H         1 <0>         0.0876
     24 H4         -0.5280    1.8123    0.9069 H         1 <0>         0.0574
     25 H5         -0.4183   -0.4908   -0.7241 H         1 <0>         0.4222
     26 H6         -0.2266    0.6346    2.8808 H         1 <0>         0.1378
     27 H7         -1.2653   -0.7750    2.5608 H         1 <0>         0.1453
     28 H8         -0.8329   -2.9072    3.6230 H         1 <0>         0.1399
     29 H9          0.1057   -4.0841    5.5609 H         1 <0>         0.1340
     30 H10         1.6421    0.4681    4.3911 H         1 <0>         0.1262
     31 H11         3.6421   -1.9048    8.4461 H         1 <0>         0.1761
     32 H12         4.5701    0.3149    7.3563 H         1 <0>         0.0931
     33 H13         3.8275    0.8410    5.8266 H         1 <0>         0.0945
     34 H14         1.8561    1.6826    7.0732 H         1 <0>         0.1293
     35 H15         2.5988    1.1565    8.6029 H         1 <0>         0.1303
     36 H16         4.2654    4.2672    6.3673 H         1 <0>         0.1245
     37 H17         4.2611    2.6179    5.6980 H         1 <0>         0.1265
     38 H18         2.7316    3.5116    5.8726 H         1 <0>         0.1219
     39 H19         2.6818    3.3340    9.5001 H         1 <0>         0.1225
     40 H20         3.3588    4.6783    8.5499 H         1 <0>         0.1241
     41 H21         1.8251    3.9226    8.0552 H         1 <0>         0.1209
     42 H22         4.4527    2.6132    8.0749 H         1 <0>         0.4266
@<TRIPOS>BOND
     1    1    2 1
     2    1   22 1
     3    1   23 1
     4    1   24 1
     5    2    3 1
     6    2   25 1
     7    3    4 2
     8    3    5 2
     9    3    6 1
    10    6    7 1
    11    6   26 1
    12    6   27 1
    13    7   12 ar
    14    7    8 ar
    15    8    9 ar
    16    8   28 1
    17    9   10 ar
    18    9   29 1
    19   10   15 1
    20   10   11 ar
    21   11   12 ar
    22   11   13 1
    23   12   30 1
    24   13   14 2
    25   13   17 1
    26   14   15 1
    27   14   31 1
    28   15   16 1
    29   17   18 1
    30   17   32 1
    31   17   33 1
    32   18   19 1
    33   18   34 1
    34   18   35 1
    35   19   20 1
    36   19   21 1
    37   19   42 1
    38   20   36 1
    39   20   37 1
    40   20   38 1
    41   21   39 1
    42   21   40 1
    43   21   41 1
@<TRIPOS>MOLECULE
ZINC00005452
   39    41     0     0     0
SMALL
USER_CHARGES
5-methoxy-3-[(1-methylpyrrolidin-2-yl)methyl]-1H-indole
@<TRIPOS>ATOM
      1 C1         -1.6841    9.0297    1.5032 C.3       1 <0>        -0.0368
      2 C2         -3.0315    7.4227    2.7405 C.3       1 <0>        -0.0068
      3 C3         -3.1188    5.8837    2.8256 C.3       1 <0>        -0.1503
      4 C4         -1.9302    5.3679    1.9884 C.3       1 <0>        -0.1424
      5 C5         -1.2248    6.6387    1.4679 C.3       1 <0>         0.0298
      6 H1         -0.4009    6.9130    2.1268 H         1 <0>         0.1384
      7 C6         -0.7160    6.4203    0.0416 C.3       1 <0>        -0.0465
      8 C7          0.3684    5.3738    0.0498 C.2       1 <0>        -0.2067
      9 C8          1.6886    5.5931    0.1542 C.2       1 <0>         0.0924
     10 N1          2.3630    4.4032    0.1252 N.pl3     1 <0>        -0.5867
     11 H2          3.3263    4.3069    0.1857 H         1 <0>         0.4229
     12 C9          1.4688    3.3611   -0.0020 C.ar      1 <0>         0.0611
     13 C10         0.1812    3.9246   -0.0546 C.ar      1 <0>        -0.0557
     14 C11        -0.9373    3.0988   -0.1842 C.ar      1 <0>        -0.1291
     15 C12        -0.7694    1.7306   -0.2647 C.ar      1 <0>         0.1169
     16 C13         0.5062    1.1756   -0.2070 C.ar      1 <0>        -0.1757
     17 C14         1.6164    1.9805   -0.0796 C.ar      1 <0>        -0.0788
     18 O1         -1.8546    0.9217   -0.3958 O.3       1 <0>        -0.3181
     19 C15        -1.6107   -0.4845   -0.4680 C.3       1 <0>         0.0252
     20 H3         -1.1449    9.1994    0.5712 H         1 <0>         0.1237
     21 H4         -2.4730    9.7745    1.6074 H         1 <0>         0.1231
     22 H5         -0.9935    9.1119    2.3425 H         1 <0>         0.1172
     23 H6         -4.0294    7.8574    2.6826 H         1 <0>         0.1356
     24 H7         -2.4935    7.8210    3.6007 H         1 <0>         0.1301
     25 H8         -4.0603    5.5339    2.4020 H         1 <0>         0.0986
     26 H9         -3.0234    5.5557    3.8607 H         1 <0>         0.1076
     27 H10        -2.2883    4.7650    1.1539 H         1 <0>         0.1023
     28 H11        -1.2509    4.7859    2.6111 H         1 <0>         0.1072
     29 H12        -0.3151    7.3559   -0.3484 H         1 <0>         0.0904
     30 H13        -1.5387    6.0861   -0.5904 H         1 <0>         0.0922
     31 H14         2.1501    6.5651    0.2473 H         1 <0>         0.1729
     32 H15        -1.9275    3.5279   -0.2249 H         1 <0>         0.1272
     33 H16         0.6264    0.1040   -0.2672 H         1 <0>         0.1372
     34 H17         2.6014    1.5396   -0.0395 H         1 <0>         0.1291
     35 H18        -1.1085   -0.8133    0.4418 H         1 <0>         0.0575
     36 H19        -2.5585   -1.0128   -0.5712 H         1 <0>         0.1042
     37 H20        -0.9790   -0.6999   -1.3298 H         1 <0>         0.0581
     38 N2         -2.2807    7.6568    1.5093 N.4       1 <0>        -0.3963
     39 H21        -2.8996    7.5547    0.6964 H         1 <0>         0.4288
@<TRIPOS>BOND
     1    1   20 1
     2    1   21 1
     3    1   22 1
     4    1   38 1
     5    2    3 1
     6    2   23 1
     7    2   24 1
     8    2   38 1
     9    3    4 1
    10    3   25 1
    11    3   26 1
    12    4    5 1
    13    4   27 1
    14    4   28 1
    15    5    6 1
    16    5    7 1
    17    5   38 1
    18    7    8 1
    19    7   29 1
    20    7   30 1
    21    8   13 1
    22    8    9 2
    23    9   10 1
    24    9   31 1
    25   10   11 1
    26   10   12 1
    27   12   17 ar
    28   12   13 ar
    29   13   14 ar
    30   14   15 ar
    31   14   32 1
    32   15   16 ar
    33   15   18 1
    34   16   17 ar
    35   16   33 1
    36   17   34 1
    37   18   19 1
    38   19   35 1
    39   19   36 1
    40   19   37 1
    41   38   39 1
@<TRIPOS>MOLECULE
ZINC03779247
   39    41     0     0     0
SMALL
USER_CHARGES
5-methoxy-3-[(1-methylpyrrolidin-2-yl)methyl]-1H-indole
@<TRIPOS>ATOM
      1 C1         -0.0127    1.0858    0.0080 C.3       1 <0>        -0.0468
      2 C2         -0.0154    1.0869    2.4338 C.3       1 <0>        -0.0141
      3 C3          0.3473    2.3336    3.2677 C.3       1 <0>        -0.1410
      4 C4         -0.6531    3.4018    2.7526 C.3       1 <0>        -0.1410
      5 C5         -0.7548    3.0366    1.2506 C.3       1 <0>         0.0313
      6 H1          0.0848    3.4601    0.6994 H         1 <0>         0.1399
      7 C6         -2.0800    3.5343    0.6700 C.3       1 <0>        -0.0538
      8 C7         -2.1382    3.2084   -0.8002 C.2       1 <0>        -0.2329
      9 C8         -1.7983    4.0222   -1.8122 C.2       1 <0>         0.1039
     10 N1         -1.9828    3.3827   -3.0074 N.pl3     1 <0>        -0.5849
     11 H2         -1.8055    3.7688   -3.8794 H         1 <0>         0.4255
     12 C9         -2.4588    2.1072   -2.7874 C.ar      1 <0>         0.0637
     13 C10        -2.5704    1.9414   -1.3952 C.ar      1 <0>        -0.0724
     14 C11        -3.0413    0.7357   -0.8714 C.ar      1 <0>        -0.1531
     15 C12        -3.3818   -0.2930   -1.7272 C.ar      1 <0>         0.1281
     16 C13        -3.2638   -0.1281   -3.1046 C.ar      1 <0>        -0.1762
     17 C14        -2.8073    1.0592   -3.6324 C.ar      1 <0>        -0.0694
     18 O1         -3.8347   -1.4718   -1.2226 O.3       1 <0>        -0.3174
     19 C15        -4.1698   -2.4941   -2.1632 C.3       1 <0>         0.0239
     20 H3          0.0021   -0.0041    0.0020 H         1 <0>         0.1175
     21 H4          1.0099    1.4631    0.0003 H         1 <0>         0.1169
     22 H5         -0.5399    1.4469   -0.8751 H         1 <0>         0.1301
     23 H6         -0.6800    0.4389    3.0053 H         1 <0>         0.1277
     24 H7          0.8895    0.5431    2.1626 H         1 <0>         0.1310
     25 H8          0.1954    2.1441    4.3303 H         1 <0>         0.1117
     26 H9          1.3745    2.6420    3.0731 H         1 <0>         0.0978
     27 H10        -1.6201    3.3008    3.2453 H         1 <0>         0.0996
     28 H11        -0.2530    4.4071    2.8844 H         1 <0>         0.1164
     29 H12        -2.9080    3.0455    1.1836 H         1 <0>         0.0923
     30 H13        -2.1540    4.6132    0.8063 H         1 <0>         0.1172
     31 H14        -1.4337    5.0326   -1.6996 H         1 <0>         0.1787
     32 H15        -3.1336    0.6067    0.1969 H         1 <0>         0.1190
     33 H16        -3.5332   -0.9388   -3.7654 H         1 <0>         0.1404
     34 H17        -2.7197    1.1762   -4.7025 H         1 <0>         0.1327
     35 H18        -4.5164   -3.3792   -1.6297 H         1 <0>         0.1067
     36 H19        -4.9594   -2.1356   -2.8235 H         1 <0>         0.0605
     37 H20        -3.2894   -2.7473   -2.7537 H         1 <0>         0.0592
     38 N2         -0.7151    1.5608    1.2286 N.4       1 <0>        -0.3921
     39 H21        -1.6745    1.1951    1.2270 H         1 <0>         0.4233
@<TRIPOS>BOND
     1    1   20 1
     2    1   21 1
     3    1   22 1
     4    1   38 1
     5    2    3 1
     6    2   23 1
     7    2   24 1
     8    2   38 1
     9    3    4 1
    10    3   25 1
    11    3   26 1
    12    4    5 1
    13    4   27 1
    14    4   28 1
    15    5    6 1
    16    5    7 1
    17    5   38 1
    18    7    8 1
    19    7   29 1
    20    7   30 1
    21    8   13 1
    22    8    9 2
    23    9   10 1
    24    9   31 1
    25   10   11 1
    26   10   12 1
    27   12   17 ar
    28   12   13 ar
    29   13   14 ar
    30   14   15 ar
    31   14   32 1
    32   15   16 ar
    33   15   18 1
    34   16   17 ar
    35   16   33 1
    36   17   34 1
    37   18   19 1
    38   19   35 1
    39   19   36 1
    40   19   37 1
    41   38   39 1
@<TRIPOS>MOLECULE
ZINC00598510
   69    73     0     0     0
SMALL
USER_CHARGES
N-[4-methoxy-3-(4-methylpiperazin-1-yl)-phenyl]-4-[2-methyl-4-(5-methyl-1,3,4-oxadiazol-2-yl)-phenyl]-benzamide
@<TRIPOS>ATOM
      1 C1         -6.9475   -3.7097    1.5171 C.3       1 <0>        -0.1203
      2 C2         -7.1385   -4.7256    0.4205 C.ar      1 <0>        -0.0669
      3 C3         -8.3247   -5.4177    0.3225 C.ar      1 <0>        -0.0662
      4 C4         -8.4993   -6.3634   -0.6904 C.ar      1 <0>        -0.0108
      5 C5         -7.4721   -6.6024   -1.6068 C.ar      1 <0>        -0.0868
      6 C6         -6.2889   -5.9059   -1.5108 C.ar      1 <0>        -0.0969
      7 C7         -6.1151   -4.9610   -0.4983 C.ar      1 <0>        -0.0397
      8 C8         -4.8408   -4.2120   -0.3953 C.ar      1 <0>        -0.0110
      9 C9         -3.6254   -4.8979   -0.4113 C.ar      1 <0>        -0.1090
     10 C10        -2.4412   -4.2029   -0.3157 C.ar      1 <0>        -0.0500
     11 C11        -2.4561   -2.8102   -0.2026 C.ar      1 <0>        -0.1411
     12 C12        -3.6737   -2.1248   -0.1813 C.ar      1 <0>        -0.0840
     13 C13        -4.8567   -2.8210   -0.2819 C.ar      1 <0>        -0.1095
     14 C14        -1.1861   -2.0637   -0.0994 C.2       1 <0>         0.5629
     15 O1         -0.1270   -2.6609   -0.1129 O.2       1 <0>        -0.5103
     16 N1         -1.2009   -0.7204    0.0097 N.am      1 <0>        -0.6721
     17 C15         0.0017   -0.0036   -0.0040 C.ar      1 <0>         0.1272
     18 C16         1.0697   -0.4541   -0.7688 C.ar      1 <0>        -0.0642
     19 C17         2.2582    0.2515   -0.7837 C.ar      1 <0>        -0.1796
     20 C18         2.3872    1.4102   -0.0361 C.ar      1 <0>         0.1526
     21 C19         1.3178    1.8660    0.7318 C.ar      1 <0>         0.0452
     22 C20         0.1261    1.1575    0.7466 C.ar      1 <0>        -0.1346
     23 N2          1.4463    3.0372    1.4871 N.pl3     1 <0>        -0.4789
     24 C21         1.3302    2.7526    2.9241 C.3       1 <0>         0.0286
     25 C22         1.5550    4.0424    3.7168 C.3       1 <0>         0.0034
     26 C23         0.6839    5.3330    1.8636 C.3       1 <0>         0.0034
     27 C24         0.4591    4.0432    1.0710 C.3       1 <0>         0.0282
     28 C25         0.7026    6.2777    4.0934 C.3       1 <0>        -0.0406
     29 O2          3.5579    2.1038   -0.0523 O.3       1 <0>        -0.2988
     30 C26         4.6117    1.5791   -0.8624 C.3       1 <0>         0.0199
     31 C27        -9.7699   -7.1103   -0.7931 C.2       1 <0>         0.1997
     32 N3        -10.8121   -6.9862   -0.0045 N.2       1 <0>        -0.2692
     33 N4        -11.7358   -7.7935   -0.3923 N.2       1 <0>        -0.2846
     34 C28       -11.3233   -8.4593   -1.4350 C.2       1 <0>         0.1721
     35 O3        -10.0773   -8.0421   -1.7177 O.3       1 <0>        -0.2202
     36 C29       -12.1050   -9.5028   -2.1907 C.3       1 <0>        -0.0620
     37 H1         -7.2825   -2.7324    1.1694 H         1 <0>         0.0766
     38 H2         -7.5298   -4.0038    2.3903 H         1 <0>         0.0745
     39 H3         -5.8922   -3.6580    1.7847 H         1 <0>         0.0729
     40 H4         -9.1183   -5.2325    1.0312 H         1 <0>         0.1449
     41 H5         -7.6066   -7.3332   -2.3905 H         1 <0>         0.1370
     42 H6         -5.4946   -6.0908   -2.2188 H         1 <0>         0.1377
     43 H7         -3.6141   -5.9742   -0.4991 H         1 <0>         0.1377
     44 H8         -1.5008   -4.7338   -0.3278 H         1 <0>         0.1422
     45 H9         -3.6863   -1.0488   -0.0894 H         1 <0>         0.1261
     46 H10        -5.7977   -2.2911   -0.2692 H         1 <0>         0.1363
     47 H11        -2.0448   -0.2502    0.0976 H         1 <0>         0.4103
     48 H12         0.9716   -1.3574   -1.3527 H         1 <0>         0.1451
     49 H13         3.0872   -0.1011   -1.3794 H         1 <0>         0.1429
     50 H14        -0.7058    1.5109    1.3378 H         1 <0>         0.1280
     51 H15         0.3351    2.3628    3.1384 H         1 <0>         0.0618
     52 H16         2.0796    2.0146    3.2104 H         1 <0>         0.1241
     53 H17         2.5600    4.4175    3.5235 H         1 <0>         0.1408
     54 H18         1.4407    3.8395    4.7816 H         1 <0>         0.1351
     55 H19         1.6790    5.7228    1.6493 H         1 <0>         0.1406
     56 H20        -0.0652    6.0711    1.5771 H         1 <0>         0.1351
     57 H21         0.5734    4.2461    0.0061 H         1 <0>         0.1242
     58 H22        -0.5459    3.6679    1.2638 H         1 <0>         0.0616
     59 H23        -0.0822    6.9797    3.8116 H         1 <0>         0.1221
     60 H24         0.6128    6.0384    5.1530 H         1 <0>         0.1223
     61 H25         1.6773    6.7272    3.9038 H         1 <0>         0.1244
     62 H26         5.4857    2.2258   -0.7853 H         1 <0>         0.1053
     63 H27         4.8695    0.5772   -0.5191 H         1 <0>         0.0594
     64 H28         4.2835    1.5340   -1.9009 H         1 <0>         0.0591
     65 H29       -12.6727   -9.0242   -2.9887 H         1 <0>         0.1031
     66 H30       -11.4175  -10.2313   -2.6204 H         1 <0>         0.0960
     67 H31       -12.7902  -10.0074   -1.5096 H         1 <0>         0.1109
     68 N5          0.5424    5.0374    3.3047 N.4       1 <0>        -0.3993
     69 H32        -0.3936    4.6517    3.4760 H         1 <0>         0.4255
@<TRIPOS>BOND
     1    1    2 1
     2    1   37 1
     3    1   38 1
     4    1   39 1
     5    2    7 ar
     6    2    3 ar
     7    3    4 ar
     8    3   40 1
     9    4    5 ar
    10    4   31 1
    11    5    6 ar
    12    5   41 1
    13    6    7 ar
    14    6   42 1
    15    7    8 1
    16    8   13 ar
    17    8    9 ar
    18    9   10 ar
    19    9   43 1
    20   10   11 ar
    21   10   44 1
    22   11   12 ar
    23   11   14 1
    24   12   13 ar
    25   12   45 1
    26   13   46 1
    27   14   15 2
    28   14   16 am
    29   16   17 1
    30   16   47 1
    31   17   22 ar
    32   17   18 ar
    33   18   19 ar
    34   18   48 1
    35   19   20 ar
    36   19   49 1
    37   20   21 ar
    38   20   29 1
    39   21   22 ar
    40   21   23 1
    41   22   50 1
    42   23   27 1
    43   23   24 1
    44   24   25 1
    45   24   51 1
    46   24   52 1
    47   25   53 1
    48   25   54 1
    49   25   68 1
    50   26   27 1
    51   26   55 1
    52   26   56 1
    53   26   68 1
    54   27   57 1
    55   27   58 1
    56   28   59 1
    57   28   60 1
    58   28   61 1
    59   28   68 1
    60   29   30 1
    61   30   62 1
    62   30   63 1
    63   30   64 1
    64   31   35 1
    65   31   32 2
    66   32   33 1
    67   33   34 2
    68   34   35 1
    69   34   36 1
    70   36   65 1
    71   36   66 1
    72   36   67 1
    73   68   69 1
@<TRIPOS>MOLECULE
ZINC00077296
   41    43     0     0     0
SMALL
USER_CHARGES
2-(5-cyclohexyl-1H-indol-3-yl)ethanamine
@<TRIPOS>ATOM
      1 C1          0.1442   -0.2850    2.6932 C.ar      1 <0>        -0.0868
      2 C2          0.8074   -0.7624    3.8026 C.ar      1 <0>        -0.1187
      3 C3          1.3386    0.1305    4.7272 C.ar      1 <0>         0.0906
      4 C4          1.1898    1.5133    4.5143 C.ar      1 <0>        -0.0962
      5 C5          0.5186    1.9751    3.3808 C.ar      1 <0>        -0.0838
      6 C6          0.0000    1.0800    2.4877 C.ar      1 <0>        -0.0835
      7 C7         -0.7288    1.5792    1.2668 C.3       1 <0>        -0.0437
      8 C8         -0.0127    1.0858    0.0080 C.3       1 <0>        -0.1119
      9 C9         -0.7527    1.5927   -1.2315 C.3       1 <0>        -0.1208
     10 C10        -2.1881    1.0631   -1.2207 C.3       1 <0>        -0.1233
     11 C11        -2.9042    1.5565    0.0381 C.3       1 <0>        -0.1207
     12 C12        -2.1642    1.0497    1.2777 C.3       1 <0>        -0.1106
     13 C13         1.8475    2.1701    5.6465 C.2       1 <0>        -0.2092
     14 C14         2.3307    1.1988    6.4371 C.2       1 <0>         0.0850
     15 N1          2.0363   -0.0265    5.9039 N.pl3     1 <0>        -0.5878
     16 H1          2.2821   -0.8787    6.2965 H         1 <0>         0.4229
     17 C15         1.9609    3.6547    5.8792 C.3       1 <0>        -0.0613
     18 C16         0.6987    4.1588    6.5818 C.3       1 <0>        -0.0038
     19 H2         -0.2673   -0.9799    1.9761 H         1 <0>         0.1297
     20 H3          0.9148   -1.8264    3.9534 H         1 <0>         0.1251
     21 H4          0.4061    3.0359    3.2122 H         1 <0>         0.1165
     22 H5         -0.7436    2.6691    1.2728 H         1 <0>         0.0749
     23 H6          0.0021   -0.0041    0.0020 H         1 <0>         0.0652
     24 H7          1.0099    1.4631    0.0003 H         1 <0>         0.0624
     25 H8         -0.7675    2.6825   -1.2255 H         1 <0>         0.0613
     26 H9         -0.2425    1.2411   -2.1283 H         1 <0>         0.0649
     27 H10        -2.7153    1.4241   -2.1037 H         1 <0>         0.0636
     28 H11        -2.1733   -0.0268   -1.2266 H         1 <0>         0.0629
     29 H12        -2.9190    2.6464    0.0441 H         1 <0>         0.0609
     30 H13        -3.9268    1.1792    0.0459 H         1 <0>         0.0643
     31 H14        -2.6744    1.4012    2.1745 H         1 <0>         0.0606
     32 H15        -2.1494   -0.0402    1.2717 H         1 <0>         0.0652
     33 H16         2.8717    1.3605    7.3577 H         1 <0>         0.1722
     34 H17         2.8306    3.8592    6.5036 H         1 <0>         0.0907
     35 H18         2.0725    4.1649    4.9225 H         1 <0>         0.0915
     36 H19        -0.1710    3.9543    5.9573 H         1 <0>         0.1343
     37 H20         0.5871    3.6486    7.5385 H         1 <0>         0.1307
     38 H21         0.9781    6.0958    5.9427 H         1 <0>         0.4367
     39 H22        -0.0128    5.9632    7.2718 H         1 <0>         0.4395
     40 N2          0.8296    5.6064    6.8237 N.4       1 <0>        -0.6480
     41 H23         1.6336    5.7743    7.4399 H         1 <0>         0.4385
@<TRIPOS>BOND
     1    1    6 ar
     2    1    2 ar
     3    1   19 1
     4    2    3 ar
     5    2   20 1
     6    3   15 1
     7    3    4 ar
     8    4    5 ar
     9    4   13 1
    10    5    6 ar
    11    5   21 1
    12    6    7 1
    13    7   12 1
    14    7    8 1
    15    7   22 1
    16    8    9 1
    17    8   23 1
    18    8   24 1
    19    9   10 1
    20    9   25 1
    21    9   26 1
    22   10   11 1
    23   10   27 1
    24   10   28 1
    25   11   12 1
    26   11   29 1
    27   11   30 1
    28   12   31 1
    29   12   32 1
    30   13   14 2
    31   13   17 1
    32   14   15 1
    33   14   33 1
    34   15   16 1
    35   17   18 1
    36   17   34 1
    37   17   35 1
    38   18   36 1
    39   18   37 1
    40   18   40 1
    41   38   40 1
    42   39   40 1
    43   40   41 1
@<TRIPOS>MOLECULE
ZINC01487796
   65    68     0     0     0
SMALL
USER_CHARGES
4-[4-[[4-methoxy-3-(4-methylpiperazin-1-yl)-phenyl]carbamoyl]phenyl]-3-methyl-benzamide
@<TRIPOS>ATOM
      1 C1         -6.9537   -3.7022    1.5055 C.3       1 <0>        -0.1213
      2 C2         -7.1420   -4.7219    0.4120 C.ar      1 <0>        -0.0735
      3 C3         -8.3267   -5.4172    0.3157 C.ar      1 <0>        -0.0574
      4 C4         -8.5007   -6.3625   -0.6976 C.ar      1 <0>        -0.1260
      5 C5         -7.4726   -6.6018   -1.6127 C.ar      1 <0>        -0.0897
      6 C6         -6.2909   -5.9020   -1.5183 C.ar      1 <0>        -0.1049
      7 C7         -6.1158   -4.9614   -0.5023 C.ar      1 <0>        -0.0380
      8 C8         -4.8412   -4.2122   -0.3983 C.ar      1 <0>        -0.0113
      9 C9         -3.6261   -4.8980   -0.4133 C.ar      1 <0>        -0.1092
     10 C10        -2.4416   -4.2028   -0.3167 C.ar      1 <0>        -0.0502
     11 C11        -2.4565   -2.8105   -0.2036 C.ar      1 <0>        -0.1408
     12 C12        -3.6738   -2.1252   -0.1828 C.ar      1 <0>        -0.0844
     13 C13        -4.8571   -2.8216   -0.2849 C.ar      1 <0>        -0.1101
     14 C14        -1.1860   -2.0636   -0.0999 C.2       1 <0>         0.5633
     15 O1         -0.1271   -2.6608   -0.1130 O.2       1 <0>        -0.5112
     16 N1         -1.2009   -0.7204    0.0092 N.am      1 <0>        -0.6717
     17 C15         0.0025   -0.0047    0.0099 C.ar      1 <0>         0.1236
     18 C16         1.1327   -0.5476    0.6069 C.ar      1 <0>        -0.0637
     19 C17         2.3220    0.1567    0.6086 C.ar      1 <0>        -0.1816
     20 C18         2.3900    1.4061    0.0147 C.ar      1 <0>         0.1537
     21 C19         1.2584    1.9543   -0.5853 C.ar      1 <0>         0.0436
     22 C20         0.0656    1.2472   -0.5866 C.ar      1 <0>        -0.1332
     23 N2          1.3253    3.2168   -1.1854 N.pl3     1 <0>        -0.4788
     24 C21         0.4531    4.1758   -0.4931 C.3       1 <0>         0.0287
     25 C22         0.6148    5.5590   -1.1282 C.3       1 <0>         0.0032
     26 C23         1.1507    4.5226   -3.2489 C.3       1 <0>         0.0035
     27 C24         0.9890    3.1395   -2.6139 C.3       1 <0>         0.0281
     28 C25         0.3488    6.8069   -3.1865 C.3       1 <0>        -0.0406
     29 O2          3.5616    2.0982    0.0177 O.3       1 <0>        -0.2989
     30 C26         4.6811    1.4758    0.6512 C.3       1 <0>         0.0199
     31 C27        -9.7719   -7.1088   -0.8019 C.2       1 <0>         0.5607
     32 O3        -10.6664   -6.9000   -0.0057 O.2       1 <0>        -0.5349
     33 N3         -9.9395   -8.0209   -1.7799 N.am      1 <0>        -0.8492
     34 H1         -7.2866   -2.7259    1.1532 H         1 <0>         0.0754
     35 H2         -7.5392   -3.9926    2.3779 H         1 <0>         0.0739
     36 H3         -5.8992   -3.6505    1.7765 H         1 <0>         0.0722
     37 H4         -9.1211   -5.2314    1.0234 H         1 <0>         0.1418
     38 H5         -7.6063   -7.3329   -2.3963 H         1 <0>         0.1315
     39 H6         -5.4977   -6.0837   -2.2284 H         1 <0>         0.1339
     40 H7         -3.6147   -5.9743   -0.5011 H         1 <0>         0.1374
     41 H8         -1.5012   -4.7338   -0.3280 H         1 <0>         0.1422
     42 H9         -3.6864   -1.0492   -0.0906 H         1 <0>         0.1257
     43 H10        -5.7981   -2.2917   -0.2726 H         1 <0>         0.1358
     44 H11        -2.0453   -0.2494    0.0872 H         1 <0>         0.4104
     45 H12         1.0822   -1.5215    1.0709 H         1 <0>         0.1500
     46 H13         3.1996   -0.2680    1.0732 H         1 <0>         0.1428
     47 H14        -0.8119    1.6679   -1.0549 H         1 <0>         0.1279
     48 H15        -0.5844    3.8538   -0.5823 H         1 <0>         0.0614
     49 H16         0.7299    4.2246    0.5600 H         1 <0>         0.1241
     50 H17         1.6463    5.8927   -1.0149 H         1 <0>         0.1407
     51 H18        -0.0527    6.2658   -0.6352 H         1 <0>         0.1350
     52 H19         2.1883    4.8446   -3.1598 H         1 <0>         0.1408
     53 H20         0.8743    4.4738   -4.3021 H         1 <0>         0.1351
     54 H21         1.6565    2.4327   -3.1068 H         1 <0>         0.1241
     55 H22        -0.0423    2.8053   -2.7271 H         1 <0>         0.0617
     56 H23         0.0304    6.7323   -4.2263 H         1 <0>         0.1221
     57 H24        -0.3060    7.4971   -2.6546 H         1 <0>         0.1223
     58 H25         1.3741    7.1745   -3.1460 H         1 <0>         0.1244
     59 H26         4.4482    1.2897    1.6996 H         1 <0>         0.0592
     60 H27         4.9005    0.5307    0.1544 H         1 <0>         0.0594
     61 H28         5.5486    2.1322    0.5826 H         1 <0>         0.1053
     62 H29        -9.2257   -8.1875   -2.4152 H         1 <0>         0.4013
     63 H30       -10.7739   -8.5108   -1.8484 H         1 <0>         0.4085
     64 N4          0.2524    5.4719   -2.5584 N.4       1 <0>        -0.3993
     65 H31        -0.7142    5.1348   -2.6378 H         1 <0>         0.4254
@<TRIPOS>BOND
     1    1    2 1
     2    1   34 1
     3    1   35 1
     4    1   36 1
     5    2    7 ar
     6    2    3 ar
     7    3    4 ar
     8    3   37 1
     9    4    5 ar
    10    4   31 1
    11    5    6 ar
    12    5   38 1
    13    6    7 ar
    14    6   39 1
    15    7    8 1
    16    8   13 ar
    17    8    9 ar
    18    9   10 ar
    19    9   40 1
    20   10   11 ar
    21   10   41 1
    22   11   12 ar
    23   11   14 1
    24   12   13 ar
    25   12   42 1
    26   13   43 1
    27   14   15 2
    28   14   16 am
    29   16   17 1
    30   16   44 1
    31   17   22 ar
    32   17   18 ar
    33   18   19 ar
    34   18   45 1
    35   19   20 ar
    36   19   46 1
    37   20   21 ar
    38   20   29 1
    39   21   22 ar
    40   21   23 1
    41   22   47 1
    42   23   27 1
    43   23   24 1
    44   24   25 1
    45   24   48 1
    46   24   49 1
    47   25   50 1
    48   25   51 1
    49   25   64 1
    50   26   27 1
    51   26   52 1
    52   26   53 1
    53   26   64 1
    54   27   54 1
    55   27   55 1
    56   28   56 1
    57   28   57 1
    58   28   58 1
    59   28   64 1
    60   29   30 1
    61   30   59 1
    62   30   60 1
    63   30   61 1
    64   31   32 2
    65   31   33 am
    66   33   62 1
    67   33   63 1
    68   64   65 1
@<TRIPOS>MOLECULE
ZINC03963295
   67    70     0     0     0
SMALL
USER_CHARGES

@<TRIPOS>ATOM
      1 C1         -8.0158   -3.3220    2.6106 C.3       1 <0>        -0.1305
      2 C2         -7.7697   -4.2041    1.4137 C.ar      1 <0>        -0.0625
      3 C3         -8.7487   -5.0735    0.9861 C.ar      1 <0>        -0.0622
      4 C4         -8.5205   -5.8906   -0.1218 C.ar      1 <0>        -0.1504
      5 C5         -7.3001   -5.8266   -0.7964 C.ar      1 <0>        -0.0582
      6 C6         -6.3239   -4.9532   -0.3720 C.ar      1 <0>        -0.0969
      7 C7         -6.5502   -4.1404    0.7394 C.ar      1 <0>         0.0165
      8 C8         -5.4970   -3.2047    1.1997 C.ar      1 <0>        -0.0455
      9 C9         -4.1946   -3.6643    1.3987 C.ar      1 <0>        -0.0992
     10 C10        -3.2155   -2.7959    1.8263 C.ar      1 <0>        -0.0510
     11 C11        -3.5264   -1.4543    2.0611 C.ar      1 <0>        -0.1217
     12 C12        -4.8322   -0.9964    1.8672 C.ar      1 <0>        -0.0847
     13 C13        -5.8086   -1.8650    1.4344 C.ar      1 <0>        -0.1017
     14 C14        -2.4768   -0.5218    2.5199 C.2       1 <0>         0.5577
     15 O1         -1.3418   -0.9217    2.6932 O.2       1 <0>        -0.5040
     16 N1         -2.7771    0.7725    2.7463 N.am      1 <0>        -0.6689
     17 C15        -1.7623    1.6798    3.0736 C.ar      1 <0>         0.1201
     18 C16        -0.4919    1.5247    2.5343 C.ar      1 <0>        -0.0632
     19 C17         0.5117    2.4190    2.8558 C.ar      1 <0>        -0.1799
     20 C18         0.2532    3.4729    3.7166 C.ar      1 <0>         0.1571
     21 C19        -1.0198    3.6320    4.2598 C.ar      1 <0>         0.0460
     22 C20        -2.0262    2.7345    3.9367 C.ar      1 <0>        -0.1320
     23 N2         -1.2829    4.6966    5.1293 N.pl3     1 <0>        -0.4797
     24 C21        -1.6355    4.2072    6.4693 C.3       1 <0>         0.0297
     25 C22        -1.8372    5.3991    7.4080 C.3       1 <0>         0.0027
     26 C23        -2.5420    6.7570    5.5324 C.3       1 <0>         0.0027
     27 C24        -2.3404    5.5651    4.5937 C.3       1 <0>         0.0292
     28 C25        -3.1707    7.3852    7.7852 C.3       1 <0>        -0.0411
     29 O2          1.2423    4.3528    4.0313 O.3       1 <0>        -0.2972
     30 C26         2.5227    4.1292    3.4377 C.3       1 <0>         0.0191
     31 C27        -9.5725   -6.8247   -0.5819 C.cat     1 <0>         0.5990
     32 N3         -9.3470   -7.6316   -1.6760 N.pl3     1 <0>        -0.7786
     33 H1         -8.4540   -2.3792    2.2830 H         1 <0>         0.0854
     34 H2         -8.7001   -3.8220    3.2959 H         1 <0>         0.0788
     35 H3         -7.0713   -3.1267    3.1184 H         1 <0>         0.0824
     36 H4         -9.6929   -5.1225    1.5081 H         1 <0>         0.1390
     37 H5         -7.1232   -6.4590   -1.6540 H         1 <0>         0.1419
     38 H6         -5.3813   -4.9005   -0.8966 H         1 <0>         0.1513
     39 H7         -3.9543   -4.7013    1.2168 H         1 <0>         0.1393
     40 H8         -2.2077   -3.1519    1.9805 H         1 <0>         0.1474
     41 H9         -5.0744    0.0396    2.0527 H         1 <0>         0.1313
     42 H10        -6.8171   -1.5104    1.2809 H         1 <0>         0.1370
     43 H11        -3.6964    1.0754    2.6824 H         1 <0>         0.4095
     44 H12        -0.2878    0.7038    1.8628 H         1 <0>         0.1442
     45 H13         1.4987    2.2961    2.4350 H         1 <0>         0.1442
     46 H14        -3.0152    2.8583    4.3526 H         1 <0>         0.1279
     47 H15        -2.5572    3.6280    6.4140 H         1 <0>         0.0607
     48 H16        -0.8317    3.5768    6.8495 H         1 <0>         0.1243
     49 H17        -0.9075    5.9630    7.4847 H         1 <0>         0.1417
     50 H18        -2.1272    5.0396    8.3953 H         1 <0>         0.1357
     51 H19        -1.6203    7.3364    5.5877 H         1 <0>         0.1416
     52 H20        -3.3456    7.3877    5.1521 H         1 <0>         0.1357
     53 H21        -2.0503    5.9248    3.6065 H         1 <0>         0.1243
     54 H22        -3.2699    5.0012    4.5167 H         1 <0>         0.0605
     55 H23        -4.0024    7.9737    7.3980 H         1 <0>         0.1226
     56 H24        -3.4290    6.9950    8.7697 H         1 <0>         0.1228
     57 H25        -2.2854    8.0160    7.8654 H         1 <0>         0.1254
     58 H26         2.8959    3.1498    3.7370 H         1 <0>         0.0601
     59 H27         2.4315    4.1670    2.3522 H         1 <0>         0.0599
     60 H28         3.2174    4.9002    3.7710 H         1 <0>         0.1073
     61 H29       -11.4629   -7.4638   -0.1776 H         1 <0>         0.4459
     62 H30        -8.4989   -7.5874   -2.1448 H         1 <0>         0.4433
     63 H31       -10.0365   -8.2437   -1.9776 H         1 <0>         0.4329
     64 N4         -2.9176    6.2520    6.8699 N.4       1 <0>        -0.3990
     65 H32        -3.7745    5.6924    6.7869 H         1 <0>         0.4245
     66 N5        -10.7075   -6.8372    0.1005 N.pl3     1 <0>        -0.7592
     67 H33       -10.8270   -6.2163    0.9094 H         1 <0>         0.4593
@<TRIPOS>BOND
     1    1    2 1
     2    1   33 1
     3    1   34 1
     4    1   35 1
     5    2    7 ar
     6    2    3 ar
     7    3    4 ar
     8    3   36 1
     9    4    5 ar
    10    4   31 1
    11    5    6 ar
    12    5   37 1
    13    6    7 ar
    14    6   38 1
    15    7    8 1
    16    8   13 ar
    17    8    9 ar
    18    9   10 ar
    19    9   39 1
    20   10   11 ar
    21   10   40 1
    22   11   12 ar
    23   11   14 1
    24   12   13 ar
    25   12   41 1
    26   13   42 1
    27   14   15 2
    28   14   16 am
    29   16   17 1
    30   16   43 1
    31   17   22 ar
    32   17   18 ar
    33   18   19 ar
    34   18   44 1
    35   19   20 ar
    36   19   45 1
    37   20   21 ar
    38   20   29 1
    39   21   22 ar
    40   21   23 1
    41   22   46 1
    42   23   27 1
    43   23   24 1
    44   24   25 1
    45   24   47 1
    46   24   48 1
    47   25   49 1
    48   25   50 1
    49   25   64 1
    50   26   27 1
    51   26   51 1
    52   26   52 1
    53   26   64 1
    54   27   53 1
    55   27   54 1
    56   28   55 1
    57   28   56 1
    58   28   57 1
    59   28   64 1
    60   29   30 1
    61   30   58 1
    62   30   59 1
    63   30   60 1
    64   31   32 1
    65   31   66 2
    66   32   62 1
    67   32   63 1
    68   61   66 1
    69   64   65 1
    70   66   67 1
@<TRIPOS>MOLECULE
ZINC13782884
   34    35     0     0     0
SMALL
USER_CHARGES
2-(5-isopropyl-1H-indol-3-yl)ethanamine
@<TRIPOS>ATOM
      1 C1          3.6757    5.3702    4.6138 C.3       1 <0>        -0.1483
      2 C2          3.7539    4.4310    3.4085 C.3       1 <0>        -0.0541
      3 C3          5.2131    4.0476    3.1545 C.3       1 <0>        -0.1472
      4 C4          2.9491    3.1878    3.6875 C.ar      1 <0>        -0.0844
      5 C5          3.2803    2.3810    4.7677 C.ar      1 <0>        -0.0872
      6 C6          2.5580    1.2401    5.0400 C.ar      1 <0>        -0.1185
      7 C7          1.4854    0.8906    4.2259 C.ar      1 <0>         0.0903
      8 C8          1.1578    1.7080    3.1289 C.ar      1 <0>        -0.0968
      9 C9          1.8996    2.8634    2.8750 C.ar      1 <0>        -0.0846
     10 C10         0.0000    1.0800    2.4877 C.2       1 <0>        -0.2091
     11 C11        -0.2849   -0.0276    3.1905 C.2       1 <0>         0.0849
     12 N1          0.5921   -0.1571    4.2328 N.pl3     1 <0>        -0.5875
     13 H1          0.5858   -0.8797    4.8799 H         1 <0>         0.4230
     14 C12        -0.7288    1.5792    1.2668 C.3       1 <0>        -0.0613
     15 C13        -0.0127    1.0858    0.0080 C.3       1 <0>        -0.0038
     16 H2          4.0775    4.8670    5.4932 H         1 <0>         0.0586
     17 H3          4.2578    6.2694    4.4120 H         1 <0>         0.0615
     18 H4          2.6361    5.6434    4.7947 H         1 <0>         0.0560
     19 H5          3.3521    4.9342    2.5291 H         1 <0>         0.0751
     20 H6          5.2688    3.3784    2.2959 H         1 <0>         0.0542
     21 H7          5.7952    4.9468    2.9528 H         1 <0>         0.0614
     22 H8          5.6149    3.5443    4.0340 H         1 <0>         0.0587
     23 H9          4.1129    2.6504    5.4006 H         1 <0>         0.1302
     24 H10         2.8233    0.6192    5.8829 H         1 <0>         0.1255
     25 H11         1.6480    3.4956    2.0363 H         1 <0>         0.1169
     26 H12        -1.0874   -0.7147    2.9665 H         1 <0>         0.1724
     27 H13        -0.7436    2.6691    1.2728 H         1 <0>         0.0915
     28 H14        -1.7514    1.2020    1.2746 H         1 <0>         0.0909
     29 H15         0.0021   -0.0041    0.0020 H         1 <0>         0.1307
     30 H16         1.0099    1.4631    0.0003 H         1 <0>         0.1342
     31 H17        -0.8068    2.5779   -1.1674 H         1 <0>         0.4367
     32 H18        -0.2694    1.2597   -2.0273 H         1 <0>         0.4395
     33 N2         -0.7456    1.5611   -1.1787 N.4       1 <0>        -0.6480
     34 H19        -1.6942    1.1683   -1.1693 H         1 <0>         0.4385
@<TRIPOS>BOND
     1    1    2 1
     2    1   16 1
     3    1   17 1
     4    1   18 1
     5    2    3 1
     6    2    4 1
     7    2   19 1
     8    3   20 1
     9    3   21 1
    10    3   22 1
    11    4    9 ar
    12    4    5 ar
    13    5    6 ar
    14    5   23 1
    15    6    7 ar
    16    6   24 1
    17    7   12 1
    18    7    8 ar
    19    8    9 ar
    20    8   10 1
    21    9   25 1
    22   10   11 2
    23   10   14 1
    24   11   12 1
    25   11   26 1
    26   12   13 1
    27   14   15 1
    28   14   27 1
    29   14   28 1
    30   15   29 1
    31   15   30 1
    32   15   33 1
    33   31   33 1
    34   32   33 1
    35   33   34 1
@<TRIPOS>MOLECULE
ZINC29130869
   21    22     0     0     0
SMALL
USER_CHARGES

@<TRIPOS>ATOM
      1 C1         -0.0168    1.3851    0.0097 C.ar      1 <0>        -0.1114
      2 C2          1.1695    2.0923    0.0021 C.ar      1 <0>        -0.0557
      3 C3          2.3765    1.4166   -0.0142 C.ar      1 <0>        -0.0325
      4 C4          2.3977    0.0325   -0.0291 C.ar      1 <0>         0.0004
      5 C5          1.2119   -0.6819   -0.0241 C.ar      1 <0>        -0.1257
      6 C6          0.0021   -0.0041    0.0020 C.ar      1 <0>         0.1557
      7 N1         -1.2115   -0.7080    0.0366 N.pl3     1 <0>        -0.6439
      8 C7         -1.1703   -2.0782   -0.1764 C.cat     1 <0>         0.7629
      9 N2         -0.0513   -2.7297    0.3259 N.pl3     1 <0>        -0.7367
     10 C8          1.2613   -2.1888   -0.0559 C.3       1 <0>         0.1619
     11 N3         -2.1192   -2.7123   -0.8059 N.pl3     1 <0>        -0.7135
     12 Cl1         3.9156   -0.8096   -0.0547 Cl        1 <0>        -0.0101
     13 Cl2         3.8674    2.3060   -0.0167 Cl        1 <0>        -0.0128
     14 H1         -0.9593    1.9121    0.0260 H         1 <0>         0.1571
     15 H2          1.1549    3.1722    0.0086 H         1 <0>         0.1643
     16 H3         -2.0510   -0.2519    0.2042 H         1 <0>         0.4492
     17 H4          1.5138   -2.5230   -1.0622 H         1 <0>         0.1084
     18 H5          2.0175   -2.5425    0.6450 H         1 <0>         0.1321
     19 H6         -2.8871   -2.2251   -1.1432 H         1 <0>         0.4475
     20 H7         -0.1322   -3.5063    0.9014 H         1 <0>         0.4498
     21 H8         -2.0575   -3.6714   -0.9369 H         1 <0>         0.4529
@<TRIPOS>BOND
     1    1    6 ar
     2    1    2 ar
     3    1   14 1
     4    2    3 ar
     5    2   15 1
     6    3    4 ar
     7    3   13 1
     8    4    5 ar
     9    4   12 1
    10    5   10 1
    11    5    6 ar
    12    6    7 1
    13    7    8 1
    14    7   16 1
    15    8    9 1
    16    8   11 2
    17    9   10 1
    18    9   20 1
    19   10   17 1
    20   10   18 1
    21   11   19 1
    22   11   21 1
@<TRIPOS>MOLECULE
ZINC00598509
   69    73     0     0     0
SMALL
USER_CHARGES

@<TRIPOS>ATOM
      1 C1         -0.0258    1.5270    0.0085 C.3       1 <0>        -0.1204
      2 C2         -0.0148    0.0201   -0.0060 C.ar      1 <0>        -0.0705
      3 C3         -0.0163   -0.6573   -1.2055 C.ar      1 <0>        -0.0754
      4 C4         -0.0066   -2.0515   -1.2190 C.ar      1 <0>        -0.0242
      5 C5          0.0052   -2.7607   -0.0182 C.ar      1 <0>        -0.0676
      6 C6          0.0067   -2.0841    1.1813 C.ar      1 <0>        -0.1023
      7 C7          0.0028   -0.6889    1.1951 C.ar      1 <0>        -0.0393
      8 C8          0.0106    0.0396    2.4858 C.ar      1 <0>        -0.0090
      9 C9          0.9274    1.0696    2.6995 C.ar      1 <0>        -0.1104
     10 C10         0.9355    1.7469    3.8979 C.ar      1 <0>        -0.0527
     11 C11         0.0249    1.4029    4.9003 C.ar      1 <0>        -0.1436
     12 C12        -0.8930    0.3716    4.6852 C.ar      1 <0>        -0.0810
     13 C13        -0.9027   -0.3012    3.4843 C.ar      1 <0>        -0.1096
     14 C14         0.0330    2.1285    6.1867 C.2       1 <0>         0.5685
     15 O1          0.8322    3.0256    6.3736 O.2       1 <0>        -0.5263
     16 N1         -0.8455    1.7963    7.1533 N.am      1 <0>        -0.6684
     17 C15        -0.7752    2.4168    8.4065 C.ar      1 <0>         0.1156
     18 C16        -1.0739    1.6964    9.5555 C.ar      1 <0>        -0.0912
     19 C17        -1.0053    2.3066   10.7939 C.ar      1 <0>        -0.1823
     20 C18        -0.6379    3.6383   10.8923 C.ar      1 <0>         0.1184
     21 C19        -0.3370    4.3645    9.7420 C.ar      1 <0>         0.1285
     22 C20        -0.4014    3.7504    8.5005 C.ar      1 <0>        -0.0823
     23 N2          0.0344    5.7103    9.8398 N.pl3     1 <0>        -0.6622
     24 C21         1.4462    6.0965    9.9877 C.3       1 <0>         0.1226
     25 C22         1.7685    7.1688    8.9417 C.3       1 <0>        -0.0241
     26 N3          0.8189    8.2810    9.0738 N.4       1 <0>        -0.3816
     27 C23        -0.5392    7.8189    8.7603 C.3       1 <0>        -0.0238
     28 C24        -0.9753    6.7790    9.7916 C.3       1 <0>         0.1217
     29 C25         1.1947    9.3562    8.1460 C.3       1 <0>        -0.0465
     30 O2         -0.5714    4.2375   12.1123 O.3       1 <0>        -0.3095
     31 C26        -0.8936    3.4332   13.2486 C.3       1 <0>         0.0226
     32 C27        -0.0092   -2.7806   -2.5110 C.2       1 <0>         0.2941
     33 N4         -0.0061   -4.1179   -2.6574 N.2       1 <0>        -0.5422
     34 C28        -0.0098   -4.4281   -3.9223 C.2       1 <0>         0.2990
     35 O3         -0.0155   -3.2957   -4.6373 O.3       1 <0>        -0.1011
     36 N5         -0.0207   -2.2295   -3.6998 N.2       1 <0>        -0.3348
     37 C29        -0.0072   -5.8256   -4.4862 C.3       1 <0>        -0.0763
     38 H1          0.9991    1.8979    0.0015 H         1 <0>         0.0767
     39 H2         -0.5515    1.8949   -0.8727 H         1 <0>         0.0725
     40 H3         -0.5331    1.8780    0.9071 H         1 <0>         0.0725
     41 H4         -0.0254   -0.1084   -2.1356 H         1 <0>         0.1368
     42 H5          0.0127   -3.8406   -0.0290 H         1 <0>         0.1439
     43 H6          0.0151   -2.6334    2.1112 H         1 <0>         0.1367
     44 H7          1.6311    1.3354    1.9245 H         1 <0>         0.1371
     45 H8          1.6456    2.5436    4.0634 H         1 <0>         0.1389
     46 H9         -1.5969    0.1047    5.4596 H         1 <0>         0.1288
     47 H10        -1.6146   -1.0958    3.3164 H         1 <0>         0.1367
     48 H11        -1.5264    1.1274    6.9808 H         1 <0>         0.4139
     49 H12        -1.3606    0.6578    9.4814 H         1 <0>         0.1355
     50 H13        -1.2388    1.7442   11.6858 H         1 <0>         0.1396
     51 H14        -0.1650    4.3099    7.6075 H         1 <0>         0.1464
     52 H15         1.6134    6.4978   10.9872 H         1 <0>         0.0784
     53 H16         2.0827    5.2261    9.8280 H         1 <0>         0.1141
     54 H17         2.7826    7.5363    9.0985 H         1 <0>         0.1357
     55 H18         1.6879    6.7387    7.9435 H         1 <0>         0.1311
     56 H19        -1.2255    8.6654    8.7834 H         1 <0>         0.1359
     57 H20        -0.5499    7.3691    7.7675 H         1 <0>         0.1289
     58 H21        -1.9389    6.3598    9.5024 H         1 <0>         0.1131
     59 H22        -1.0567    7.2504   10.7710 H         1 <0>         0.0785
     60 H23         1.1728    8.9783    7.1239 H         1 <0>         0.1203
     61 H24         0.4905   10.1825    8.2431 H         1 <0>         0.1231
     62 H25         2.1997    9.7056    8.3828 H         1 <0>         0.1234
     63 H26        -1.9166    3.0682   13.1570 H         1 <0>         0.0587
     64 H27        -0.2091    2.5866   13.3004 H         1 <0>         0.0586
     65 H28        -0.8011    4.0313   14.1551 H         1 <0>         0.1033
     66 H29        -1.0342   -6.1660   -4.6183 H         1 <0>         0.1108
     67 H30         0.5031   -5.8278   -5.4494 H         1 <0>         0.1032
     68 H31         0.5115   -6.4939   -3.7988 H         1 <0>         0.1112
     69 H32         0.8435    8.6322   10.0194 H         1 <0>         0.4235
@<TRIPOS>BOND
     1    1    2 1
     2    1   38 1
     3    1   39 1
     4    1   40 1
     5    2    7 ar
     6    2    3 ar
     7    3    4 ar
     8    3   41 1
     9    4    5 ar
    10    4   32 1
    11    5    6 ar
    12    5   42 1
    13    6    7 ar
    14    6   43 1
    15    7    8 1
    16    8   13 ar
    17    8    9 ar
    18    9   10 ar
    19    9   44 1
    20   10   11 ar
    21   10   45 1
    22   11   12 ar
    23   11   14 1
    24   12   13 ar
    25   12   46 1
    26   13   47 1
    27   14   15 2
    28   14   16 am
    29   16   17 1
    30   16   48 1
    31   17   22 ar
    32   17   18 ar
    33   18   19 ar
    34   18   49 1
    35   19   20 ar
    36   19   50 1
    37   20   21 ar
    38   20   30 1
    39   21   22 ar
    40   21   23 1
    41   22   51 1
    42   23   28 1
    43   23   24 1
    44   24   25 1
    45   24   52 1
    46   24   53 1
    47   25   26 1
    48   25   54 1
    49   25   55 1
    50   26   27 1
    51   26   29 1
    52   26   69 1
    53   27   28 1
    54   27   56 1
    55   27   57 1
    56   28   58 1
    57   28   59 1
    58   29   60 1
    59   29   61 1
    60   29   62 1
    61   30   31 1
    62   31   63 1
    63   31   64 1
    64   31   65 1
    65   32   36 2
    66   32   33 1
    67   33   34 2
    68   34   35 1
    69   34   37 1
    70   35   36 1
    71   37   66 1
    72   37   67 1
    73   37   68 1
@<TRIPOS>MOLECULE
ZINC00598509
   68    72     0     0     0
SMALL
USER_CHARGES

@<TRIPOS>ATOM
      1 C1         -0.0258    1.5270    0.0085 C.3       1 <0>        -0.1214
      2 C2         -0.0148    0.0201   -0.0060 C.ar      1 <0>        -0.0708
      3 C3         -0.0163   -0.6573   -1.2055 C.ar      1 <0>        -0.0750
      4 C4         -0.0066   -2.0515   -1.2190 C.ar      1 <0>        -0.0302
      5 C5          0.0052   -2.7607   -0.0182 C.ar      1 <0>        -0.0680
      6 C6          0.0067   -2.0841    1.1813 C.ar      1 <0>        -0.1041
      7 C7          0.0028   -0.6889    1.1951 C.ar      1 <0>        -0.0311
      8 C8          0.0106    0.0396    2.4858 C.ar      1 <0>        -0.0198
      9 C9          0.9274    1.0696    2.6995 C.ar      1 <0>        -0.1090
     10 C10         0.9355    1.7469    3.8979 C.ar      1 <0>        -0.0544
     11 C11         0.0249    1.4029    4.9003 C.ar      1 <0>        -0.1327
     12 C12        -0.8930    0.3716    4.6852 C.ar      1 <0>        -0.0832
     13 C13        -0.9027   -0.3012    3.4843 C.ar      1 <0>        -0.1096
     14 C14         0.0330    2.1285    6.1867 C.2       1 <0>         0.5586
     15 O1          0.8322    3.0256    6.3736 O.2       1 <0>        -0.5148
     16 N1         -0.8455    1.7963    7.1533 N.am      1 <0>        -0.6663
     17 C15        -0.7752    2.4168    8.4065 C.ar      1 <0>         0.1085
     18 C16        -1.0739    1.6964    9.5555 C.ar      1 <0>        -0.1051
     19 C17        -1.0053    2.3066   10.7939 C.ar      1 <0>        -0.1878
     20 C18        -0.6379    3.6383   10.8923 C.ar      1 <0>         0.1109
     21 C19        -0.3370    4.3645    9.7420 C.ar      1 <0>         0.1576
     22 C20        -0.4014    3.7504    8.5005 C.ar      1 <0>        -0.0854
     23 N2          0.0344    5.7103    9.8398 N.pl3     1 <0>        -0.6665
     24 C21         1.4463    6.0949    9.9877 C.3       1 <0>         0.1544
     25 C22         1.7758    7.1536    8.9299 C.3       1 <0>         0.0391
     26 N3          0.8161    8.2608    9.0345 N.3       1 <0>        -0.5401
     27 C23        -0.5519    7.8093    8.7473 C.3       1 <0>         0.0391
     28 C24        -0.9762    6.7778    9.7914 C.3       1 <0>         0.1537
     29 C25         1.1986    9.3738    8.1553 C.3       1 <0>         0.0248
     30 O2         -0.5714    4.2375   12.1123 O.3       1 <0>        -0.3021
     31 C26        -0.8936    3.4332   13.2486 C.3       1 <0>         0.0247
     32 C27        -0.0092   -2.7806   -2.5110 C.2       1 <0>         0.2973
     33 N4         -0.0061   -4.1179   -2.6574 N.2       1 <0>        -0.5412
     34 C28        -0.0098   -4.4281   -3.9223 C.2       1 <0>         0.2959
     35 O3         -0.0155   -3.2957   -4.6373 O.3       1 <0>        -0.1032
     36 N5         -0.0207   -2.2295   -3.6998 N.2       1 <0>        -0.3355
     37 C29        -0.0072   -5.8256   -4.4862 C.3       1 <0>        -0.0751
     38 H1          0.9991    1.8979    0.0015 H         1 <0>         0.0772
     39 H2         -0.5515    1.8949   -0.8727 H         1 <0>         0.0715
     40 H3         -0.5331    1.8780    0.9071 H         1 <0>         0.0747
     41 H4         -0.0254   -0.1084   -2.1356 H         1 <0>         0.1357
     42 H5          0.0127   -3.8406   -0.0290 H         1 <0>         0.1424
     43 H6          0.0151   -2.6334    2.1112 H         1 <0>         0.1367
     44 H7          1.6311    1.3354    1.9245 H         1 <0>         0.1356
     45 H8          1.6456    2.5436    4.0634 H         1 <0>         0.1407
     46 H9         -1.5969    0.1047    5.4596 H         1 <0>         0.1292
     47 H10        -1.6146   -1.0958    3.3164 H         1 <0>         0.1344
     48 H11        -1.5264    1.1274    6.9808 H         1 <0>         0.4094
     49 H12        -1.3606    0.6578    9.4814 H         1 <0>         0.1286
     50 H13        -1.2388    1.7442   11.6858 H         1 <0>         0.1335
     51 H14        -0.1650    4.3099    7.6075 H         1 <0>         0.1447
     52 H15         1.6110    6.5079   10.9829 H         1 <0>         0.0585
     53 H16         2.0811    5.2210    9.8412 H         1 <0>         0.0698
     54 H17         2.7853    7.5303    9.0945 H         1 <0>         0.0791
     55 H18         1.7107    6.7084    7.9371 H         1 <0>         0.0368
     56 H19        -1.2306    8.6616    8.7795 H         1 <0>         0.0795
     57 H20        -0.5846    7.3549    7.7570 H         1 <0>         0.0337
     58 H21        -1.9422    6.3551    9.5153 H         1 <0>         0.0687
     59 H22        -1.0488    7.2577   10.7674 H         1 <0>         0.0589
     60 H23         1.2227    9.0286    7.1217 H         1 <0>         0.0236
     61 H24         0.4714   10.1799    8.2523 H         1 <0>         0.0677
     62 H25         2.1856    9.7387    8.4396 H         1 <0>         0.0684
     63 H26        -0.8011    4.0313   14.1551 H         1 <0>         0.0991
     64 H27        -1.9166    3.0682   13.1570 H         1 <0>         0.0537
     65 H28        -0.2091    2.5866   13.3004 H         1 <0>         0.0536
     66 H29        -1.0342   -6.1660   -4.6183 H         1 <0>         0.1097
     67 H30         0.5031   -5.8278   -5.4494 H         1 <0>         0.1021
     68 H31         0.5115   -6.4939   -3.7988 H         1 <0>         0.1106
@<TRIPOS>BOND
     1    1    2 1
     2    1   38 1
     3    1   39 1
     4    1   40 1
     5    2    7 ar
     6    2    3 ar
     7    3    4 ar
     8    3   41 1
     9    4    5 ar
    10    4   32 1
    11    5    6 ar
    12    5   42 1
    13    6    7 ar
    14    6   43 1
    15    7    8 1
    16    8   13 ar
    17    8    9 ar
    18    9   10 ar
    19    9   44 1
    20   10   11 ar
    21   10   45 1
    22   11   12 ar
    23   11   14 1
    24   12   13 ar
    25   12   46 1
    26   13   47 1
    27   14   15 2
    28   14   16 am
    29   16   17 1
    30   16   48 1
    31   17   22 ar
    32   17   18 ar
    33   18   19 ar
    34   18   49 1
    35   19   20 ar
    36   19   50 1
    37   20   21 ar
    38   20   30 1
    39   21   22 ar
    40   21   23 1
    41   22   51 1
    42   23   28 1
    43   23   24 1
    44   24   25 1
    45   24   52 1
    46   24   53 1
    47   25   26 1
    48   25   54 1
    49   25   55 1
    50   26   27 1
    51   26   29 1
    52   27   28 1
    53   27   56 1
    54   27   57 1
    55   28   58 1
    56   28   59 1
    57   29   60 1
    58   29   61 1
    59   29   62 1
    60   30   31 1
    61   31   63 1
    62   31   64 1
    63   31   65 1
    64   32   36 2
    65   32   33 1
    66   33   34 2
    67   34   35 1
    68   34   37 1
    69   35   36 1
    70   37   66 1
    71   37   67 1
    72   37   68 1
@<TRIPOS>MOLECULE
ZINC34451922
   61    65     0     0     0
SMALL
USER_CHARGES

@<TRIPOS>ATOM
      1 C1         -0.0312    1.4376    0.0625 C.3       1 <0>        -0.1149
      2 C2         -0.0229   -0.0693    0.0447 C.ar      1 <0>         0.1665
      3 C3         -0.0155   -0.7327   -1.1794 C.ar      1 <0>        -0.1630
      4 C4         -0.0074   -2.0992   -1.2143 C.ar      1 <0>        -0.0625
      5 C5         -0.0068   -2.7940    0.0070 C.ar      1 <0>        -0.1089
      6 C6         -0.0145   -2.0581    1.2176 C.ar      1 <0>         0.1381
      7 N1         -0.0173   -0.7211    1.1825 N.ar      1 <0>        -0.4673
      8 C7         -0.0139   -2.7495    2.4406 C.ar      1 <0>        -0.0799
      9 C8         -0.0055   -4.1115    2.4546 C.ar      1 <0>        -0.0967
     10 C9          0.0026   -4.8435    1.2722 C.ar      1 <0>        -0.1038
     11 C10         0.0018   -4.2041    0.0495 C.ar      1 <0>         0.1607
     12 N2          0.0100   -4.9428   -1.1301 N.pl3     1 <0>        -0.6732
     13 C11         1.2761   -5.3417   -1.7641 C.3       1 <0>         0.1189
     14 C12         1.2238   -4.9473   -3.2438 C.3       1 <0>        -0.0255
     15 N3          0.0263   -5.5297   -3.8626 N.4       1 <0>        -0.3804
     16 C13        -1.1805   -4.9526   -3.2570 C.3       1 <0>        -0.0322
     17 C14        -1.2473   -5.3521   -1.7749 C.3       1 <0>         0.1198
     18 C15         0.0336   -5.2439   -5.3035 C.3       1 <0>        -0.0072
     19 C16        -1.1461   -5.9543   -5.9703 C.3       1 <0>        -0.0971
     20 C17        -1.1386   -5.6610   -7.4485 C.ar      1 <0>        -0.0776
     21 C18        -1.8170   -4.5596   -7.9377 C.ar      1 <0>        -0.1386
     22 C19        -1.8126   -4.2871   -9.2931 C.ar      1 <0>        -0.0804
     23 C20        -1.1300   -5.1148  -10.1632 C.ar      1 <0>        -0.1434
     24 C21        -0.4479   -6.2214   -9.6753 C.ar      1 <0>         0.2020
     25 C22        -0.4497   -6.4892   -8.3125 C.ar      1 <0>        -0.1555
     26 N4          0.2445   -7.0619  -10.5542 N.am      1 <0>        -0.5742
     27 C23         1.0949   -8.1943  -10.1579 C.3       1 <0>         0.0857
     28 C24         1.6017   -8.7621  -11.4979 C.3       1 <0>         0.0889
     29 N5          0.9830   -7.8894  -12.5069 N.am      1 <0>        -0.7318
     30 C25         0.2334   -6.9663  -11.8902 C.2       1 <0>         0.6994
     31 O1         -0.3969   -6.1161  -12.4888 O.2       1 <0>        -0.5594
     32 H1          0.9944    1.8066    0.0650 H         1 <0>         0.0861
     33 H2         -0.5487    1.8085   -0.8223 H         1 <0>         0.0802
     34 H3         -0.5455    1.7876    0.9576 H         1 <0>         0.0841
     35 H4         -0.0165   -0.1684   -2.1002 H         1 <0>         0.1388
     36 H5         -0.0019   -2.6302   -2.1547 H         1 <0>         0.1232
     37 H6         -0.0198   -2.2006    3.3707 H         1 <0>         0.1418
     38 H7         -0.0048   -4.6322    3.4007 H         1 <0>         0.1381
     39 H8          0.0096   -5.9228    1.3114 H         1 <0>         0.1308
     40 H9          2.1065   -4.8299   -1.2777 H         1 <0>         0.1163
     41 H10         1.4054   -6.4205   -1.6769 H         1 <0>         0.0826
     42 H11         1.1855   -3.8614   -3.3293 H         1 <0>         0.1284
     43 H12         2.1133   -5.3208   -3.7511 H         1 <0>         0.1390
     44 H13        -1.1461   -3.8665   -3.3421 H         1 <0>         0.1294
     45 H14        -2.0627   -5.3301   -3.7741 H         1 <0>         0.1406
     46 H15        -1.3685   -6.4320   -1.6889 H         1 <0>         0.0832
     47 H16        -2.0861   -4.8472   -1.2958 H         1 <0>         0.1162
     48 H17        -0.0535   -4.1688   -5.4611 H         1 <0>         0.1311
     49 H18         0.9665   -5.6007   -5.7400 H         1 <0>         0.1329
     50 H19        -1.0590   -7.0293   -5.8127 H         1 <0>         0.0951
     51 H20        -2.0789   -5.5974   -5.5338 H         1 <0>         0.0966
     52 H21        -2.3517   -3.9111   -7.2594 H         1 <0>         0.1244
     53 H22        -2.3436   -3.4264   -9.6721 H         1 <0>         0.1341
     54 H23        -1.1272   -4.9017  -11.2220 H         1 <0>         0.1632
     55 H24         0.0839   -7.3464   -7.9293 H         1 <0>         0.1261
     56 H25         1.9301   -7.8505   -9.5478 H         1 <0>         0.0916
     57 H26         0.5107   -8.9423   -9.6219 H         1 <0>         0.0922
     58 H27         2.6885   -8.7002  -11.5531 H         1 <0>         0.0930
     59 H28         1.2691   -9.7921  -11.6273 H         1 <0>         0.0930
     60 H29         1.0964   -7.9716  -13.4667 H         1 <0>         0.4388
     61 H30         0.0277   -6.5286   -3.7203 H         1 <0>         0.4226
@<TRIPOS>BOND
     1    1    2 1
     2    1   32 1
     3    1   33 1
     4    1   34 1
     5    2    7 ar
     6    2    3 ar
     7    3    4 ar
     8    3   35 1
     9    4    5 ar
    10    4   36 1
    11    5   11 ar
    12    5    6 ar
    13    6    7 ar
    14    6    8 ar
    15    8    9 ar
    16    8   37 1
    17    9   10 ar
    18    9   38 1
    19   10   11 ar
    20   10   39 1
    21   11   12 1
    22   12   17 1
    23   12   13 1
    24   13   14 1
    25   13   40 1
    26   13   41 1
    27   14   15 1
    28   14   42 1
    29   14   43 1
    30   15   16 1
    31   15   18 1
    32   15   61 1
    33   16   17 1
    34   16   44 1
    35   16   45 1
    36   17   46 1
    37   17   47 1
    38   18   19 1
    39   18   48 1
    40   18   49 1
    41   19   20 1
    42   19   50 1
    43   19   51 1
    44   20   25 ar
    45   20   21 ar
    46   21   22 ar
    47   21   52 1
    48   22   23 ar
    49   22   53 1
    50   23   24 ar
    51   23   54 1
    52   24   25 ar
    53   24   26 1
    54   25   55 1
    55   26   30 am
    56   26   27 1
    57   27   28 1
    58   27   56 1
    59   27   57 1
    60   28   29 1
    61   28   58 1
    62   28   59 1
    63   29   30 am
    64   29   60 1
    65   30   31 2
@<TRIPOS>MOLECULE
ZINC34451922
   60    64     0     0     0
SMALL
USER_CHARGES

@<TRIPOS>ATOM
      1 C1         -0.0321    1.4340    0.0669 C.3       1 <0>        -0.1087
      2 C2         -0.0231   -0.0728    0.0484 C.ar      1 <0>         0.1614
      3 C3         -0.0155   -0.7357   -1.1761 C.ar      1 <0>        -0.1790
      4 C4         -0.0069   -2.1021   -1.2116 C.ar      1 <0>        -0.0439
      5 C5         -0.0060   -2.7975    0.0093 C.ar      1 <0>        -0.1162
      6 C6         -0.0140   -2.0623    1.2203 C.ar      1 <0>         0.1383
      7 N1         -0.0173   -0.7252    1.1858 N.ar      1 <0>        -0.4780
      8 C7         -0.0131   -2.7542    2.4430 C.ar      1 <0>        -0.1017
      9 C8         -0.0042   -4.1162    2.4563 C.ar      1 <0>        -0.0895
     10 C9          0.0042   -4.8477    1.2736 C.ar      1 <0>        -0.1280
     11 C10         0.0032   -4.2076    0.0512 C.ar      1 <0>         0.1972
     12 N2          0.0115   -4.9458   -1.1288 N.pl3     1 <0>        -0.6786
     13 C11         1.2784   -5.3431   -1.7618 C.3       1 <0>         0.1496
     14 C12         1.2359   -4.9304   -3.2369 C.3       1 <0>         0.0396
     15 N3          0.0281   -5.4851   -3.8627 N.3       1 <0>        -0.5337
     16 C13        -1.1893   -4.9364   -3.2504 C.3       1 <0>         0.0347
     17 C14        -1.2462   -5.3545   -1.7725 C.3       1 <0>         0.1493
     18 C15         0.0356   -5.2584   -5.3140 C.3       1 <0>         0.0625
     19 C16        -1.0979   -6.0570   -5.9608 C.3       1 <0>        -0.0749
     20 C17        -1.0902   -5.8244   -7.4498 C.ar      1 <0>        -0.0542
     21 C18        -1.8204   -4.7814   -7.9898 C.ar      1 <0>        -0.1431
     22 C19        -1.8159   -4.5647   -9.3553 C.ar      1 <0>        -0.0866
     23 C20        -1.0816   -5.3899  -10.1846 C.ar      1 <0>        -0.1581
     24 C21        -0.3474   -6.4379   -9.6456 C.ar      1 <0>         0.1910
     25 C22        -0.3495   -6.6495   -8.2729 C.ar      1 <0>        -0.1551
     26 N4          0.3976   -7.2758  -10.4831 N.am      1 <0>        -0.5709
     27 C23         1.3021   -8.3444  -10.0332 C.3       1 <0>         0.0845
     28 C24         1.8522   -8.9388  -11.3442 C.3       1 <0>         0.0912
     29 N5          1.1993   -8.1420  -12.3936 N.am      1 <0>        -0.7361
     30 C25         0.3956   -7.2356  -11.8220 C.2       1 <0>         0.6995
     31 O1         -0.2721   -6.4452  -12.4605 O.2       1 <0>        -0.5652
     32 H1          0.9934    1.8035    0.0696 H         1 <0>         0.0813
     33 H2         -0.5496    1.8052   -0.8177 H         1 <0>         0.0768
     34 H3         -0.5465    1.7834    0.9621 H         1 <0>         0.0795
     35 H4         -0.0168   -0.1709   -2.0966 H         1 <0>         0.1342
     36 H5         -0.0012   -2.6326   -2.1523 H         1 <0>         0.1348
     37 H6         -0.0192   -2.2057    3.3733 H         1 <0>         0.1347
     38 H7         -0.0032   -4.6373    3.4022 H         1 <0>         0.1312
     39 H8          0.0116   -5.9269    1.3122 H         1 <0>         0.1282
     40 H9          2.1089   -4.8415   -1.2650 H         1 <0>         0.0717
     41 H10         1.4019   -6.4235   -1.6872 H         1 <0>         0.0627
     42 H11         1.2167   -3.8430   -3.3100 H         1 <0>         0.0346
     43 H12         2.1191   -5.3142   -3.7476 H         1 <0>         0.0822
     44 H13        -1.1747   -3.8489   -3.3233 H         1 <0>         0.0351
     45 H14        -2.0649   -5.3244   -3.7708 H         1 <0>         0.0854
     46 H15        -1.3606   -6.4360   -1.6990 H         1 <0>         0.0631
     47 H16        -2.0854   -4.8605   -1.2829 H         1 <0>         0.0716
     48 H17        -0.1062   -4.1968   -5.5167 H         1 <0>         0.0355
     49 H18         0.9905   -5.5828   -5.7275 H         1 <0>         0.0763
     50 H19        -0.9561   -7.1185   -5.7582 H         1 <0>         0.0819
     51 H20        -2.0528   -5.7326   -5.5474 H         1 <0>         0.0744
     52 H21        -2.3957   -4.1350   -7.3435 H         1 <0>         0.1206
     53 H22        -2.3875   -3.7496   -9.7740 H         1 <0>         0.1267
     54 H23        -1.0788   -5.2204  -11.2512 H         1 <0>         0.1568
     55 H24         0.2243   -7.4609   -7.8501 H         1 <0>         0.1245
     56 H25         2.1115   -7.9321   -9.4307 H         1 <0>         0.0924
     57 H26         0.7524   -9.0998   -9.4716 H         1 <0>         0.0923
     58 H27         2.9348   -8.8217  -11.3927 H         1 <0>         0.0897
     59 H28         1.5757   -9.9893  -11.4336 H         1 <0>         0.0895
     60 H29         1.3270   -8.2573  -13.3482 H         1 <0>         0.4348
@<TRIPOS>BOND
     1    1    2 1
     2    1   32 1
     3    1   33 1
     4    1   34 1
     5    2    7 ar
     6    2    3 ar
     7    3    4 ar
     8    3   35 1
     9    4    5 ar
    10    4   36 1
    11    5   11 ar
    12    5    6 ar
    13    6    7 ar
    14    6    8 ar
    15    8    9 ar
    16    8   37 1
    17    9   10 ar
    18    9   38 1
    19   10   11 ar
    20   10   39 1
    21   11   12 1
    22   12   17 1
    23   12   13 1
    24   13   14 1
    25   13   40 1
    26   13   41 1
    27   14   15 1
    28   14   42 1
    29   14   43 1
    30   15   16 1
    31   15   18 1
    32   16   17 1
    33   16   44 1
    34   16   45 1
    35   17   46 1
    36   17   47 1
    37   18   19 1
    38   18   48 1
    39   18   49 1
    40   19   20 1
    41   19   50 1
    42   19   51 1
    43   20   25 ar
    44   20   21 ar
    45   21   22 ar
    46   21   52 1
    47   22   23 ar
    48   22   53 1
    49   23   24 ar
    50   23   54 1
    51   24   25 ar
    52   24   26 1
    53   25   55 1
    54   26   30 am
    55   26   27 1
    56   27   28 1
    57   27   56 1
    58   27   57 1
    59   28   29 1
    60   28   58 1
    61   28   59 1
    62   29   30 am
    63   29   60 1
    64   30   31 2
@<TRIPOS>MOLECULE
ZINC34451922
   62    66     0     0     0
SMALL
USER_CHARGES

@<TRIPOS>ATOM
      1 C1         -0.0312    1.4376    0.0625 C.3       1 <0>        -0.1610
      2 C2         -0.0229   -0.0693    0.0447 C.ar      1 <0>         0.2542
      3 C3         -0.0155   -0.7327   -1.1794 C.ar      1 <0>        -0.1670
      4 C4         -0.0074   -2.0992   -1.2143 C.ar      1 <0>         0.0386
      5 C5         -0.0068   -2.7940    0.0070 C.ar      1 <0>        -0.0964
      6 C6         -0.0145   -2.0581    1.2176 C.ar      1 <0>         0.1451
      7 N1         -0.0173   -0.7211    1.1825 N.ar      1 <0>        -0.4584
      8 C7         -0.0139   -2.7495    2.4406 C.ar      1 <0>        -0.1305
      9 C8         -0.0055   -4.1115    2.4546 C.ar      1 <0>        -0.0263
     10 C9          0.0026   -4.8435    1.2722 C.ar      1 <0>        -0.0895
     11 C10         0.0018   -4.2041    0.0495 C.ar      1 <0>         0.2051
     12 N2          0.0100   -4.9428   -1.1301 N.pl3     1 <0>        -0.6830
     13 C11         1.2761   -5.3417   -1.7641 C.3       1 <0>         0.1133
     14 C12         1.2238   -4.9473   -3.2438 C.3       1 <0>        -0.0251
     15 N3          0.0263   -5.5297   -3.8626 N.4       1 <0>        -0.3836
     16 C13        -1.1805   -4.9526   -3.2570 C.3       1 <0>        -0.0322
     17 C14        -1.2473   -5.3521   -1.7749 C.3       1 <0>         0.1142
     18 C15         0.0336   -5.2439   -5.3035 C.3       1 <0>        -0.0083
     19 C16        -1.1461   -5.9543   -5.9703 C.3       1 <0>        -0.0958
     20 C17        -1.1386   -5.6610   -7.4485 C.ar      1 <0>        -0.0824
     21 C18        -1.8170   -4.5596   -7.9377 C.ar      1 <0>        -0.1409
     22 C19        -1.8126   -4.2871   -9.2931 C.ar      1 <0>        -0.0796
     23 C20        -1.1300   -5.1148  -10.1632 C.ar      1 <0>        -0.1415
     24 C21        -0.4479   -6.2214   -9.6753 C.ar      1 <0>         0.2063
     25 C22        -0.4497   -6.4892   -8.3125 C.ar      1 <0>        -0.1564
     26 N4          0.2445   -7.0619  -10.5542 N.am      1 <0>        -0.5752
     27 C23         1.0949   -8.1943  -10.1579 C.3       1 <0>         0.0862
     28 C24         1.6017   -8.7621  -11.4979 C.3       1 <0>         0.0880
     29 N5          0.9830   -7.8894  -12.5069 N.am      1 <0>        -0.7302
     30 C25         0.2334   -6.9663  -11.8902 C.2       1 <0>         0.6992
     31 O1         -0.3969   -6.1161  -12.4888 O.2       1 <0>        -0.5578
     32 H1          0.9944    1.8066    0.0650 H         1 <0>         0.1292
     33 H2         -0.5487    1.8085   -0.8223 H         1 <0>         0.1262
     34 H3         -0.5455    1.7876    0.9576 H         1 <0>         0.1073
     35 H4         -0.0165   -0.1684   -2.1002 H         1 <0>         0.1869
     36 H5         -0.0019   -2.6302   -2.1547 H         1 <0>         0.1595
     37 H6         -0.0198   -2.2006    3.3707 H         1 <0>         0.1627
     38 H7         -0.0048   -4.6322    3.4007 H         1 <0>         0.1641
     39 H8          0.0096   -5.9228    1.3114 H         1 <0>         0.1565
     40 H9          2.1065   -4.8299   -1.2777 H         1 <0>         0.1196
     41 H10         1.4054   -6.4205   -1.6769 H         1 <0>         0.0952
     42 H11         1.1855   -3.8614   -3.3293 H         1 <0>         0.1261
     43 H12         2.1133   -5.3208   -3.7511 H         1 <0>         0.1471
     44 H13        -1.1461   -3.8665   -3.3421 H         1 <0>         0.1272
     45 H14        -2.0627   -5.3301   -3.7741 H         1 <0>         0.1488
     46 H15        -1.3685   -6.4320   -1.6889 H         1 <0>         0.0958
     47 H16        -2.0861   -4.8472   -1.2958 H         1 <0>         0.1195
     48 H17        -0.0535   -4.1688   -5.4611 H         1 <0>         0.1321
     49 H18         0.9665   -5.6007   -5.7400 H         1 <0>         0.1368
     50 H19        -1.0590   -7.0293   -5.8127 H         1 <0>         0.0966
     51 H20        -2.0789   -5.5974   -5.5338 H         1 <0>         0.0955
     52 H21        -2.3517   -3.9111   -7.2594 H         1 <0>         0.1224
     53 H22        -2.3436   -3.4264   -9.6721 H         1 <0>         0.1347
     54 H23        -1.1272   -4.9017  -11.2220 H         1 <0>         0.1647
     55 H24         0.0839   -7.3464   -7.9293 H         1 <0>         0.1263
     56 H25         1.9301   -7.8505   -9.5478 H         1 <0>         0.0912
     57 H26         0.5107   -8.9423   -9.6219 H         1 <0>         0.0923
     58 H27         2.6885   -8.7002  -11.5531 H         1 <0>         0.0940
     59 H28         1.2691   -9.7921  -11.6273 H         1 <0>         0.0943
     60 H29         1.0964   -7.9716  -13.4667 H         1 <0>         0.4403
     61 H30         0.0277   -6.5286   -3.7203 H         1 <0>         0.4274
     62 H31        -0.0190   -0.2237    2.0152 H         1 <0>         0.4506
@<TRIPOS>BOND
     1    1    2 1
     2    1   32 1
     3    1   33 1
     4    1   34 1
     5    2    7 ar
     6    2    3 ar
     7    3    4 ar
     8    3   35 1
     9    4    5 ar
    10    4   36 1
    11    5   11 ar
    12    5    6 ar
    13    6    7 ar
    14    6    8 ar
    15    7   62 1
    16    8    9 ar
    17    8   37 1
    18    9   10 ar
    19    9   38 1
    20   10   11 ar
    21   10   39 1
    22   11   12 1
    23   12   17 1
    24   12   13 1
    25   13   14 1
    26   13   40 1
    27   13   41 1
    28   14   15 1
    29   14   42 1
    30   14   43 1
    31   15   16 1
    32   15   18 1
    33   15   61 1
    34   16   17 1
    35   16   44 1
    36   16   45 1
    37   17   46 1
    38   17   47 1
    39   18   19 1
    40   18   48 1
    41   18   49 1
    42   19   20 1
    43   19   50 1
    44   19   51 1
    45   20   25 ar
    46   20   21 ar
    47   21   22 ar
    48   21   52 1
    49   22   23 ar
    50   22   53 1
    51   23   24 ar
    52   23   54 1
    53   24   25 ar
    54   24   26 1
    55   25   55 1
    56   26   30 am
    57   26   27 1
    58   27   28 1
    59   27   56 1
    60   27   57 1
    61   28   29 1
    62   28   58 1
    63   28   59 1
    64   29   30 am
    65   29   60 1
    66   30   31 2
@<TRIPOS>MOLECULE
ZINC29560054
   52    55     0     0     0
SMALL
USER_CHARGES
(2R)-2-[[3-(morpholinomethyl)-2H-chromen-8-yl]oxymethyl]morpholine
@<TRIPOS>ATOM
      1 C1         -0.0126    1.0758    0.0080 C.ar      1 <0>        -0.1049
      2 C2          1.1763    1.7794    0.0004 C.ar      1 <0>        -0.1005
      3 C3          1.1546    3.1697    0.0129 C.ar      1 <0>        -0.0845
      4 C4         -0.0688    3.8523    0.0123 C.ar      1 <0>         0.1041
      5 C5         -1.2556    3.1350    0.0235 C.ar      1 <0>         0.0993
      6 C6         -1.2221    1.7479    0.0173 C.ar      1 <0>        -0.1762
      7 O1         -2.4482    3.7888    0.0353 O.3       1 <0>        -0.2930
      8 C7         -3.6291    2.9842    0.0464 C.3       1 <0>         0.0640
      9 C8         -4.8627    3.8891    0.0587 C.3       1 <0>         0.0682
     10 H1         -4.8134    4.6374   -0.7461 H         1 <0>         0.1001
     11 C9         -6.1264    3.0322   -0.0531 C.3       1 <0>        -0.0312
     12 N1         -7.3100    3.8996    0.0378 N.4       1 <0>        -0.5346
     13 C10        -7.3152    4.6440    1.3056 C.3       1 <0>        -0.0428
     14 C11        -6.0394    5.4848    1.4026 C.3       1 <0>         0.0310
     15 O2         -4.9000    4.6289    1.2820 O.3       1 <0>        -0.3503
     16 O3         -0.0656    5.2104   -0.0077 O.3       1 <0>        -0.2981
     17 C12         1.0020    5.8750    0.6676 C.3       1 <0>         0.1043
     18 C13         2.3271    5.2573    0.3059 C.2       1 <0>        -0.1389
     19 C14         2.4018    3.9634    0.0095 C.2       1 <0>        -0.1040
     20 C15         3.5709    6.1078    0.2794 C.3       1 <0>         0.0907
     21 N2          3.6823    6.7718   -1.0263 N.3       1 <0>        -0.5321
     22 C16         3.9137    5.7920   -2.0976 C.3       1 <0>         0.0126
     23 C17         3.9636    6.5186   -3.4443 C.3       1 <0>         0.0623
     24 O4          4.9804    7.5233   -3.4007 O.3       1 <0>        -0.3831
     25 C18         4.7861    8.4947   -2.3691 C.3       1 <0>         0.0613
     26 C19         4.7445    7.7881   -1.0116 C.3       1 <0>         0.0159
     27 H2          0.0021   -0.0041    0.0020 H         1 <0>         0.1341
     28 H3          2.1185    1.2519   -0.0155 H         1 <0>         0.1350
     29 H4         -2.1462    1.1890    0.0237 H         1 <0>         0.1323
     30 H5         -3.6488    2.3496   -0.8519 H         1 <0>         0.0900
     31 H6         -3.6315    2.3488    0.9443 H         1 <0>         0.0826
     32 H7         -6.1283    2.5060   -1.0191 H         1 <0>         0.1496
     33 H8         -6.1445    2.2970    0.7649 H         1 <0>         0.1425
     34 H9         -7.3030    4.6179   -0.7952 H         1 <0>         0.4530
     35 H10        -8.1949    5.3036    1.3399 H         1 <0>         0.1471
     36 H11        -7.3548    3.9359    2.1464 H         1 <0>         0.1379
     37 H12        -6.0285    6.2293    0.5929 H         1 <0>         0.0826
     38 H13        -6.0125    5.9996    2.3743 H         1 <0>         0.1428
     39 H14         1.0140    6.9364    0.3790 H         1 <0>         0.1239
     40 H15         0.8561    5.7922    1.7547 H         1 <0>         0.0703
     41 H16         3.3746    3.5093   -0.2301 H         1 <0>         0.1377
     42 H17         3.5128    6.8671    1.0732 H         1 <0>         0.0909
     43 H18         4.4534    5.4721    0.4440 H         1 <0>         0.0513
     44 H19         4.8688    5.2753   -1.9219 H         1 <0>         0.0448
     45 H20         3.0953    5.0571   -2.1054 H         1 <0>         0.0886
     46 H21         4.1926    5.7968   -4.2421 H         1 <0>         0.1002
     47 H22         2.9893    6.9886   -3.6437 H         1 <0>         0.0600
     48 H23         5.6163    9.2162   -2.3838 H         1 <0>         0.1028
     49 H24         3.8370    9.0244   -2.5382 H         1 <0>         0.0612
     50 H25         4.5378    8.5230   -0.2197 H         1 <0>         0.0902
     51 H26         5.7130    7.3036   -0.8184 H         1 <0>         0.0470
     52 H27        -8.2204    3.2845   -0.0161 H         1 <0>         0.4620
@<TRIPOS>BOND
     1    1    6 ar
     2    1    2 ar
     3    1   27 1
     4    2    3 ar
     5    2   28 1
     6    3   19 1
     7    3    4 ar
     8    4    5 ar
     9    4   16 1
    10    5    6 ar
    11    5    7 1
    12    6   29 1
    13    7    8 1
    14    8    9 1
    15    8   30 1
    16    8   31 1
    17    9   10 1
    18    9   15 1
    19    9   11 1
    20   11   12 1
    21   11   32 1
    22   11   33 1
    23   12   13 1
    24   12   34 1
    25   12   52 1
    26   13   14 1
    27   13   35 1
    28   13   36 1
    29   14   15 1
    30   14   37 1
    31   14   38 1
    32   16   17 1
    33   17   18 1
    34   17   39 1
    35   17   40 1
    36   18   19 2
    37   18   20 1
    38   19   41 1
    39   20   21 1
    40   20   42 1
    41   20   43 1
    42   21   26 1
    43   21   22 1
    44   22   23 1
    45   22   44 1
    46   22   45 1
    47   23   24 1
    48   23   46 1
    49   23   47 1
    50   24   25 1
    51   25   26 1
    52   25   48 1
    53   25   49 1
    54   26   50 1
    55   26   51 1
@<TRIPOS>MOLECULE
ZINC02568243
   34    36     0     0     0
SMALL
USER_CHARGES

@<TRIPOS>ATOM
      1 C1         -0.0173    1.4248    0.0099 C.3       1 <0>         0.0252
      2 O1          0.0021   -0.0041    0.0020 O.3       1 <0>        -0.3183
      3 C2         -1.2010   -0.6379    0.0101 C.ar      1 <0>         0.1169
      4 C3         -2.3775    0.1067    0.0195 C.ar      1 <0>        -0.1762
      5 C4         -3.6034   -0.5202    0.0273 C.ar      1 <0>        -0.0783
      6 C5         -3.6744   -1.9098    0.0258 C.ar      1 <0>         0.0592
      7 C6         -2.4884   -2.6622    0.0163 C.ar      1 <0>        -0.0484
      8 C7         -1.2520   -2.0182    0.0032 C.ar      1 <0>        -0.1259
      9 C8         -2.9033   -4.0754    0.0172 C.2       1 <0>        -0.1922
     10 C9         -4.2612   -4.0825    0.0269 C.2       1 <0>         0.1018
     11 N1         -4.7283   -2.8009    0.0320 N.pl3     1 <0>        -0.5832
     12 H1         -5.6658   -2.5518    0.0397 H         1 <0>         0.4236
     13 C10        -2.0157   -5.2547    0.0093 C.2       1 <0>        -0.0022
     14 C11        -1.3988   -5.5778   -1.1088 C.2       1 <0>        -0.1971
     15 C12        -0.4803   -6.7603   -1.2219 C.3       1 <0>         0.0381
     16 N2         -0.0462   -7.2002    0.1091 N.4       1 <0>        -0.5087
     17 C13        -1.2320   -7.4084    0.9551 C.3       1 <0>        -0.0039
     18 C14        -1.8429   -6.0411    1.2796 C.3       1 <0>        -0.1164
     19 H2          1.0053    1.8021    0.0021 H         1 <0>         0.1041
     20 H3         -0.5445    1.7859   -0.8732 H         1 <0>         0.0579
     21 H4         -0.5275    1.7763    0.9067 H         1 <0>         0.0578
     22 H5         -2.3280    1.1855    0.0211 H         1 <0>         0.1378
     23 H6         -4.5099    0.0668    0.0350 H         1 <0>         0.1301
     24 H7         -0.3392   -2.5953   -0.0086 H         1 <0>         0.1257
     25 H8         -4.8782   -4.9689    0.0300 H         1 <0>         0.1757
     26 H9         -1.5611   -4.9651   -1.9833 H         1 <0>         0.1495
     27 H10        -1.0039   -7.5772   -1.7186 H         1 <0>         0.1390
     28 H11         0.3928   -6.4834   -1.8127 H         1 <0>         0.1408
     29 H12         0.4669   -8.0652    0.0282 H         1 <0>         0.4342
     30 H13        -1.9591   -8.0207    0.4217 H         1 <0>         0.1341
     31 H14        -0.9391   -7.9058    1.8797 H         1 <0>         0.1381
     32 H15        -1.1844   -5.4970    1.9567 H         1 <0>         0.1074
     33 H16        -2.8140   -6.1827    1.7539 H         1 <0>         0.1225
     34 H17         0.5436   -6.4936    0.5225 H         1 <0>         0.4315
@<TRIPOS>BOND
     1    1    2 1
     2    1   19 1
     3    1   20 1
     4    1   21 1
     5    2    3 1
     6    3    8 ar
     7    3    4 ar
     8    4    5 ar
     9    4   22 1
    10    5    6 ar
    11    5   23 1
    12    6   11 1
    13    6    7 ar
    14    7    8 ar
    15    7    9 1
    16    8   24 1
    17    9   10 2
    18    9   13 1
    19   10   11 1
    20   10   25 1
    21   11   12 1
    22   13   18 1
    23   13   14 2
    24   14   15 1
    25   14   26 1
    26   15   16 1
    27   15   27 1
    28   15   28 1
    29   16   17 1
    30   16   29 1
    31   16   34 1
    32   17   18 1
    33   17   30 1
    34   17   31 1
    35   18   32 1
    36   18   33 1
@<TRIPOS>MOLECULE
ZINC00601304
   50    53     0     0     0
SMALL
USER_CHARGES

@<TRIPOS>ATOM
      1 C1         -0.0848    1.4532   -0.3643 C.3       1 <0>         0.0157
      2 O1         -0.0673    0.0248   -0.4029 O.3       1 <0>        -0.2899
      3 C2         -1.2697   -0.6091   -0.3507 C.ar      1 <0>         0.1141
      4 C3         -2.4181    0.1263   -0.2712 C.ar      1 <0>        -0.1159
      5 C4         -3.6565   -0.5247   -0.2178 C.ar      1 <0>        -0.1900
      6 C5         -3.7118   -1.9398   -0.2465 C.ar      1 <0>         0.2208
      7 C6         -2.5225   -2.6738   -0.3282 C.ar      1 <0>        -0.2298
      8 C7         -1.3169   -2.0092   -0.3848 C.ar      1 <0>         0.2171
      9 O2         -0.1616   -2.7187   -0.4697 O.3       1 <0>        -0.2781
     10 C8         -0.2756   -4.1428   -0.5007 C.3       1 <0>         0.0126
     11 N1         -4.9113   -2.5410   -0.1946 N.ar      1 <0>        -0.5852
     12 C9         -6.0151   -1.8231   -0.1184 C.ar      1 <0>         0.6808
     13 N2         -6.0075   -0.4933   -0.0894 N.ar      1 <0>        -0.5933
     14 C10        -4.8747    0.1928   -0.1354 C.ar      1 <0>         0.5614
     15 N3         -4.8820    1.5717   -0.1036 N.pl3     1 <0>        -0.7723
     16 N4         -7.2317   -2.4807   -0.0668 N.pl3     1 <0>        -0.5638
     17 C11        -7.2984   -3.9422   -0.2055 C.3       1 <0>         0.0875
     18 C12        -8.0309   -4.5172    1.0132 C.3       1 <0>         0.0811
     19 N5         -9.2792   -3.7665    1.2081 N.am      1 <0>        -0.6161
     20 C13        -9.2125   -2.3049    1.3468 C.3       1 <0>         0.0965
     21 C14        -8.4794   -1.7305    0.1337 C.3       1 <0>         0.1036
     22 C15       -10.4640   -4.4068    1.2583 C.2       1 <0>         0.6126
     23 O3        -11.4993   -3.7686    1.3005 O.2       1 <0>        -0.5007
     24 C16       -10.5057   -5.8728    1.2622 C.2       1 <0>        -0.0999
     25 C17       -11.6286   -6.6439    1.1675 C.2       1 <0>        -0.0980
     26 C18       -11.2046   -7.9813    1.2107 C.2       1 <0>        -0.2186
     27 C19        -9.8585   -7.9681    1.3284 C.2       1 <0>        -0.0023
     28 O4         -9.4406   -6.6959    1.3540 O.3       1 <0>        -0.1695
     29 H1          0.9367    1.8304   -0.4129 H         1 <0>         0.1175
     30 H2         -0.6531    1.8327   -1.2135 H         1 <0>         0.0636
     31 H3         -0.5513    1.7859    0.5629 H         1 <0>         0.0637
     32 H4         -2.3709    1.2050   -0.2492 H         1 <0>         0.1589
     33 H5         -2.5500   -3.7532   -0.3508 H         1 <0>         0.1674
     34 H6         -0.7651   -4.4880    0.4100 H         1 <0>         0.0684
     35 H7         -0.8669   -4.4412   -1.3664 H         1 <0>         0.0684
     36 H8          0.7180   -4.5855   -0.5693 H         1 <0>         0.1203
     37 H9         -4.0457    2.0621   -0.1379 H         1 <0>         0.4288
     38 H10        -5.7233    2.0512   -0.0471 H         1 <0>         0.4313
     39 H11        -7.8428   -4.1990   -1.1142 H         1 <0>         0.1106
     40 H12        -6.2893   -4.3517   -0.2526 H         1 <0>         0.0927
     41 H13        -8.2596   -5.5687    0.8400 H         1 <0>         0.1354
     42 H14        -7.4023   -4.4179    1.8982 H         1 <0>         0.0848
     43 H15       -10.2215   -1.8954    1.3938 H         1 <0>         0.1238
     44 H16        -8.6680   -2.0481    2.2555 H         1 <0>         0.0830
     45 H17        -8.2501   -0.6797    0.3105 H         1 <0>         0.1273
     46 H18        -9.1099   -1.8262   -0.7503 H         1 <0>         0.0981
     47 H19       -12.6459   -6.2927    1.0769 H         1 <0>         0.1643
     48 H20       -11.8356   -8.8563    1.1598 H         1 <0>         0.1626
     49 H21        -9.2239   -8.8399    1.3885 H         1 <0>         0.2151
     50 H22        -4.9664   -3.5093   -0.2136 H         1 <0>         0.4337
@<TRIPOS>BOND
     1    1    2 1
     2    1   29 1
     3    1   30 1
     4    1   31 1
     5    2    3 1
     6    3    8 ar
     7    3    4 ar
     8    4    5 ar
     9    4   32 1
    10    5   14 ar
    11    5    6 ar
    12    6    7 ar
    13    6   11 ar
    14    7    8 ar
    15    7   33 1
    16    8    9 1
    17    9   10 1
    18   10   34 1
    19   10   35 1
    20   10   36 1
    21   11   12 ar
    22   11   50 1
    23   12   13 ar
    24   12   16 1
    25   13   14 ar
    26   14   15 1
    27   15   37 1
    28   15   38 1
    29   16   21 1
    30   16   17 1
    31   17   18 1
    32   17   39 1
    33   17   40 1
    34   18   19 1
    35   18   41 1
    36   18   42 1
    37   19   20 1
    38   19   22 am
    39   20   21 1
    40   20   43 1
    41   20   44 1
    42   21   45 1
    43   21   46 1
    44   22   23 2
    45   22   24 1
    46   24   28 1
    47   24   25 2
    48   25   26 1
    49   25   47 1
    50   26   27 2
    51   26   48 1
    52   27   28 1
    53   27   49 1
@<TRIPOS>MOLECULE
ZINC05161581
   36    38     0     0     0
SMALL
USER_CHARGES
2-(3-methyl-8,9-dihydro-7H-pyrano[3,2-e]indol-1-yl)ethanamine
@<TRIPOS>ATOM
      1 C1          3.5625    0.6992   -0.0640 C.3       1 <0>         0.0710
      2 N1          2.0981    0.7261   -0.0293 N.pl3     1 <0>        -0.4754
      3 C2          1.2908   -0.3786   -0.0361 C.2       1 <0>         0.0903
      4 C3          0.0021   -0.0041    0.0020 C.2       1 <0>        -0.2146
      5 C4         -0.0174    1.4604    0.0363 C.ar      1 <0>        -0.0606
      6 C5          1.3270    1.8685    0.0147 C.ar      1 <0>         0.0667
      7 C6          1.6282    3.2256    0.0394 C.ar      1 <0>        -0.0847
      8 C7          0.6129    4.1523    0.0866 C.ar      1 <0>        -0.1169
      9 C8         -0.7252    3.7519    0.1087 C.ar      1 <0>         0.1232
     10 C9         -1.0431    2.4121    0.0767 C.ar      1 <0>        -0.1405
     11 C10        -2.4752    1.9416    0.0908 C.3       1 <0>        -0.0705
     12 C11        -3.3867    3.0702    0.5789 C.3       1 <0>        -0.1647
     13 C12        -3.0203    4.3481   -0.1868 C.3       1 <0>         0.0603
     14 O1         -1.6848    4.7138    0.1622 O.3       1 <0>        -0.3119
     15 C13        -1.1970   -0.9169    0.0080 C.3       1 <0>        -0.0635
     16 C14        -1.7677   -1.0184   -1.4080 C.3       1 <0>        -0.0079
     17 H1          3.9017    0.7168   -1.0997 H         1 <0>         0.0765
     18 H2          3.9544    1.5700    0.4616 H         1 <0>         0.0871
     19 H3          3.9208   -0.2092    0.4203 H         1 <0>         0.0884
     20 H4          1.6387   -1.4005   -0.0676 H         1 <0>         0.1706
     21 H5          2.6577    3.5516    0.0219 H         1 <0>         0.1318
     22 H6          0.8538    5.2049    0.1064 H         1 <0>         0.1404
     23 H7         -2.5705    1.0846    0.7575 H         1 <0>         0.0783
     24 H8         -2.7681    1.6496   -0.9177 H         1 <0>         0.0657
     25 H9         -3.2383    3.2265    1.6474 H         1 <0>         0.0822
     26 H10        -4.4278    2.8115    0.3857 H         1 <0>         0.0859
     27 H11        -3.7047    5.1504    0.0888 H         1 <0>         0.1116
     28 H12        -3.0823    4.1647   -1.2595 H         1 <0>         0.0639
     29 H13        -0.8979   -1.9074    0.3510 H         1 <0>         0.0915
     30 H14        -1.9567   -0.5144    0.6779 H         1 <0>         0.0933
     31 H15        -2.0668   -0.0280   -1.7510 H         1 <0>         0.1334
     32 H16        -1.0080   -1.4209   -2.0780 H         1 <0>         0.1326
     33 H17        -3.6289   -1.5915   -0.7401 H         1 <0>         0.4359
     34 H18        -3.3319   -1.9918   -2.3267 H         1 <0>         0.4396
     35 N2         -2.9255   -1.9298   -1.3947 N.4       1 <0>        -0.6481
     36 H19        -2.6164   -2.8639   -1.1012 H         1 <0>         0.4391
@<TRIPOS>BOND
     1    1    2 1
     2    1   17 1
     3    1   18 1
     4    1   19 1
     5    2    6 1
     6    2    3 1
     7    3    4 2
     8    3   20 1
     9    4    5 1
    10    4   15 1
    11    5   10 ar
    12    5    6 ar
    13    6    7 ar
    14    7    8 ar
    15    7   21 1
    16    8    9 ar
    17    8   22 1
    18    9   14 1
    19    9   10 ar
    20   10   11 1
    21   11   12 1
    22   11   23 1
    23   11   24 1
    24   12   13 1
    25   12   25 1
    26   12   26 1
    27   13   14 1
    28   13   27 1
    29   13   28 1
    30   15   16 1
    31   15   29 1
    32   15   30 1
    33   16   31 1
    34   16   32 1
    35   16   35 1
    36   33   35 1
    37   34   35 1
    38   35   36 1
@<TRIPOS>MOLECULE
ZINC71754993
   49    52     0     0     0
SMALL
USER_CHARGES

@<TRIPOS>ATOM
      1 C1          2.6170   -2.6358   -1.1889 C.3       1 <0>        -0.1671
      2 C2          2.2134   -1.1611   -1.2456 C.3       1 <0>         0.1069
      3 N1          0.7528   -1.0529   -1.2130 N.am      1 <0>        -0.6114
      4 C3          0.0461   -1.0616    0.0703 C.3       1 <0>         0.0994
      5 C4         -0.0614    0.3687    0.6029 C.3       1 <0>        -0.1765
      6 C5          0.0592   -0.9454   -2.3636 C.2       1 <0>         0.5267
      7 O1          0.6474   -0.8703   -3.4215 O.2       1 <0>        -0.5333
      8 C6         -1.4473   -0.9186   -2.3355 C.3       1 <0>        -0.0725
      9 H1         -1.8080   -1.4645   -1.4638 H         1 <0>         0.1146
     10 C7         -1.9990   -1.5624   -3.6126 C.3       1 <0>         0.0770
     11 N2         -3.4593   -1.4331   -3.6037 N.3       1 <0>        -0.5484
     12 C8         -3.9081   -0.0485   -3.6742 C.3       1 <0>         0.1385
     13 H2         -3.8294    0.2578   -4.7173 H         1 <0>         0.0457
     14 C9         -5.3934    0.0321   -3.2953 C.3       1 <0>        -0.0232
     15 C10        -5.8207    1.4760   -3.2538 C.2       1 <0>        -0.1681
     16 C11        -6.9734    2.1212   -3.3973 C.2       1 <0>         0.0572
     17 N3         -6.7828    3.4861   -3.2468 N.pl3     1 <0>        -0.5952
     18 H3         -7.4843    4.1531   -3.3095 H         1 <0>         0.4163
     19 C12        -5.4715    3.7584   -2.9981 C.ar      1 <0>         0.1107
     20 C13        -4.8308    2.5163   -3.0000 C.ar      1 <0>        -0.1310
     21 C14        -3.4506    2.3050   -2.7990 C.ar      1 <0>        -0.0034
     22 C15        -2.7031    3.4367   -2.5663 C.ar      1 <0>        -0.1283
     23 C16        -3.3241    4.6838   -2.5516 C.ar      1 <0>        -0.0962
     24 C17        -4.6837    4.8842   -2.7614 C.ar      1 <0>        -0.1216
     25 C18        -3.0445    0.8889   -2.8726 C.2       1 <0>        -0.0548
     26 C19        -1.9279    0.5065   -2.2758 C.2       1 <0>        -0.1279
     27 C20        -4.0657   -2.2382   -4.6723 C.3       1 <0>         0.0274
     28 H4          2.2786   -3.0692   -0.2477 H         1 <0>         0.0559
     29 H5          2.1583   -3.1703   -2.0208 H         1 <0>         0.0579
     30 H6          3.7017   -2.7185   -1.2577 H         1 <0>         0.0673
     31 H7          2.6359   -0.6355   -0.3892 H         1 <0>         0.0755
     32 H8          2.5902   -0.7164   -2.1667 H         1 <0>         0.0872
     33 H9         -0.9534   -1.4738   -0.0682 H         1 <0>         0.0851
     34 H10         0.5964   -1.6747    0.7839 H         1 <0>         0.0811
     35 H11        -0.5106    0.3537    1.5960 H         1 <0>         0.0701
     36 H12         0.9333    0.8106    0.6607 H         1 <0>         0.0594
     37 H13        -0.6835    0.9606   -0.0684 H         1 <0>         0.0612
     38 H14        -1.5914   -1.0526   -4.4855 H         1 <0>         0.0533
     39 H15        -1.7248   -2.6170   -3.6391 H         1 <0>         0.0845
     40 H16        -5.9874   -0.5018   -4.0371 H         1 <0>         0.0765
     41 H17        -5.5435   -0.4200   -2.3149 H         1 <0>         0.0843
     42 H18        -7.9232    1.6497   -3.6022 H         1 <0>         0.1695
     43 H19        -1.6396    3.3585   -2.3953 H         1 <0>         0.1220
     44 H20        -2.7091    5.5517   -2.3648 H         1 <0>         0.1224
     45 H21        -5.1135    5.8748   -2.7421 H         1 <0>         0.1285
     46 H22        -1.3518    1.2331   -1.7222 H         1 <0>         0.1200
     47 H23        -3.7498   -3.2763   -4.5689 H         1 <0>         0.0734
     48 H24        -5.1517   -2.1799   -4.5994 H         1 <0>         0.0744
     49 H25        -3.7455   -1.8558   -5.6415 H         1 <0>         0.0291
@<TRIPOS>BOND
     1    1    2 1
     2    1   28 1
     3    1   29 1
     4    1   30 1
     5    2    3 1
     6    2   31 1
     7    2   32 1
     8    3    4 1
     9    3    6 am
    10    4    5 1
    11    4   33 1
    12    4   34 1
    13    5   35 1
    14    5   36 1
    15    5   37 1
    16    6    7 2
    17    6    8 1
    18    8    9 1
    19    8   26 1
    20    8   10 1
    21   10   11 1
    22   10   38 1
    23   10   39 1
    24   11   12 1
    25   11   27 1
    26   12   13 1
    27   12   25 1
    28   12   14 1
    29   14   15 1
    30   14   40 1
    31   14   41 1
    32   15   20 1
    33   15   16 2
    34   16   17 1
    35   16   42 1
    36   17   18 1
    37   17   19 1
    38   19   24 ar
    39   19   20 ar
    40   20   21 ar
    41   21   22 ar
    42   21   25 1
    43   22   23 ar
    44   22   43 1
    45   23   24 ar
    46   23   44 1
    47   24   45 1
    48   25   26 2
    49   26   46 1
    50   27   47 1
    51   27   48 1
    52   27   49 1
@<TRIPOS>MOLECULE
ZINC71754993
   50    53     0     0     0
SMALL
USER_CHARGES

@<TRIPOS>ATOM
      1 C1         -4.4131    1.6542    2.7709 C.3       1 <0>        -0.1692
      2 C2         -3.1002    1.6745    1.9857 C.3       1 <0>         0.1077
      3 N1         -3.2120    0.7884    0.8243 N.am      1 <0>        -0.6044
      4 C3         -3.6997    1.3136   -0.4534 C.3       1 <0>         0.0980
      5 C4         -2.5178    1.8262   -1.2787 C.3       1 <0>        -0.1810
      6 C5         -2.8661   -0.5098    0.9314 C.2       1 <0>         0.5240
      7 O1         -2.5501   -0.9662    2.0097 O.2       1 <0>        -0.5069
      8 C6         -2.8722   -1.3943   -0.2887 C.3       1 <0>        -0.1042
      9 H1         -2.7358   -0.7873   -1.1837 H         1 <0>         0.1306
     10 C7         -4.2036   -2.1497   -0.3737 C.3       1 <0>         0.0021
     11 N2         -4.1503   -3.0574   -1.5221 N.4       1 <0>        -0.3772
     12 C8         -3.1649   -4.1132   -1.3324 C.3       1 <0>         0.0727
     13 H2         -3.6138   -4.8485   -0.6647 H         1 <0>         0.1401
     14 C9         -2.9105   -4.8224   -2.6700 C.3       1 <0>        -0.0390
     15 C10        -1.8064   -5.8325   -2.5003 C.2       1 <0>        -0.2014
     16 C11        -1.4541   -6.9552   -3.1179 C.2       1 <0>         0.0960
     17 N3         -0.3151   -7.4883   -2.5346 N.pl3     1 <0>        -0.5871
     18 H3          0.1234   -8.3046   -2.8215 H         1 <0>         0.4245
     19 C12         0.1019   -6.7038   -1.5020 C.ar      1 <0>         0.1104
     20 C13        -0.8165   -5.6518   -1.4449 C.ar      1 <0>        -0.1254
     21 C14        -0.7954   -4.5939   -0.5123 C.ar      1 <0>        -0.0281
     22 C15         0.2416   -4.6193    0.3924 C.ar      1 <0>        -0.0998
     23 C16         1.1732   -5.6542    0.3464 C.ar      1 <0>        -0.0987
     24 C17         1.1382   -6.6995   -0.5693 C.ar      1 <0>        -0.0978
     25 C18        -1.9016   -3.6317   -0.6709 C.2       1 <0>        -0.0695
     26 C19        -1.7626   -2.4072   -0.1876 C.2       1 <0>        -0.1111
     27 C20        -5.4735   -3.6664   -1.7125 C.3       1 <0>        -0.0520
     28 H4         -4.3299    2.3134    3.6350 H         1 <0>         0.0742
     29 H5         -5.2253    1.9965    2.1296 H         1 <0>         0.0570
     30 H6         -4.6195    0.6382    3.1076 H         1 <0>         0.0594
     31 H7         -2.8938    2.6904    1.6490 H         1 <0>         0.0854
     32 H8         -2.2879    1.3322    2.6269 H         1 <0>         0.0886
     33 H9         -4.2089    0.5208   -1.0014 H         1 <0>         0.0700
     34 H10        -4.3955    2.1319   -0.2680 H         1 <0>         0.0939
     35 H11        -2.8686    2.1332   -2.2639 H         1 <0>         0.0759
     36 H12        -2.0638    2.6783   -0.7728 H         1 <0>         0.0695
     37 H13        -1.7789    1.0322   -1.3872 H         1 <0>         0.0580
     38 H14        -4.3580   -2.7236    0.5400 H         1 <0>         0.1434
     39 H15        -5.0199   -1.4395   -0.5058 H         1 <0>         0.1437
     40 H16        -3.8204   -5.3293   -2.9914 H         1 <0>         0.0997
     41 H17        -2.6190   -4.0881   -3.4210 H         1 <0>         0.0934
     42 H18        -1.9802   -7.3903   -3.9547 H         1 <0>         0.1758
     43 H19         0.3329   -3.8400    1.1346 H         1 <0>         0.1302
     44 H20         1.9754   -5.6435    1.0695 H         1 <0>         0.1317
     45 H21         1.8852   -7.4794   -0.5582 H         1 <0>         0.1373
     46 H22        -0.8304   -2.1256    0.2794 H         1 <0>         0.1476
     47 H23        -6.2103   -2.8845   -1.8961 H         1 <0>         0.1309
     48 H24        -5.4422   -4.3438   -2.5658 H         1 <0>         0.1309
     49 H25        -5.7497   -4.2228   -0.8168 H         1 <0>         0.1266
     50 H26        -3.9112   -2.5291   -2.3478 H         1 <0>         0.4234
@<TRIPOS>BOND
     1    1    2 1
     2    1   28 1
     3    1   29 1
     4    1   30 1
     5    2    3 1
     6    2   31 1
     7    2   32 1
     8    3    4 1
     9    3    6 am
    10    4    5 1
    11    4   33 1
    12    4   34 1
    13    5   35 1
    14    5   36 1
    15    5   37 1
    16    6    7 2
    17    6    8 1
    18    8    9 1
    19    8   26 1
    20    8   10 1
    21   10   11 1
    22   10   38 1
    23   10   39 1
    24   11   12 1
    25   11   27 1
    26   11   50 1
    27   12   13 1
    28   12   25 1
    29   12   14 1
    30   14   15 1
    31   14   40 1
    32   14   41 1
    33   15   20 1
    34   15   16 2
    35   16   17 1
    36   16   42 1
    37   17   18 1
    38   17   19 1
    39   19   24 ar
    40   19   20 ar
    41   20   21 ar
    42   21   22 ar
    43   21   25 1
    44   22   23 ar
    45   22   43 1
    46   23   24 ar
    47   23   44 1
    48   24   45 1
    49   25   26 2
    50   26   46 1
    51   27   47 1
    52   27   48 1
    53   27   49 1
@<TRIPOS>MOLECULE
ZINC02572146
   29    30     0     0     0
SMALL
USER_CHARGES

@<TRIPOS>ATOM
      1 C1         -0.0184    1.5028    0.0103 C.3       1 <0>        -0.1071
      2 C2          0.0021   -0.0041    0.0020 C.2       1 <0>         0.1199
      3 C3          0.0074   -0.7686   -1.1014 C.2       1 <0>        -0.2092
      4 C4          0.0293   -2.1641   -0.6562 C.ar      1 <0>        -0.0803
      5 C5          0.0430   -3.3930   -1.3197 C.ar      1 <0>        -0.1146
      6 C6          0.0627   -4.5631   -0.5876 C.ar      1 <0>         0.0953
      7 C7          0.0685   -4.5202    0.8044 C.ar      1 <0>        -0.1188
      8 C8          0.0552   -3.3144    1.4689 C.ar      1 <0>        -0.1023
      9 C9          0.0357   -2.1241    0.7494 C.ar      1 <0>         0.0880
     10 N1          0.0239   -0.7953    1.1178 N.pl3     1 <0>        -0.5848
     11 H1          0.0285   -0.4701    2.0317 H         1 <0>         0.4225
     12 O1          0.0761   -5.7626   -1.2282 O.3       1 <0>        -0.4959
     13 C10        -0.0070   -0.2832   -2.5281 C.3       1 <0>        -0.0613
     14 C11         1.4305   -0.0988   -3.0185 C.3       1 <0>        -0.0084
     15 N2          1.4165    0.3744   -4.4092 N.4       1 <0>        -0.6388
     16 H2          1.0042    1.8801    0.0026 H         1 <0>         0.0837
     17 H3         -0.5455    1.8639   -0.8728 H         1 <0>         0.0866
     18 H4         -0.5286    1.8543    0.9071 H         1 <0>         0.0796
     19 H5          0.0378   -3.4277   -2.3992 H         1 <0>         0.1258
     20 H6          0.0832   -5.4414    1.3679 H         1 <0>         0.1387
     21 H7          0.0598   -3.2928    2.5486 H         1 <0>         0.1311
     22 H8          0.9632   -6.0974   -1.4178 H         1 <0>         0.3920
     23 H9         -0.5139   -1.0159   -3.1560 H         1 <0>         0.0928
     24 H10        -0.5345    0.6690   -2.5826 H         1 <0>         0.0917
     25 H11         1.9375    0.6339   -2.3905 H         1 <0>         0.1322
     26 H12         1.9580   -1.0511   -2.9640 H         1 <0>         0.1338
     27 H13         0.9472   -0.3038   -4.9905 H         1 <0>         0.4354
     28 H14         0.9282    1.2559   -4.4596 H         1 <0>         0.4345
     29 H15         2.3645    0.4960   -4.7326 H         1 <0>         0.4379
@<TRIPOS>BOND
     1    1    2 1
     2    1   16 1
     3    1   17 1
     4    1   18 1
     5    2   10 1
     6    2    3 2
     7    3    4 1
     8    3   13 1
     9    4    9 ar
    10    4    5 ar
    11    5    6 ar
    12    5   19 1
    13    6    7 ar
    14    6   12 1
    15    7    8 ar
    16    7   20 1
    17    8    9 ar
    18    8   21 1
    19    9   10 1
    20   10   11 1
    21   12   22 1
    22   13   14 1
    23   13   23 1
    24   13   24 1
    25   14   15 1
    26   14   25 1
    27   14   26 1
    28   15   27 1
    29   15   28 1
    30   15   29 1
@<TRIPOS>MOLECULE
ZINC13805803
   41    42     0     0     0
SMALL
USER_CHARGES
2-(2-ethyl-5-methoxy-1H-indol-3-yl)-N,N-dimethyl-ethanamine
@<TRIPOS>ATOM
      1 C1         -0.5324   -2.0518   -2.9154 C.3       1 <0>        -0.1494
      2 C2         -1.8562   -2.3550   -2.2107 C.3       1 <0>        -0.0751
      3 C3         -1.5806   -2.8367   -0.8096 C.2       1 <0>         0.1256
      4 C4         -1.3886   -2.0415    0.2549 C.2       1 <0>        -0.2066
      5 C5         -1.1617   -2.9160    1.4080 C.ar      1 <0>        -0.0554
      6 C6         -0.9137   -2.6879    2.7635 C.ar      1 <0>        -0.1287
      7 C7         -0.7404   -3.7604    3.6150 C.ar      1 <0>         0.1168
      8 C8         -0.8120   -5.0628    3.1270 C.ar      1 <0>        -0.1757
      9 C9         -1.0559   -5.2994    1.7928 C.ar      1 <0>        -0.0790
     10 C10        -1.2334   -4.2323    0.9184 C.ar      1 <0>         0.0635
     11 N1         -1.4859   -4.1489   -0.4347 N.pl3     1 <0>        -0.5834
     12 H1         -1.5852   -4.9075   -1.0310 H         1 <0>         0.4205
     13 O1         -0.4983   -3.5443    4.9356 O.3       1 <0>        -0.3182
     14 C11        -0.3286   -4.6982    5.7613 C.3       1 <0>         0.0253
     15 C12        -1.4090   -0.5347    0.2631 C.3       1 <0>        -0.0590
     16 C13         0.0021   -0.0041    0.0020 C.3       1 <0>        -0.0102
     17 C14         1.3463    2.0098   -0.0000 C.3       1 <0>        -0.0426
     18 C15        -0.8017    1.9868   -1.1173 C.3       1 <0>        -0.0479
     19 H2          0.0737   -2.9568   -2.9550 H         1 <0>         0.0624
     20 H3         -0.7318   -1.7034   -3.9288 H         1 <0>         0.0715
     21 H4          0.0038   -1.2791   -2.3644 H         1 <0>         0.0503
     22 H5         -2.3924   -3.1277   -2.7616 H         1 <0>         0.0840
     23 H6         -2.4624   -1.4500   -2.1711 H         1 <0>         0.0915
     24 H7         -0.8583   -1.6783    3.1432 H         1 <0>         0.1270
     25 H8         -0.6746   -5.8951    3.8015 H         1 <0>         0.1373
     26 H9         -1.1090   -6.3135    1.4251 H         1 <0>         0.1291
     27 H10        -0.1423   -4.3856    6.7888 H         1 <0>         0.1042
     28 H11        -1.2320   -5.3071    5.7250 H         1 <0>         0.0580
     29 H12         0.5179   -5.2822    5.4001 H         1 <0>         0.0574
     30 H13        -1.7561   -0.1814    1.2341 H         1 <0>         0.0920
     31 H14        -2.0819   -0.1762   -0.5158 H         1 <0>         0.0894
     32 H15         0.3492   -0.3574   -0.9689 H         1 <0>         0.1307
     33 H16         0.6750   -0.3626    0.7809 H         1 <0>         0.1304
     34 H17         1.8658    1.6723   -0.8968 H         1 <0>         0.1215
     35 H18         1.3024    3.0989    0.0063 H         1 <0>         0.1222
     36 H19         1.8828    1.6627    0.8830 H         1 <0>         0.1213
     37 H20        -1.8268    1.6230   -1.0465 H         1 <0>         0.1224
     38 H21        -0.8000    3.0764   -1.0873 H         1 <0>         0.1224
     39 H22        -0.3600    1.6485   -2.0545 H         1 <0>         0.1222
     40 N2         -0.0305    1.4733    0.0344 N.4       1 <0>        -0.3989
     41 H23        -0.4856    1.7779    0.9029 H         1 <0>         0.4311
@<TRIPOS>BOND
     1    1    2 1
     2    1   19 1
     3    1   20 1
     4    1   21 1
     5    2    3 1
     6    2   22 1
     7    2   23 1
     8    3   11 1
     9    3    4 2
    10    4    5 1
    11    4   15 1
    12    5   10 ar
    13    5    6 ar
    14    6    7 ar
    15    6   24 1
    16    7    8 ar
    17    7   13 1
    18    8    9 ar
    19    8   25 1
    20    9   10 ar
    21    9   26 1
    22   10   11 1
    23   11   12 1
    24   13   14 1
    25   14   27 1
    26   14   28 1
    27   14   29 1
    28   15   16 1
    29   15   30 1
    30   15   31 1
    31   16   32 1
    32   16   33 1
    33   16   40 1
    34   17   34 1
    35   17   35 1
    36   17   36 1
    37   17   40 1
    38   18   37 1
    39   18   38 1
    40   18   39 1
    41   18   40 1
    42   40   41 1
@<TRIPOS>MOLECULE
ZINC00140722
   32    33     0     0     0
SMALL
USER_CHARGES
2-(5-methoxy-2-methyl-1H-indol-3-yl)ethanamine
@<TRIPOS>ATOM
      1 C1         -1.2084   -2.3727    2.6104 C.3       1 <0>        -0.1069
      2 C2         -0.0288   -2.8299    1.7914 C.2       1 <0>         0.1233
      3 C3          0.8464   -2.0163    1.1798 C.2       1 <0>        -0.2136
      4 C4          1.8288   -2.8705    0.5079 C.ar      1 <0>        -0.0556
      5 C5          2.9608   -2.6186   -0.2705 C.ar      1 <0>        -0.1297
      6 C6          3.6941   -3.6761   -0.7699 C.ar      1 <0>         0.1176
      7 C7          3.3088   -4.9870   -0.5001 C.ar      1 <0>        -0.1759
      8 C8          2.1947   -5.2470    0.2660 C.ar      1 <0>        -0.0786
      9 C9          1.4424   -4.1952    0.7785 C.ar      1 <0>         0.0623
     10 N1          0.3068   -4.1356    1.5587 N.pl3     1 <0>        -0.5845
     11 H1         -0.1789   -4.9045    1.8957 H         1 <0>         0.4212
     12 O1          4.7969   -3.4370   -1.5287 O.3       1 <0>        -0.3181
     13 C10         5.5101   -4.5763   -2.0139 C.3       1 <0>         0.0251
     14 C11         0.8260   -0.5095    1.1880 C.3       1 <0>        -0.0610
     15 C12         0.0021   -0.0041    0.0020 C.3       1 <0>        -0.0044
     16 H2         -2.0796   -2.2655    1.9642 H         1 <0>         0.0834
     17 H3         -1.4196   -3.1090    3.3858 H         1 <0>         0.0791
     18 H4         -0.9791   -1.4130    3.0734 H         1 <0>         0.0863
     19 H5          3.2608   -1.6025   -0.4801 H         1 <0>         0.1273
     20 H6          3.8896   -5.8073   -0.8952 H         1 <0>         0.1377
     21 H7          1.9048   -6.2674    0.4687 H         1 <0>         0.1295
     22 H8          5.8584   -5.1730   -1.1709 H         1 <0>         0.0582
     23 H9          4.8503   -5.1792   -2.6379 H         1 <0>         0.0576
     24 H10         6.3654   -4.2457   -2.6031 H         1 <0>         0.1044
     25 H11         1.8454   -0.1318    1.1095 H         1 <0>         0.0929
     26 H12         0.3787   -0.1573    2.1176 H         1 <0>         0.0903
     27 H13        -1.0174   -0.3817    0.0806 H         1 <0>         0.1297
     28 H14         0.4494   -0.3563   -0.9275 H         1 <0>         0.1355
     29 H15         0.9191    1.8392    0.0032 H         1 <0>         0.4372
     30 H16        -0.5563    1.8234   -0.7642 H         1 <0>         0.4394
     31 N2         -0.0294    1.4689    0.0323 N.4       1 <0>        -0.6478
     32 H17        -0.4837    1.7790    0.8993 H         1 <0>         0.4379
@<TRIPOS>BOND
     1    1    2 1
     2    1   16 1
     3    1   17 1
     4    1   18 1
     5    2   10 1
     6    2    3 2
     7    3    4 1
     8    3   14 1
     9    4    9 ar
    10    4    5 ar
    11    5    6 ar
    12    5   19 1
    13    6    7 ar
    14    6   12 1
    15    7    8 ar
    16    7   20 1
    17    8    9 ar
    18    8   21 1
    19    9   10 1
    20   10   11 1
    21   12   13 1
    22   13   22 1
    23   13   23 1
    24   13   24 1
    25   14   15 1
    26   14   25 1
    27   14   26 1
    28   15   27 1
    29   15   28 1
    30   15   31 1
    31   29   31 1
    32   30   31 1
    33   31   32 1
@<TRIPOS>MOLECULE
ZINC03870313
   44    45     0     0     0
SMALL
USER_CHARGES

@<TRIPOS>ATOM
      1 C1          1.4413   -2.5874   -2.4342 C.3       1 <0>        -0.1558
      2 C2          0.7544   -2.1400   -1.1423 C.3       1 <0>        -0.1491
      3 C3         -0.7443   -2.4339   -1.2335 C.3       1 <0>        -0.0201
      4 N1         -1.4039   -2.0044    0.0068 N.4       1 <0>        -0.3818
      5 C4         -1.3254   -0.5420    0.1221 C.3       1 <0>        -0.0189
      6 C5         -1.8949   -0.1056    1.4734 C.3       1 <0>        -0.1495
      7 C6         -1.6913    1.4004    1.6503 C.3       1 <0>        -0.1554
      8 C7         -2.8130   -2.4186   -0.0191 C.3       1 <0>         0.0212
      9 H1         -3.3345   -1.9999    0.8417 H         1 <0>         0.1439
     10 C8         -3.4725   -1.9253   -1.3124 C.3       1 <0>        -0.1372
     11 C9         -4.9780   -2.1583   -1.2047 C.3       1 <0>        -0.0775
     12 C10        -5.2664   -3.5813   -0.8033 C.ar      1 <0>        -0.0684
     13 C11        -6.5491   -4.0680   -1.0239 C.ar      1 <0>        -0.1225
     14 C12        -6.8811   -5.3604   -0.6738 C.ar      1 <0>        -0.0878
     15 C13        -5.9313   -6.1820   -0.0976 C.ar      1 <0>        -0.1384
     16 C14        -4.6513   -5.7025    0.1215 C.ar      1 <0>         0.1150
     17 C15        -4.3156   -4.3974   -0.2354 C.ar      1 <0>        -0.1164
     18 C16        -2.9018   -3.9428    0.0171 C.3       1 <0>        -0.0892
     19 O1         -3.7160   -6.5091    0.6885 O.3       1 <0>        -0.4966
     20 H2          2.5091   -2.3780   -2.3693 H         1 <0>         0.0777
     21 H3          1.2888   -3.6574   -2.5750 H         1 <0>         0.0667
     22 H4          1.0155   -2.0454   -3.2786 H         1 <0>         0.0666
     23 H5          1.1802   -2.6819   -0.2979 H         1 <0>         0.0859
     24 H6          0.9069   -1.0699   -1.0015 H         1 <0>         0.0859
     25 H7         -1.1702   -1.8919   -2.0779 H         1 <0>         0.1316
     26 H8         -0.8968   -3.5039   -1.3743 H         1 <0>         0.1312
     27 H9         -0.2845   -0.2270    0.0477 H         1 <0>         0.1340
     28 H10        -1.9022   -0.0828   -0.6807 H         1 <0>         0.1313
     29 H11        -2.9599   -0.3350    1.5100 H         1 <0>         0.0855
     30 H12        -1.3808   -0.6382    2.2735 H         1 <0>         0.0852
     31 H13        -2.2054    1.9330    0.8503 H         1 <0>         0.0669
     32 H14        -2.0971    1.7113    2.6130 H         1 <0>         0.0774
     33 H15        -0.6264    1.6298    1.6137 H         1 <0>         0.0669
     34 H16        -3.2741   -0.8615   -1.4430 H         1 <0>         0.0923
     35 H17        -3.0749   -2.4804   -2.1620 H         1 <0>         0.0927
     36 H18        -5.3938   -1.4827   -0.4571 H         1 <0>         0.0903
     37 H19        -5.4430   -1.9557   -2.1695 H         1 <0>         0.0990
     38 H20        -7.2937   -3.4279   -1.4736 H         1 <0>         0.1316
     39 H21        -7.8809   -5.7290   -0.8494 H         1 <0>         0.1360
     40 H22        -6.1865   -7.1938    0.1811 H         1 <0>         0.1370
     41 H23        -2.2487   -4.3592   -0.7498 H         1 <0>         0.0928
     42 H24        -2.5786   -4.2985    0.9954 H         1 <0>         0.1031
     43 H25        -3.2026   -7.0244    0.0514 H         1 <0>         0.3942
     44 H26        -0.9429   -2.4293    0.7974 H         1 <0>         0.4229
@<TRIPOS>BOND
     1    1    2 1
     2    1   20 1
     3    1   21 1
     4    1   22 1
     5    2    3 1
     6    2   23 1
     7    2   24 1
     8    3    4 1
     9    3   25 1
    10    3   26 1
    11    4    5 1
    12    4    8 1
    13    4   44 1
    14    5    6 1
    15    5   27 1
    16    5   28 1
    17    6    7 1
    18    6   29 1
    19    6   30 1
    20    7   31 1
    21    7   32 1
    22    7   33 1
    23    8    9 1
    24    8   18 1
    25    8   10 1
    26   10   11 1
    27   10   34 1
    28   10   35 1
    29   11   12 1
    30   11   36 1
    31   11   37 1
    32   12   17 ar
    33   12   13 ar
    34   13   14 ar
    35   13   38 1
    36   14   15 ar
    37   14   39 1
    38   15   16 ar
    39   15   40 1
    40   16   17 ar
    41   16   19 1
    42   17   18 1
    43   18   41 1
    44   18   42 1
    45   19   43 1
@<TRIPOS>MOLECULE
ZINC13527309
   33    35     0     0     0
SMALL
USER_CHARGES
2-(3,7,8,9-tetrahydropyrano[3,2-e]indol-1-yl)ethanamine
@<TRIPOS>ATOM
      1 C1          1.3491   -2.6821    2.0558 C.ar      1 <0>        -0.0858
      2 C2          0.5693   -1.9880    1.1603 C.ar      1 <0>        -0.1162
      3 C3          0.8039   -0.6356    0.9005 C.ar      1 <0>         0.1237
      4 C4          1.8265    0.0222    1.5474 C.ar      1 <0>        -0.1404
      5 C5          2.6278   -0.6754    2.4590 C.ar      1 <0>        -0.0611
      6 C6          2.3884   -2.0360    2.7157 C.ar      1 <0>         0.0658
      7 N1          3.3226   -2.4455    3.6437 N.pl3     1 <0>        -0.5839
      8 H1          3.3926   -3.3425    4.0061 H         1 <0>         0.4239
      9 C7          4.1361   -1.3969    3.9766 C.2       1 <0>         0.0914
     10 C8          3.7696   -0.2991    3.2962 C.2       1 <0>        -0.2135
     11 C9          4.4115    1.0619    3.3775 C.3       1 <0>        -0.0662
     12 C10         3.6490    1.9261    4.3837 C.3       1 <0>        -0.0067
     13 C11         2.1022    1.4838    1.3022 C.3       1 <0>        -0.0707
     14 C12         1.4326    1.9254   -0.0013 C.3       1 <0>        -0.1649
     15 C13        -0.0173    1.4238    0.0099 C.3       1 <0>         0.0602
     16 O1          0.0021   -0.0041    0.0020 O.3       1 <0>        -0.3117
     17 H2          1.1546   -3.7273    2.2459 H         1 <0>         0.1339
     18 H3         -0.2363   -2.4959    0.6509 H         1 <0>         0.1410
     19 H4          4.9521   -1.4452    4.6825 H         1 <0>         0.1733
     20 H5          5.4472    0.9564    3.7006 H         1 <0>         0.0919
     21 H6          4.3835    1.5361    2.3965 H         1 <0>         0.0942
     22 H7          2.6133    2.0316    4.0607 H         1 <0>         0.1332
     23 H8          3.6770    1.4519    5.3648 H         1 <0>         0.1326
     24 H9          4.3192    3.6866    3.5532 H         1 <0>         0.4359
     25 H10         3.7889    3.8430    5.1217 H         1 <0>         0.4398
     26 H11         1.7059    2.0713    2.1304 H         1 <0>         0.0665
     27 H12         3.1781    1.6424    1.2288 H         1 <0>         0.0784
     28 H13         1.9636    1.4963   -0.8510 H         1 <0>         0.0821
     29 H14         1.4448    3.0131   -0.0707 H         1 <0>         0.0861
     30 H15        -0.5392    1.7890   -0.8746 H         1 <0>         0.1119
     31 H16        -0.5222    1.7794    0.9080 H         1 <0>         0.0642
     32 N2          4.2977    3.2463    4.4715 N.4       1 <0>        -0.6482
     33 H17         5.2602    3.1276    4.8088 H         1 <0>         0.4392
@<TRIPOS>BOND
     1    1    6 ar
     2    1    2 ar
     3    1   17 1
     4    2    3 ar
     5    2   18 1
     6    3   16 1
     7    3    4 ar
     8    4    5 ar
     9    4   13 1
    10    5   10 1
    11    5    6 ar
    12    6    7 1
    13    7    8 1
    14    7    9 1
    15    9   10 2
    16    9   19 1
    17   10   11 1
    18   11   12 1
    19   11   20 1
    20   11   21 1
    21   12   22 1
    22   12   23 1
    23   12   32 1
    24   13   14 1
    25   13   26 1
    26   13   27 1
    27   14   15 1
    28   14   28 1
    29   14   29 1
    30   15   16 1
    31   15   30 1
    32   15   31 1
    33   24   32 1
    34   25   32 1
    35   32   33 1
@<TRIPOS>MOLECULE
ZINC02516018
   42    45     0     0     0
SMALL
USER_CHARGES

@<TRIPOS>ATOM
      1 C1         -0.1860    1.3185   -0.8853 C.3       1 <0>        -0.0470
      2 N1         -0.0797   -0.0752   -0.4333 N.4       1 <0>        -0.3855
      3 C2          0.1907   -0.9426   -1.5868 C.3       1 <0>        -0.0219
      4 C3          0.1880   -2.4068   -1.1352 C.3       1 <0>         0.1040
      5 N2          1.1441   -2.5548   -0.0269 N.pl3     1 <0>        -0.6096
      6 C4          1.0479   -1.6159    1.1015 C.3       1 <0>         0.0886
      7 C5          1.0100   -0.1890    0.5444 C.3       1 <0>        -0.0219
      8 C6          2.1048   -3.5477   -0.0452 C.2       1 <0>         0.4845
      9 C7          2.7058   -4.0075    1.2067 C.2       1 <0>        -0.0476
     10 C8          2.5234   -3.6518    2.5251 C.2       1 <0>        -0.1441
     11 C9          3.3872   -4.4452    3.2875 C.2       1 <0>        -0.1659
     12 C10         4.0677   -5.2545    2.4395 C.2       1 <0>         0.0202
     13 N3          3.6637   -4.9997    1.1696 N.pl3     1 <0>        -0.3550
     14 C11         4.0278   -5.5327   -0.0637 C.ar      1 <0>         0.0977
     15 C12         4.9878   -6.5325   -0.1372 C.ar      1 <0>        -0.1121
     16 C13         5.3451   -7.0580   -1.3623 C.ar      1 <0>        -0.0561
     17 C14         4.7502   -6.5931   -2.5249 C.ar      1 <0>        -0.1673
     18 C15         3.7965   -5.6017   -2.4718 C.ar      1 <0>        -0.0269
     19 C16         3.4219   -5.0578   -1.2370 C.ar      1 <0>         0.1239
     20 N4          2.4755   -4.0835   -1.1873 N.2       1 <0>        -0.5424
     21 C17         5.1504   -7.1764   -3.8556 C.3       1 <0>         0.5116
     22 F1          6.1269   -8.1588   -3.6594 F         1 <0>        -0.1706
     23 F2          4.0309   -7.7478   -4.4699 F         1 <0>        -0.1713
     24 F3          5.6649   -6.1641   -4.6727 F         1 <0>        -0.1719
     25 H1          0.7524    1.6227   -1.3490 H         1 <0>         0.1220
     26 H2         -0.9946    1.4044   -1.6111 H         1 <0>         0.1262
     27 H3         -0.3946    1.9626   -0.0310 H         1 <0>         0.1260
     28 H4         -0.5809   -0.7939   -2.3422 H         1 <0>         0.1448
     29 H5          1.1648   -0.6940   -2.0081 H         1 <0>         0.1348
     30 H6         -0.8104   -2.6840   -0.7971 H         1 <0>         0.0940
     31 H7          0.4876   -3.0467   -1.9652 H         1 <0>         0.1392
     32 H8          0.1362   -1.8132    1.6655 H         1 <0>         0.0999
     33 H9          1.9160   -1.7328    1.7503 H         1 <0>         0.1385
     34 H10         1.9592    0.0368    0.0586 H         1 <0>         0.1339
     35 H11         0.8421    0.5150    1.3593 H         1 <0>         0.1467
     36 H12         1.8423   -2.9018    2.8993 H         1 <0>         0.1549
     37 H13         3.4934   -4.4176    4.3619 H         1 <0>         0.1612
     38 H14         4.8108   -5.9833    2.7278 H         1 <0>         0.1810
     39 H15         5.4555   -6.8990    0.7646 H         1 <0>         0.1481
     40 H16         6.0927   -7.8356   -1.4155 H         1 <0>         0.1560
     41 H17         3.3377   -5.2438   -3.3817 H         1 <0>         0.1538
     42 H18        -0.9478   -0.3546   -0.0016 H         1 <0>         0.4256
@<TRIPOS>BOND
     1    1    2 1
     2    1   25 1
     3    1   26 1
     4    1   27 1
     5    2    7 1
     6    2    3 1
     7    2   42 1
     8    3    4 1
     9    3   28 1
    10    3   29 1
    11    4    5 1
    12    4   30 1
    13    4   31 1
    14    5    6 1
    15    5    8 1
    16    6    7 1
    17    6   32 1
    18    6   33 1
    19    7   34 1
    20    7   35 1
    21    8   20 2
    22    8    9 1
    23    9   13 1
    24    9   10 2
    25   10   11 1
    26   10   36 1
    27   11   12 2
    28   11   37 1
    29   12   13 1
    30   12   38 1
    31   13   14 1
    32   14   19 ar
    33   14   15 ar
    34   15   16 ar
    35   15   39 1
    36   16   17 ar
    37   16   40 1
    38   17   18 ar
    39   17   21 1
    40   18   19 ar
    41   18   41 1
    42   19   20 1
    43   21   22 1
    44   21   23 1
    45   21   24 1
@<TRIPOS>MOLECULE
ZINC02516018
   41    44     0     0     0
SMALL
USER_CHARGES

@<TRIPOS>ATOM
      1 C1         -0.1164    1.3382    0.8434 C.3       1 <0>         0.0241
      2 N1         -0.0480   -0.0683    0.4251 N.3       1 <0>        -0.5421
      3 C2          0.9240   -0.2477   -0.6616 C.3       1 <0>         0.0380
      4 C3          0.8354   -1.6834   -1.1900 C.3       1 <0>         0.1350
      5 N2          0.9912   -2.6085   -0.0572 N.pl3     1 <0>        -0.5914
      6 C4          0.1441   -2.4063    1.1280 C.3       1 <0>         0.1130
      7 C5          0.2600   -0.9422    1.5651 C.3       1 <0>         0.0374
      8 C6          1.9088   -3.6406   -0.1055 C.2       1 <0>         0.4952
      9 C7          2.5321   -4.1237    1.1264 C.2       1 <0>        -0.0389
     10 C8          2.4093   -3.7594    2.4494 C.2       1 <0>        -0.1413
     11 C9          3.2648   -4.5872    3.1841 C.2       1 <0>        -0.1716
     12 C10         3.8820   -5.4249    2.3156 C.2       1 <0>         0.0082
     13 N3          3.4463   -5.1549    1.0594 N.pl3     1 <0>        -0.3564
     14 C11         3.7460   -5.7037   -0.1842 C.ar      1 <0>         0.0844
     15 C12         4.6606   -6.7426   -0.2876 C.ar      1 <0>        -0.1096
     16 C13         4.9541   -7.2838   -1.5228 C.ar      1 <0>        -0.0739
     17 C14         4.3400   -6.7958   -2.6658 C.ar      1 <0>        -0.1692
     18 C15         3.4307   -5.7656   -2.5829 C.ar      1 <0>        -0.0360
     19 C16         3.1210   -5.2053   -1.3374 C.ar      1 <0>         0.1422
     20 N4          2.2180   -4.1925   -1.2582 N.2       1 <0>        -0.5575
     21 C17         4.6704   -7.3966   -4.0078 C.3       1 <0>         0.5124
     22 F1          5.6114   -8.4185   -3.8423 F         1 <0>        -0.1745
     23 F2          3.5080   -7.9216   -4.5826 F         1 <0>        -0.1732
     24 F3          5.1985   -6.4074   -4.8443 F         1 <0>        -0.1734
     25 H1          0.8426    1.6389    1.2652 H         1 <0>         0.0270
     26 H2         -0.3457    1.9632   -0.0197 H         1 <0>         0.0715
     27 H3         -0.8969    1.4561    1.5951 H         1 <0>         0.0720
     28 H4          0.7011    0.4511   -1.4679 H         1 <0>         0.0913
     29 H5          1.9295   -0.0602   -0.2849 H         1 <0>         0.0392
     30 H6         -0.1350   -1.8410   -1.6607 H         1 <0>         0.0775
     31 H7          1.6300   -1.8561   -1.9158 H         1 <0>         0.0931
     32 H8         -0.8927   -2.6335    0.8801 H         1 <0>         0.0813
     33 H9          0.4817   -3.0571    1.9346 H         1 <0>         0.1005
     34 H10         1.2747   -0.7450    1.9108 H         1 <0>         0.0425
     35 H11        -0.4445   -0.7471    2.3736 H         1 <0>         0.0918
     36 H12         1.7731   -2.9813    2.8446 H         1 <0>         0.1559
     37 H13         3.4083   -4.5629    4.2543 H         1 <0>         0.1563
     38 H14         4.6036   -6.1837    2.5804 H         1 <0>         0.1758
     39 H15         5.1430   -7.1274    0.5988 H         1 <0>         0.1424
     40 H16         5.6666   -8.0919   -1.5994 H         1 <0>         0.1495
     41 H17         2.9566   -5.3898   -3.4776 H         1 <0>         0.1515
@<TRIPOS>BOND
     1    1    2 1
     2    1   25 1
     3    1   26 1
     4    1   27 1
     5    2    7 1
     6    2    3 1
     7    3    4 1
     8    3   28 1
     9    3   29 1
    10    4    5 1
    11    4   30 1
    12    4   31 1
    13    5    6 1
    14    5    8 1
    15    6    7 1
    16    6   32 1
    17    6   33 1
    18    7   34 1
    19    7   35 1
    20    8   20 2
    21    8    9 1
    22    9   13 1
    23    9   10 2
    24   10   11 1
    25   10   36 1
    26   11   12 2
    27   11   37 1
    28   12   13 1
    29   12   38 1
    30   13   14 1
    31   14   19 ar
    32   14   15 ar
    33   15   16 ar
    34   15   39 1
    35   16   17 ar
    36   16   40 1
    37   17   18 ar
    38   17   21 1
    39   18   19 ar
    40   18   41 1
    41   19   20 1
    42   21   22 1
    43   21   23 1
    44   21   24 1
@<TRIPOS>MOLECULE
ZINC00056464
   30    31     0     0     0
SMALL
USER_CHARGES

@<TRIPOS>ATOM
      1 C1          2.3803    1.4154    0.0012 C.ar      1 <0>        -0.0679
      2 C2          1.1706    2.0859    0.0021 C.ar      1 <0>        -0.1090
      3 C3         -0.0163    1.3769   -0.0041 C.ar      1 <0>        -0.1302
      4 C4          0.0024   -0.0042   -0.0117 C.ar      1 <0>        -0.1396
      5 C5          1.2154   -0.6807   -0.0131 C.ar      1 <0>         0.1972
      6 C6          2.4063    0.0349   -0.0064 C.ar      1 <0>        -0.1554
      7 N1          1.2380   -2.0772   -0.0208 N.pl3     1 <0>        -0.6444
      8 C7          2.5064   -2.8125   -0.1411 C.3       1 <0>         0.0969
      9 C8          2.5675   -3.8614    0.9742 C.3       1 <0>        -0.0235
     10 N2          1.3686   -4.7073    0.9155 N.4       1 <0>        -0.5041
     11 C9          0.1737   -3.9014    1.1960 C.3       1 <0>        -0.0226
     12 C10        -0.0054   -2.8545    0.0974 C.3       1 <0>         0.0946
     13 C11        -1.3320    2.1118   -0.0021 C.3       1 <0>         0.5058
     14 F1         -1.0960    3.4907    0.0064 F         1 <0>        -0.1705
     15 F2         -2.0588    1.7701   -1.1476 F         1 <0>        -0.1737
     16 F3         -2.0627    1.7568    1.1369 F         1 <0>        -0.1752
     17 H1          3.3057    1.9723    0.0018 H         1 <0>         0.1434
     18 H2          1.1532    3.1658    0.0080 H         1 <0>         0.1444
     19 H3         -0.9251   -0.5574   -0.0162 H         1 <0>         0.1345
     20 H4          3.3512   -0.4881   -0.0074 H         1 <0>         0.1338
     21 H5          2.5527   -3.3067   -1.1115 H         1 <0>         0.0922
     22 H6          3.3422   -2.1203   -0.0390 H         1 <0>         0.1279
     23 H7          3.4554   -4.4799    0.8433 H         1 <0>         0.1458
     24 H8          2.6122   -3.3612    1.9416 H         1 <0>         0.1353
     25 H9          1.2902   -5.1139   -0.0047 H         1 <0>         0.4291
     26 H10        -0.7022   -4.5493    1.2286 H         1 <0>         0.1464
     27 H11         0.2909   -3.3999    2.1567 H         1 <0>         0.1354
     28 H12        -0.8295   -2.1900    0.3570 H         1 <0>         0.1263
     29 H13        -0.2170   -3.3529   -0.8486 H         1 <0>         0.0922
     30 H14         1.4444   -5.4441    1.6007 H         1 <0>         0.4350
@<TRIPOS>BOND
     1    1    6 ar
     2    1    2 ar
     3    1   17 1
     4    2    3 ar
     5    2   18 1
     6    3    4 ar
     7    3   13 1
     8    4    5 ar
     9    4   19 1
    10    5    6 ar
    11    5    7 1
    12    6   20 1
    13    7   12 1
    14    7    8 1
    15    8    9 1
    16    8   21 1
    17    8   22 1
    18    9   10 1
    19    9   23 1
    20    9   24 1
    21   10   11 1
    22   10   25 1
    23   10   30 1
    24   11   12 1
    25   11   26 1
    26   11   27 1
    27   12   28 1
    28   12   29 1
    29   13   14 1
    30   13   15 1
    31   13   16 1
@<TRIPOS>MOLECULE
ZINC02012156
   29    30     0     0     0
SMALL
USER_CHARGES

@<TRIPOS>ATOM
      1 C1         -0.0187    1.5258    0.0104 C.3       1 <0>        -0.1843
      2 C2          0.0021   -0.0041    0.0020 C.3       1 <0>         0.0303
      3 H1          0.5123   -0.3556   -0.8948 H         1 <0>         0.1414
      4 C3          0.7421   -0.5109    1.2415 C.3       1 <0>        -0.0606
      5 C4          0.8700   -2.0108    1.1719 C.2       1 <0>        -0.2215
      6 C5          0.0429   -2.9093    1.7294 C.2       1 <0>         0.0618
      7 N1          0.4769   -4.1770    1.4539 N.pl3     1 <0>        -0.5842
      8 H2          0.0419   -4.9918    1.7501 H         1 <0>         0.4252
      9 C6          1.6250   -4.1237    0.6917 C.ar      1 <0>         0.0871
     10 C7          1.9169   -2.7646    0.4777 C.ar      1 <0>        -0.0854
     11 C8          3.0353   -2.4011   -0.2753 C.ar      1 <0>        -0.1109
     12 C9          3.8469   -3.3826   -0.8086 C.ar      1 <0>         0.0983
     13 C10         3.5533   -4.7271   -0.5977 C.ar      1 <0>        -0.1135
     14 C11         2.4572   -5.0970    0.1496 C.ar      1 <0>        -0.1049
     15 O1          4.9372   -3.0346   -1.5431 O.3       1 <0>        -0.4967
     16 N2         -1.3761   -0.5125    0.0124 N.4       1 <0>        -0.6362
     17 H3          1.0039    1.9031    0.0027 H         1 <0>         0.1072
     18 H4         -0.5459    1.8868   -0.8726 H         1 <0>         0.0828
     19 H5         -0.5289    1.8773    0.9072 H         1 <0>         0.0826
     20 H6          1.7350   -0.0630    1.2804 H         1 <0>         0.1171
     21 H7          0.1838   -0.2350    2.1361 H         1 <0>         0.0951
     22 H8         -0.8351   -2.6671    2.3099 H         1 <0>         0.1730
     23 H9          3.2639   -1.3585   -0.4398 H         1 <0>         0.1304
     24 H10         4.1943   -5.4871   -1.0195 H         1 <0>         0.1401
     25 H11         2.2380   -6.1429    0.3057 H         1 <0>         0.1319
     26 H12         5.7443   -2.9260   -1.0217 H         1 <0>         0.3962
     27 H13        -1.8641   -0.1783   -0.8050 H         1 <0>         0.4353
     28 H14        -1.3624   -1.5214    0.0069 H         1 <0>         0.4321
     29 H15        -1.8484   -0.1871    0.8426 H         1 <0>         0.4304
@<TRIPOS>BOND
     1    1    2 1
     2    1   17 1
     3    1   18 1
     4    1   19 1
     5    2    3 1
     6    2    4 1
     7    2   16 1
     8    4    5 1
     9    4   20 1
    10    4   21 1
    11    5   10 1
    12    5    6 2
    13    6    7 1
    14    6   22 1
    15    7    8 1
    16    7    9 1
    17    9   14 ar
    18    9   10 ar
    19   10   11 ar
    20   11   12 ar
    21   11   23 1
    22   12   13 ar
    23   12   15 1
    24   13   14 ar
    25   13   24 1
    26   14   25 1
    27   15   26 1
    28   16   27 1
    29   16   28 1
    30   16   29 1
@<TRIPOS>MOLECULE
ZINC02012157
   29    30     0     0     0
SMALL
USER_CHARGES

@<TRIPOS>ATOM
      1 C1         -0.0187    1.5258    0.0104 C.3       1 <0>        -0.1852
      2 C2          0.0021   -0.0041    0.0020 C.3       1 <0>         0.0317
      3 H1          0.5123   -0.3556   -0.8948 H         1 <0>         0.1402
      4 C3         -1.4333   -0.5336    0.0129 C.3       1 <0>        -0.0593
      5 C4         -1.4159   -2.0348   -0.1192 C.2       1 <0>        -0.2375
      6 C5         -1.5375   -2.7375   -1.2565 C.2       1 <0>         0.1041
      7 N1         -1.4747   -4.0771   -0.9862 N.pl3     1 <0>        -0.5844
      8 H2         -1.5385   -4.7829   -1.6485 H         1 <0>         0.4270
      9 C6         -1.3066   -4.2742    0.3683 C.ar      1 <0>         0.0898
     10 C7         -1.2568   -3.0032    0.9684 C.ar      1 <0>        -0.1004
     11 C8         -1.0862   -2.8897    2.3497 C.ar      1 <0>        -0.1441
     12 C9         -0.9639   -4.0306    3.1179 C.ar      1 <0>         0.1080
     13 C10        -1.0103   -5.2872    2.5203 C.ar      1 <0>        -0.1195
     14 C11        -1.1858   -5.4111    1.1599 C.ar      1 <0>        -0.0925
     15 O1         -0.7971   -3.9263    4.4635 O.3       1 <0>        -0.4983
     16 N2          0.7126   -0.4907    1.1921 N.4       1 <0>        -0.6383
     17 H3          1.0039    1.9031    0.0027 H         1 <0>         0.0828
     18 H4         -0.5459    1.8868   -0.8726 H         1 <0>         0.1071
     19 H5         -0.5289    1.8773    0.9072 H         1 <0>         0.0825
     20 H6         -1.9156   -0.2570    0.9504 H         1 <0>         0.0941
     21 H7         -1.9862   -0.1019   -0.8214 H         1 <0>         0.1174
     22 H8         -1.6662   -2.3088   -2.2393 H         1 <0>         0.1797
     23 H9         -1.0497   -1.9155    2.8143 H         1 <0>         0.1217
     24 H10        -0.9133   -6.1734    3.1300 H         1 <0>         0.1417
     25 H11        -1.2188   -6.3908    0.7066 H         1 <0>         0.1345
     26 H12        -1.6252   -3.9158    4.9628 H         1 <0>         0.3991
     27 H13         0.2403   -0.1653    2.0223 H         1 <0>         0.4297
     28 H14         0.7262   -1.4996    1.1866 H         1 <0>         0.4348
     29 H15         1.6592   -0.1415    1.1850 H         1 <0>         0.4335
@<TRIPOS>BOND
     1    1    2 1
     2    1   17 1
     3    1   18 1
     4    1   19 1
     5    2    3 1
     6    2    4 1
     7    2   16 1
     8    4    5 1
     9    4   20 1
    10    4   21 1
    11    5   10 1
    12    5    6 2
    13    6    7 1
    14    6   22 1
    15    7    8 1
    16    7    9 1
    17    9   14 ar
    18    9   10 ar
    19   10   11 ar
    20   11   12 ar
    21   11   23 1
    22   12   13 ar
    23   12   15 1
    24   13   14 ar
    25   13   24 1
    26   14   25 1
    27   15   26 1
    28   16   27 1
    29   16   28 1
    30   16   29 1
@<TRIPOS>MOLECULE
ZINC13806045
   34    35     0     0     0
SMALL
USER_CHARGES
2-(4-tert-butylphenyl)-4,5-dihydro-1H-imidazole
@<TRIPOS>ATOM
      1 C1          3.2463    3.5785   -1.2590 C.3       1 <0>        -0.1438
      2 C2          2.4523    3.9333   -0.0003 C.3       1 <0>        -0.0426
      3 C3          2.1576    5.4346    0.0106 C.3       1 <0>        -0.1526
      4 C4          3.2702    3.5651    1.2393 C.3       1 <0>        -0.1438
      5 C5          1.1549    3.1666    0.0080 C.ar      1 <0>         0.0014
      6 C6          1.1721    1.7834    0.0004 C.ar      1 <0>        -0.1131
      7 C7         -0.0126    1.0758    0.0080 C.ar      1 <0>        -0.0575
      8 C8         -1.2288    1.7581    0.0174 C.ar      1 <0>        -0.1476
      9 C9         -1.2396    3.1526    0.0299 C.ar      1 <0>        -0.0512
     10 C10        -0.0484    3.8490    0.0227 C.ar      1 <0>        -0.1199
     11 C11        -2.5038    1.0047    0.0194 C.cat     1 <0>         0.5688
     12 C12        -3.9548   -0.7359    0.0180 C.3       1 <0>         0.0562
     13 C13        -4.7688    0.5732    0.0289 C.3       1 <0>         0.0688
     14 N1         -3.7303    1.6171    0.0339 N.pl3     1 <0>        -0.6691
     15 H1          2.6637    3.8408   -2.1421 H         1 <0>         0.0603
     16 H2          4.1847    4.1330   -1.2650 H         1 <0>         0.0710
     17 H3          3.4563    2.5089   -1.2668 H         1 <0>         0.0606
     18 H4          1.5919    5.6873    0.9074 H         1 <0>         0.0626
     19 H5          3.0960    5.9891    0.0046 H         1 <0>         0.0703
     20 H6          1.5750    5.6969   -0.8725 H         1 <0>         0.0626
     21 H7          3.4801    2.4955    1.2316 H         1 <0>         0.0606
     22 H8          4.2085    4.1196    1.2333 H         1 <0>         0.0710
     23 H9          2.7045    3.8179    2.1361 H         1 <0>         0.0603
     24 H10         2.1146    1.2562   -0.0110 H         1 <0>         0.1460
     25 H11         0.0021   -0.0041    0.0020 H         1 <0>         0.1339
     26 H12        -2.1784    3.6864    0.0413 H         1 <0>         0.1352
     27 H13        -0.0554    4.9289    0.0289 H         1 <0>         0.1510
     28 H14        -4.1733   -1.3142   -0.8798 H         1 <0>         0.1271
     29 H15        -4.1640   -1.3232    0.9121 H         1 <0>         0.1271
     30 H16        -5.3891    0.6477   -0.8644 H         1 <0>         0.1216
     31 H17        -5.3820    0.6373    0.9277 H         1 <0>         0.1215
     32 H18        -3.8872    2.5742    0.0440 H         1 <0>         0.4549
     33 N2         -2.5525   -0.2887    0.0131 N.pl3     1 <0>        -0.6242
     34 H19        -1.7350   -0.9100    0.0057 H         1 <0>         0.4725
@<TRIPOS>BOND
     1    1    2 1
     2    1   15 1
     3    1   16 1
     4    1   17 1
     5    2    3 1
     6    2    4 1
     7    2    5 1
     8    3   18 1
     9    3   19 1
    10    3   20 1
    11    4   21 1
    12    4   22 1
    13    4   23 1
    14    5   10 ar
    15    5    6 ar
    16    6    7 ar
    17    6   24 1
    18    7    8 ar
    19    7   25 1
    20    8    9 ar
    21    8   11 1
    22    9   10 ar
    23    9   26 1
    24   10   27 1
    25   11   14 1
    26   11   33 2
    27   12   13 1
    28   12   28 1
    29   12   29 1
    30   12   33 1
    31   13   14 1
    32   13   30 1
    33   13   31 1
    34   14   32 1
    35   33   34 1
@<TRIPOS>MOLECULE
ZINC02516045
   33    35     0     0     0
SMALL
USER_CHARGES

@<TRIPOS>ATOM
      1 C1         -0.0164    1.3568    0.0095 C.ar      1 <0>        -0.1126
      2 C2          1.1685    2.0902    0.0021 C.ar      1 <0>        -0.1056
      3 C3          2.3785    1.4660   -0.0127 C.ar      1 <0>        -0.1107
      4 C4          2.4369    0.0637   -0.0208 C.ar      1 <0>        -0.0518
      5 C5          1.2329   -0.6830   -0.0133 C.ar      1 <0>        -0.0490
      6 C6          0.0021   -0.0041    0.0020 C.ar      1 <0>        -0.1001
      7 C7          1.2897   -2.0870   -0.0204 C.ar      1 <0>        -0.0877
      8 C8          2.4960   -2.7188   -0.0343 C.ar      1 <0>        -0.1184
      9 C9          3.6853   -1.9966   -0.0413 C.ar      1 <0>        -0.1083
     10 C10         3.6728   -0.6178   -0.0357 C.ar      1 <0>         0.1496
     11 N1          4.8691    0.0961   -0.0437 N.pl3     1 <0>        -0.6725
     12 C11         5.5338    0.4724    1.2136 C.3       1 <0>         0.1164
     13 C12         7.0032    0.0457    1.1328 C.3       1 <0>        -0.0236
     14 N2          7.6138    0.6222   -0.0717 N.4       1 <0>        -0.5026
     15 C13         6.9746    0.0667   -1.2713 C.3       1 <0>        -0.0233
     16 C14         5.5067    0.4896   -1.3097 C.3       1 <0>         0.1159
     17 H1         -0.9633    1.8759    0.0259 H         1 <0>         0.1287
     18 H2          1.1264    3.1693    0.0079 H         1 <0>         0.1252
     19 H3          3.2888    2.0471   -0.0187 H         1 <0>         0.1205
     20 H4         -0.9241   -0.5595    0.0082 H         1 <0>         0.1330
     21 H5          0.3773   -2.6647   -0.0144 H         1 <0>         0.1332
     22 H6          2.5301   -3.7982   -0.0396 H         1 <0>         0.1296
     23 H7          4.6289   -2.5219   -0.0517 H         1 <0>         0.1206
     24 H8          5.4729    1.5520    1.3511 H         1 <0>         0.0790
     25 H9          5.0507   -0.0340    2.0491 H         1 <0>         0.1164
     26 H10         7.5342    0.4020    2.0155 H         1 <0>         0.1398
     27 H11         7.0639   -1.0416    1.0862 H         1 <0>         0.1321
     28 H12         7.4939    1.6240   -0.0616 H         1 <0>         0.4274
     29 H13         7.4845    0.4385   -2.1601 H         1 <0>         0.1402
     30 H14         7.0361   -1.0212   -1.2452 H         1 <0>         0.1320
     31 H15         5.0057   -0.0055   -2.1415 H         1 <0>         0.1165
     32 H16         5.4430    1.5709   -1.4312 H         1 <0>         0.0785
     33 H17         8.5988    0.4040   -0.0854 H         1 <0>         0.4316
@<TRIPOS>BOND
     1    1    6 ar
     2    1    2 ar
     3    1   17 1
     4    2    3 ar
     5    2   18 1
     6    3    4 ar
     7    3   19 1
     8    4   10 ar
     9    4    5 ar
    10    5    6 ar
    11    5    7 ar
    12    6   20 1
    13    7    8 ar
    14    7   21 1
    15    8    9 ar
    16    8   22 1
    17    9   10 ar
    18    9   23 1
    19   10   11 1
    20   11   16 1
    21   11   12 1
    22   12   13 1
    23   12   24 1
    24   12   25 1
    25   13   14 1
    26   13   26 1
    27   13   27 1
    28   14   15 1
    29   14   28 1
    30   14   33 1
    31   15   16 1
    32   15   29 1
    33   15   30 1
    34   16   31 1
    35   16   32 1
@<TRIPOS>MOLECULE
ZINC03716177
   33    35     0     0     0
SMALL
USER_CHARGES
1-(2-naphthyl)piperazine
@<TRIPOS>ATOM
      1 C1         -0.0126    1.0758    0.0080 C.ar      1 <0>        -0.1119
      2 C2         -1.2348    1.7455    0.0175 C.ar      1 <0>        -0.0997
      3 C3         -1.2880    3.1053    0.0310 C.ar      1 <0>        -0.1149
      4 C4         -0.0946    3.8484    0.0236 C.ar      1 <0>        -0.0318
      5 C5         -0.1122    5.2526    0.0308 C.ar      1 <0>        -0.1143
      6 C6          1.0780    5.9460    0.0227 C.ar      1 <0>         0.0845
      7 C7          2.3015    5.2649    0.0079 C.ar      1 <0>        -0.1631
      8 C8          2.3444    3.9066    0.0002 C.ar      1 <0>        -0.0683
      9 C9          1.1485    3.1673    0.0081 C.ar      1 <0>        -0.0637
     10 C10         1.1628    1.7621    0.0004 C.ar      1 <0>        -0.1017
     11 N1          1.0644    7.3421    0.0298 N.pl3     1 <0>        -0.4868
     12 C11         0.3072    7.8555    1.1799 C.3       1 <0>         0.0231
     13 C12         0.2487    9.3832    1.1078 C.3       1 <0>         0.0009
     14 C13         2.3726    9.4098   -0.0529 C.3       1 <0>         0.0010
     15 C14         2.4311    7.8821    0.0192 C.3       1 <0>         0.0188
     16 H1          0.0021   -0.0041    0.0020 H         1 <0>         0.1295
     17 H2         -2.1530    1.1770    0.0188 H         1 <0>         0.1295
     18 H3         -2.2422    3.6111    0.0429 H         1 <0>         0.1298
     19 H4         -1.0519    5.7849    0.0430 H         1 <0>         0.1314
     20 H5          3.2237    5.8268    0.0024 H         1 <0>         0.1274
     21 H6          3.2959    3.3957   -0.0113 H         1 <0>         0.1341
     22 H7          2.1021    1.2291   -0.0118 H         1 <0>         0.1315
     23 H8         -0.7049    7.4514    1.1587 H         1 <0>         0.1276
     24 H9          0.8003    7.5537    2.1040 H         1 <0>         0.0697
     25 H10        -0.2876    9.7679    1.9753 H         1 <0>         0.1412
     26 H11        -0.2685    9.6847    0.1970 H         1 <0>         0.1406
     27 H12         3.3847    9.8139   -0.0316 H         1 <0>         0.1413
     28 H13         1.8798    9.7116   -0.9771 H         1 <0>         0.1404
     29 H14         2.9483    7.5806    0.9301 H         1 <0>         0.0716
     30 H15         2.9675    7.4971   -0.8480 H         1 <0>         0.1296
     31 N2          1.6190    9.9295    1.1040 N.4       1 <0>        -0.5189
     32 H16         2.0960    9.6543    1.9705 H         1 <0>         0.4313
     33 H17         1.5754   10.9537    1.0477 H         1 <0>         0.4401
@<TRIPOS>BOND
     1    1   10 ar
     2    1    2 ar
     3    1   16 1
     4    2    3 ar
     5    2   17 1
     6    3    4 ar
     7    3   18 1
     8    4    9 ar
     9    4    5 ar
    10    5    6 ar
    11    5   19 1
    12    6    7 ar
    13    6   11 1
    14    7    8 ar
    15    7   20 1
    16    8    9 ar
    17    8   21 1
    18    9   10 ar
    19   10   22 1
    20   11   15 1
    21   11   12 1
    22   12   13 1
    23   12   23 1
    24   12   24 1
    25   13   25 1
    26   13   26 1
    27   13   31 1
    28   14   15 1
    29   14   27 1
    30   14   28 1
    31   14   31 1
    32   15   29 1
    33   15   30 1
    34   31   32 1
    35   31   33 1
@<TRIPOS>MOLECULE
ZINC01485772
   72    78     0     0     0
SMALL
USER_CHARGES

@<TRIPOS>ATOM
      1 C1          1.6163   -2.3774    2.2231 C.3       1 <0>        -0.1210
      2 C2          0.7907   -1.8729    1.0678 C.ar      1 <0>        -0.0703
      3 C3          0.7856   -2.5590   -0.1268 C.ar      1 <0>        -0.0750
      4 C4          0.0218   -2.0923   -1.1958 C.ar      1 <0>        -0.0250
      5 C5         -0.7377   -0.9310   -1.0559 C.ar      1 <0>        -0.0679
      6 C6         -0.7335   -0.2448    0.1381 C.ar      1 <0>        -0.1030
      7 C7          0.0270   -0.7143    1.2096 C.ar      1 <0>        -0.0375
      8 C8          0.0278    0.0210    2.4964 C.ar      1 <0>        -0.0146
      9 C9         -0.1918   -0.6649    3.6916 C.ar      1 <0>        -0.1046
     10 C10        -0.1912    0.0172    4.8873 C.ar      1 <0>        -0.0909
     11 C11         0.0294    1.3968    4.9039 C.ar      1 <0>        -0.1339
     12 C12         0.2492    2.0827    3.7066 C.ar      1 <0>        -0.0597
     13 C13         0.2539    1.3979    2.5125 C.ar      1 <0>        -0.1059
     14 C14         0.0297    2.1297    6.1862 C.2       1 <0>         0.5785
     15 O1          0.8787    2.9722    6.4047 O.2       1 <0>        -0.5160
     16 N1         -0.9110    1.8645    7.1142 N.am      1 <0>        -0.5470
     17 C15        -1.9155    0.8024    7.0129 C.3       1 <0>         0.0945
     18 C16        -2.7442    0.9064    8.3035 C.3       1 <0>        -0.0909
     19 C17        -2.1250    2.0587    9.0631 C.ar      1 <0>        -0.0840
     20 C18        -1.0682    2.5589    8.3186 C.ar      1 <0>         0.1264
     21 C19        -0.3317    3.6304    8.8266 C.ar      1 <0>        -0.0743
     22 C20        -0.6510    4.1775   10.0474 C.ar      1 <0>        -0.1528
     23 C21        -1.7139    3.6796   10.7934 C.ar      1 <0>         0.0923
     24 C22        -2.4493    2.6134   10.2842 C.ar      1 <0>        -0.0924
     25 O2         -1.8731    4.3767   11.9536 O.3       1 <0>        -0.2917
     26 C23        -0.6597    5.0931   12.2468 C.3       1 <0>         0.0547
     27 C24        -0.0485    5.3066   10.8496 C.3       1 <0>        -0.0507
     28 C25        -0.4659    6.6581   10.2848 C.3       1 <0>        -0.1313
     29 C26         0.1885    7.7745   11.1041 C.3       1 <0>        -0.0090
     30 N2          1.6481    7.6248   11.0587 N.4       1 <0>        -0.3853
     31 C27         2.0425    6.3640   11.6987 C.3       1 <0>        -0.0088
     32 C28         1.4687    5.1860   10.9056 C.3       1 <0>        -0.1326
     33 C29         2.2759    8.7484   11.7667 C.3       1 <0>        -0.0478
     34 C30         0.0174   -2.8309   -2.4823 C.2       1 <0>         0.2943
     35 N3         -0.6700   -2.4823   -3.5850 N.2       1 <0>        -0.5422
     36 C31        -0.4527   -3.3441   -4.5370 C.2       1 <0>         0.2985
     37 O3          0.3862   -4.2818   -4.0779 O.3       1 <0>        -0.1013
     38 N4          0.6869   -3.9285   -2.7360 N.2       1 <0>        -0.3345
     39 C32        -1.0456   -3.2948   -5.9216 C.3       1 <0>        -0.0761
     40 H1          1.0193   -3.0633    2.8242 H         1 <0>         0.0768
     41 H2          2.4945   -2.8985    1.8419 H         1 <0>         0.0727
     42 H3          1.9323   -1.5354    2.8390 H         1 <0>         0.0730
     43 H4          1.3737   -3.4583   -0.2354 H         1 <0>         0.1367
     44 H5         -1.3290   -0.5695   -1.8843 H         1 <0>         0.1435
     45 H6         -1.3214    0.6547    0.2462 H         1 <0>         0.1363
     46 H7         -0.3627   -1.7312    3.6785 H         1 <0>         0.1372
     47 H8         -0.3616   -0.5138    5.8122 H         1 <0>         0.1350
     48 H9          0.4198    3.1491    3.7185 H         1 <0>         0.1340
     49 H10         0.4285    1.9272    1.5874 H         1 <0>         0.1369
     50 H11        -2.5505    0.9644    6.1419 H         1 <0>         0.0938
     51 H12        -1.4308   -0.1720    6.9524 H         1 <0>         0.0935
     52 H13        -3.7867    1.1219    8.0694 H         1 <0>         0.1026
     53 H14        -2.6660   -0.0150    8.8806 H         1 <0>         0.1026
     54 H15         0.4939    4.0320    8.2578 H         1 <0>         0.1420
     55 H16        -3.2731    2.2100   10.8542 H         1 <0>         0.1392
     56 H17        -0.8802    6.0487   12.7225 H         1 <0>         0.1051
     57 H18         0.0025    4.4930   12.8709 H         1 <0>         0.0872
     58 H19        -0.1445    6.7332    9.2460 H         1 <0>         0.0979
     59 H20        -1.5502    6.7555   10.3383 H         1 <0>         0.1184
     60 H21        -0.0905    8.7423   10.6874 H         1 <0>         0.1375
     61 H22        -0.1509    7.7130   12.1381 H         1 <0>         0.1299
     62 H23         3.1299    6.2921   11.7201 H         1 <0>         0.1372
     63 H24         1.6568    6.3378   12.7179 H         1 <0>         0.1293
     64 H25         1.7413    4.2509   11.3948 H         1 <0>         0.1183
     65 H26         1.8721    5.1982    9.8931 H         1 <0>         0.0989
     66 H27         1.9429    8.7556   12.8045 H         1 <0>         0.1221
     67 H28         3.3599    8.6386   11.7337 H         1 <0>         0.1251
     68 H29         1.9909    9.6849   11.2872 H         1 <0>         0.1250
     69 H30        -0.3884   -2.7246   -6.5781 H         1 <0>         0.1105
     70 H31        -1.1535   -4.3087   -6.3069 H         1 <0>         0.1031
     71 H32        -2.0237   -2.8155   -5.8811 H         1 <0>         0.1111
     72 H33         1.9549    7.6229   10.0975 H         1 <0>         0.4265
@<TRIPOS>BOND
     1    1    2 1
     2    1   40 1
     3    1   41 1
     4    1   42 1
     5    2    7 ar
     6    2    3 ar
     7    3    4 ar
     8    3   43 1
     9    4    5 ar
    10    4   34 1
    11    5    6 ar
    12    5   44 1
    13    6    7 ar
    14    6   45 1
    15    7    8 1
    16    8   13 ar
    17    8    9 ar
    18    9   10 ar
    19    9   46 1
    20   10   11 ar
    21   10   47 1
    22   11   12 ar
    23   11   14 1
    24   12   13 ar
    25   12   48 1
    26   13   49 1
    27   14   15 2
    28   14   16 am
    29   16   20 1
    30   16   17 1
    31   17   18 1
    32   17   50 1
    33   17   51 1
    34   18   19 1
    35   18   52 1
    36   18   53 1
    37   19   24 ar
    38   19   20 ar
    39   20   21 ar
    40   21   22 ar
    41   21   54 1
    42   22   27 1
    43   22   23 ar
    44   23   24 ar
    45   23   25 1
    46   24   55 1
    47   25   26 1
    48   26   27 1
    49   26   56 1
    50   26   57 1
    51   27   32 1
    52   27   28 1
    53   28   29 1
    54   28   58 1
    55   28   59 1
    56   29   30 1
    57   29   60 1
    58   29   61 1
    59   30   31 1
    60   30   33 1
    61   30   72 1
    62   31   32 1
    63   31   62 1
    64   31   63 1
    65   32   64 1
    66   32   65 1
    67   33   66 1
    68   33   67 1
    69   33   68 1
    70   34   38 2
    71   34   35 1
    72   35   36 2
    73   36   37 1
    74   36   39 1
    75   37   38 1
    76   39   69 1
    77   39   70 1
    78   39   71 1
@<TRIPOS>MOLECULE
ZINC05965209
   35    37     0     0     0
SMALL
USER_CHARGES
N,N-dimethylBLAHamine
@<TRIPOS>ATOM
      1 C1          4.8513    1.3271   -0.6298 C.3       1 <0>        -0.0464
      2 C2          3.6378    3.3982   -0.9475 C.3       1 <0>        -0.0468
      3 C3          2.4371    1.3560   -0.4471 C.3       1 <0>         0.0289
      4 H1          2.3366    1.1061   -1.5033 H         1 <0>         0.1425
      5 C4          2.4674    0.0701    0.3880 C.3       1 <0>        -0.1406
      6 C5          1.2823   -0.7986   -0.0269 C.3       1 <0>        -0.0715
      7 C6          0.0021   -0.0041    0.0020 C.ar      1 <0>        -0.1044
      8 C7         -1.1969   -0.7193    0.0182 C.ar      1 <0>        -0.1004
      9 C8         -2.4121   -0.0782    0.0376 C.ar      1 <0>        -0.1077
     10 C9         -2.4534    1.3122    0.0411 C.ar      1 <0>         0.0953
     11 C10        -1.2473    2.0302    0.0309 C.ar      1 <0>        -0.1031
     12 C11        -0.0164    1.3565    0.0095 C.ar      1 <0>        -0.0449
     13 C12         1.2389    2.1893    0.0020 C.3       1 <0>        -0.0900
     14 C13        -1.6183    3.4475    0.0402 C.2       1 <0>        -0.2172
     15 C14        -2.9597    3.5005    0.0615 C.2       1 <0>         0.0674
     16 N1         -3.4765    2.2333    0.0563 N.pl3     1 <0>        -0.5897
     17 H2         -4.4219    2.0165    0.0679 H         1 <0>         0.4219
     18 H3          4.7767    1.0700   -1.6864 H         1 <0>         0.1233
     19 H4          5.7551    1.9125   -0.4612 H         1 <0>         0.1233
     20 H5          4.8937    0.4141   -0.0358 H         1 <0>         0.1233
     21 H6          2.7981    3.9908   -0.5845 H         1 <0>         0.1224
     22 H7          4.5674    3.9397   -0.7721 H         1 <0>         0.1232
     23 H8          3.5193    3.2161   -2.0156 H         1 <0>         0.1234
     24 H9          2.3887    0.3176    1.4467 H         1 <0>         0.0915
     25 H10         3.3984   -0.4659    0.2036 H         1 <0>         0.0925
     26 H11         1.1973   -1.6412    0.6593 H         1 <0>         0.0947
     27 H12         1.4492   -1.1736   -1.0367 H         1 <0>         0.0854
     28 H13        -1.1686   -1.7990    0.0159 H         1 <0>         0.1307
     29 H14        -3.3284   -0.6496    0.0503 H         1 <0>         0.1279
     30 H15         1.1088    3.0285   -0.6813 H         1 <0>         0.0974
     31 H16         1.4229    2.5703    1.0065 H         1 <0>         0.0935
     32 H17        -0.9417    4.2893    0.0315 H         1 <0>         0.1457
     33 H18        -3.5443    4.4086    0.0728 H         1 <0>         0.1755
     34 N2          3.6787    2.1206   -0.2053 N.4       1 <0>        -0.3957
     35 H19         3.7571    2.3205    0.7987 H         1 <0>         0.4288
@<TRIPOS>BOND
     1    1   18 1
     2    1   19 1
     3    1   20 1
     4    1   34 1
     5    2   21 1
     6    2   22 1
     7    2   23 1
     8    2   34 1
     9    3    4 1
    10    3   13 1
    11    3    5 1
    12    3   34 1
    13    5    6 1
    14    5   24 1
    15    5   25 1
    16    6    7 1
    17    6   26 1
    18    6   27 1
    19    7   12 ar
    20    7    8 ar
    21    8    9 ar
    22    8   28 1
    23    9   10 ar
    24    9   29 1
    25   10   16 1
    26   10   11 ar
    27   11   12 ar
    28   11   14 1
    29   12   13 1
    30   13   30 1
    31   13   31 1
    32   14   15 2
    33   14   32 1
    34   15   16 1
    35   15   33 1
    36   16   17 1
    37   34   35 1
@<TRIPOS>MOLECULE
ZINC02599103
   40    41     0     0     0
SMALL
USER_CHARGES
2-(5-isopropyl-1H-indol-3-yl)-N,N-dimethyl-ethanamine
@<TRIPOS>ATOM
      1 C1          3.6757    5.3702    4.6138 C.3       1 <0>        -0.1482
      2 C2          3.7539    4.4310    3.4085 C.3       1 <0>        -0.0540
      3 C3          5.2131    4.0476    3.1545 C.3       1 <0>        -0.1470
      4 C4          2.9491    3.1878    3.6875 C.ar      1 <0>        -0.0850
      5 C5          3.2803    2.3810    4.7677 C.ar      1 <0>        -0.0873
      6 C6          2.5580    1.2401    5.0400 C.ar      1 <0>        -0.1188
      7 C7          1.4854    0.8906    4.2259 C.ar      1 <0>         0.0908
      8 C8          1.1578    1.7080    3.1289 C.ar      1 <0>        -0.0965
      9 C9          1.8996    2.8634    2.8750 C.ar      1 <0>        -0.0839
     10 C10         0.0000    1.0800    2.4877 C.2       1 <0>        -0.2055
     11 C11        -0.2849   -0.0276    3.1905 C.2       1 <0>         0.0834
     12 N1          0.5921   -0.1571    4.2328 N.pl3     1 <0>        -0.5878
     13 H1          0.5858   -0.8797    4.8799 H         1 <0>         0.4227
     14 C12        -0.7288    1.5792    1.2668 C.3       1 <0>        -0.0594
     15 C13        -0.0127    1.0858    0.0080 C.3       1 <0>        -0.0040
     16 C14         0.0585    1.3230   -2.4006 C.3       1 <0>        -0.0424
     17 C15        -2.0591    0.9694   -1.2810 C.3       1 <0>        -0.0468
     18 H2          4.0775    4.8670    5.4932 H         1 <0>         0.0585
     19 H3          4.2578    6.2694    4.4120 H         1 <0>         0.0613
     20 H4          2.6361    5.6434    4.7947 H         1 <0>         0.0560
     21 H5          3.3521    4.9342    2.5291 H         1 <0>         0.0749
     22 H6          5.2688    3.3784    2.2959 H         1 <0>         0.0541
     23 H7          5.7952    4.9468    2.9528 H         1 <0>         0.0612
     24 H8          5.6149    3.5443    4.0340 H         1 <0>         0.0586
     25 H9          4.1129    2.6504    5.4006 H         1 <0>         0.1300
     26 H10         2.8233    0.6192    5.8829 H         1 <0>         0.1253
     27 H11         1.6480    3.4956    2.0363 H         1 <0>         0.1166
     28 H12        -1.0874   -0.7147    2.9665 H         1 <0>         0.1718
     29 H13        -0.7436    2.6691    1.2728 H         1 <0>         0.0902
     30 H14        -1.7514    1.2020    1.2746 H         1 <0>         0.0900
     31 H15         0.0021   -0.0041    0.0020 H         1 <0>         0.1298
     32 H16         1.0099    1.4631    0.0003 H         1 <0>         0.1287
     33 H17         0.2299    0.2520   -2.5094 H         1 <0>         0.1220
     34 H18        -0.4905    1.6929   -3.2665 H         1 <0>         0.1219
     35 H19         1.0161    1.8388   -2.3299 H         1 <0>         0.1209
     36 H20        -2.6409    1.2283   -0.3963 H         1 <0>         0.1224
     37 H21        -2.5631    1.3469   -2.1707 H         1 <0>         0.1217
     38 H22        -1.9644   -0.1143   -1.3492 H         1 <0>         0.1225
     39 N2         -0.7265    1.6008   -1.1794 N.4       1 <0>        -0.3994
     40 H23        -0.8450    2.6161   -1.0829 H         1 <0>         0.4306
@<TRIPOS>BOND
     1    1    2 1
     2    1   18 1
     3    1   19 1
     4    1   20 1
     5    2    3 1
     6    2    4 1
     7    2   21 1
     8    3   22 1
     9    3   23 1
    10    3   24 1
    11    4    9 ar
    12    4    5 ar
    13    5    6 ar
    14    5   25 1
    15    6    7 ar
    16    6   26 1
    17    7   12 1
    18    7    8 ar
    19    8    9 ar
    20    8   10 1
    21    9   27 1
    22   10   11 2
    23   10   14 1
    24   11   12 1
    25   11   28 1
    26   12   13 1
    27   14   15 1
    28   14   29 1
    29   14   30 1
    30   15   31 1
    31   15   32 1
    32   15   39 1
    33   16   33 1
    34   16   34 1
    35   16   35 1
    36   16   39 1
    37   17   36 1
    38   17   37 1
    39   17   38 1
    40   17   39 1
    41   39   40 1
@<TRIPOS>MOLECULE
ZINC29462723
   40    41     0     0     0
SMALL
USER_CHARGES
2-(5-tert-butyl-1-methyl-indol-3-yl)ethanamine
@<TRIPOS>ATOM
      1 C1          0.1332    8.0882    0.0416 C.3       1 <0>        -0.1509
      2 C2          1.1834    6.9756    0.0262 C.3       1 <0>        -0.0272
      3 C3          2.0698    7.0938    1.2677 C.3       1 <0>        -0.1385
      4 C4          2.0460    7.1059   -1.2307 C.3       1 <0>        -0.1405
      5 C5          0.4950    5.6350    0.0263 C.ar      1 <0>        -0.0797
      6 C6         -0.8919    5.5731    0.0392 C.ar      1 <0>        -0.0949
      7 C7         -1.5409    4.3581    0.0395 C.ar      1 <0>        -0.1180
      8 C8         -0.8014    3.1797    0.0268 C.ar      1 <0>         0.0905
      9 C9          0.6036    3.2479    0.0138 C.ar      1 <0>        -0.0958
     10 C10         1.2408    4.4903    0.0139 C.ar      1 <0>        -0.0801
     11 C11         1.0760    1.8613    0.0018 C.2       1 <0>        -0.2091
     12 C12        -0.0126    1.0758    0.0080 C.2       1 <0>         0.0816
     13 N1         -1.1435    1.8460    0.0170 N.pl3     1 <0>        -0.4789
     14 C13        -2.5141    1.3286    0.0200 C.3       1 <0>         0.0679
     15 C14         2.5117    1.4036   -0.0140 C.3       1 <0>        -0.0594
     16 C15         3.0490    1.3605    1.4180 C.3       1 <0>        -0.0015
     17 N2          4.4485    0.9143    1.4026 N.4       1 <0>        -0.6879
     18 H1         -0.5041    8.0032   -0.8510 H         1 <0>         0.0611
     19 H2          0.6357    9.0667    0.0416 H         1 <0>         0.0623
     20 H3         -0.4870    7.9945    0.9452 H         1 <0>         0.0605
     21 H4          2.8248    6.2939    1.2566 H         1 <0>         0.0508
     22 H5          1.4496    7.0001    2.1713 H         1 <0>         0.0572
     23 H6          2.5722    8.0723    1.2677 H         1 <0>         0.0619
     24 H7          2.8010    6.3060   -1.2418 H         1 <0>         0.0527
     25 H8          2.5485    8.0844   -1.2307 H         1 <0>         0.0618
     26 H9          1.4087    7.0209   -2.1232 H         1 <0>         0.0584
     27 H10        -1.4677    6.4867    0.0488 H         1 <0>         0.1347
     28 H11        -2.6202    4.3204    0.0500 H         1 <0>         0.1228
     29 H12         2.3193    4.5462    0.0036 H         1 <0>         0.1160
     30 H13         0.0021   -0.0041    0.0020 H         1 <0>         0.1686
     31 H14        -2.4909    0.2289    0.0102 H         1 <0>         0.0923
     32 H15        -3.0452    1.6921   -0.8721 H         1 <0>         0.0807
     33 H16        -3.0353    1.6764    0.9241 H         1 <0>         0.0800
     34 H17         2.5714    0.3992   -0.4585 H         1 <0>         0.0887
     35 H18         3.1136    2.1049   -0.6106 H         1 <0>         0.0895
     36 H19         2.9892    2.3649    1.8624 H         1 <0>         0.1276
     37 H20         2.4471    0.6592    2.0146 H         1 <0>         0.1266
     38 H21         4.8348    0.8833    2.4321 H         1 <0>         0.4584
     39 H22         5.0504    1.6156    0.8061 H         1 <0>         0.4552
     40 H23         4.5082   -0.0901    0.9581 H         1 <0>         0.4546
@<TRIPOS>BOND
     1    1    2 1
     2    1   18 1
     3    1   19 1
     4    1   20 1
     5    2    3 1
     6    2    4 1
     7    2    5 1
     8    3   21 1
     9    3   22 1
    10    3   23 1
    11    4   24 1
    12    4   25 1
    13    4   26 1
    14    5   10 ar
    15    5    6 ar
    16    6    7 ar
    17    6   27 1
    18    7    8 ar
    19    7   28 1
    20    8   13 1
    21    8    9 ar
    22    9   10 ar
    23    9   11 1
    24   10   29 1
    25   11   12 2
    26   11   15 1
    27   12   13 1
    28   12   30 1
    29   13   14 1
    30   14   31 1
    31   14   32 1
    32   14   33 1
    33   15   16 1
    34   15   34 1
    35   15   35 1
    36   16   17 1
    37   16   36 1
    38   16   37 1
    39   17   38 1
    40   17   39 1
    41   17   40 1
@<TRIPOS>MOLECULE
ZINC03798324
   35    37     0     0     0
SMALL
USER_CHARGES
N,N-dimethylBLAHamine
@<TRIPOS>ATOM
      1 C1         -0.0127    1.0858    0.0080 C.3       1 <0>        -0.0445
      2 C2         -0.0162    1.0911    2.4293 C.3       1 <0>        -0.0526
      3 C3         -0.8223    3.0235    1.2133 C.3       1 <0>         0.0278
      4 H1         -1.3061    3.3498    0.2926 H         1 <0>         0.1401
      5 C4          0.5694    3.6587    1.3205 C.3       1 <0>        -0.1346
      6 C5          0.4296    5.1610    1.0863 C.3       1 <0>        -0.0719
      7 C6         -0.6464    5.7406    1.9680 C.ar      1 <0>        -0.1044
      8 C7         -0.6481    7.1245    2.1531 C.ar      1 <0>        -0.1005
      9 C8         -1.5998    7.7412    2.9290 C.ar      1 <0>        -0.1077
     10 C9         -2.5834    6.9748    3.5454 C.ar      1 <0>         0.0953
     11 C10        -2.5785    5.5831    3.3615 C.ar      1 <0>        -0.1032
     12 C11        -1.5968    4.9723    2.5663 C.ar      1 <0>        -0.0442
     13 C12        -1.6476    3.4742    2.4164 C.3       1 <0>        -0.0927
     14 C13        -3.7175    5.0685    4.1261 C.2       1 <0>        -0.2170
     15 C14        -4.3148    6.1263    4.6978 C.2       1 <0>         0.0673
     16 N1         -3.6513    7.2750    4.3608 N.pl3     1 <0>        -0.5899
     17 H2         -3.8958    8.1667    4.6539 H         1 <0>         0.4219
     18 H3          0.0021   -0.0041    0.0020 H         1 <0>         0.1233
     19 H4          1.0099    1.4631    0.0003 H         1 <0>         0.1236
     20 H5         -0.5399    1.4469   -0.8751 H         1 <0>         0.1218
     21 H6          0.9826    1.5252    2.4736 H         1 <0>         0.1248
     22 H7         -0.5844    1.3965    3.3079 H         1 <0>         0.1231
     23 H8          0.0607    0.0041    2.4061 H         1 <0>         0.1237
     24 H9          0.9801    3.4784    2.3139 H         1 <0>         0.0913
     25 H10         1.2286    3.2290    0.5662 H         1 <0>         0.0903
     26 H11         0.1725    5.3391    0.0421 H         1 <0>         0.0856
     27 H12         1.3784    5.6484    1.3103 H         1 <0>         0.0944
     28 H13         0.1143    7.7227    1.6762 H         1 <0>         0.1306
     29 H14        -1.5845    8.8132    3.0590 H         1 <0>         0.1278
     30 H15        -2.6828    3.1621    2.2788 H         1 <0>         0.0965
     31 H16        -1.2497    3.0101    3.3188 H         1 <0>         0.0957
     32 H17        -4.0189    4.0351    4.2135 H         1 <0>         0.1460
     33 H18        -5.1893    6.0780    5.3298 H         1 <0>         0.1755
     34 N2         -0.7268    1.5485    1.2166 N.4       1 <0>        -0.3946
     35 H19        -1.6743    1.1530    1.2161 H         1 <0>         0.4313
@<TRIPOS>BOND
     1    1   18 1
     2    1   19 1
     3    1   20 1
     4    1   34 1
     5    2   21 1
     6    2   22 1
     7    2   23 1
     8    2   34 1
     9    3    4 1
    10    3   13 1
    11    3    5 1
    12    3   34 1
    13    5    6 1
    14    5   24 1
    15    5   25 1
    16    6    7 1
    17    6   26 1
    18    6   27 1
    19    7   12 ar
    20    7    8 ar
    21    8    9 ar
    22    8   28 1
    23    9   10 ar
    24    9   29 1
    25   10   16 1
    26   10   11 ar
    27   11   12 ar
    28   11   14 1
    29   12   13 1
    30   13   30 1
    31   13   31 1
    32   14   15 2
    33   14   32 1
    34   15   16 1
    35   15   33 1
    36   16   17 1
    37   34   35 1
@<TRIPOS>MOLECULE
ZINC00004439
   30    32     0     0     0
SMALL
USER_CHARGES

@<TRIPOS>ATOM
      1 C1         -0.0170    1.3993    0.0097 C.2       1 <0>        -0.0038
      2 C2          1.1624    2.0838    0.0022 C.2       1 <0>        -0.2120
      3 C3          2.3807    1.3859   -0.0132 C.2       1 <0>         0.5289
      4 O1          3.4324    2.0052   -0.0199 O.2       1 <0>        -0.5398
      5 N1          2.3990    0.0391   -0.0202 N.am      1 <0>        -0.6041
      6 H1          3.2471   -0.4314   -0.0302 H         1 <0>         0.4075
      7 C4          1.2230   -0.6728   -0.0128 C.2       1 <0>         0.1395
      8 C5          0.0021   -0.0041    0.0020 C.2       1 <0>        -0.0215
      9 N2         -0.9957   -0.9585    0.0064 N.pl3     1 <0>        -0.5348
     10 H2         -1.9486   -0.7772    0.0162 H         1 <0>         0.4333
     11 C6         -0.4275   -2.1929   -0.0056 C.2       1 <0>         0.1028
     12 C7          0.9301   -2.0599   -0.0170 C.2       1 <0>        -0.1976
     13 C8          1.9156   -3.1608   -0.0318 C.2       1 <0>        -0.0137
     14 C9          2.5546   -3.4254   -1.1514 C.2       1 <0>        -0.1907
     15 C10         3.5694   -4.5254   -1.2721 C.3       1 <0>         0.0362
     16 N3          4.0427   -4.9330    0.0559 N.4       1 <0>        -0.5091
     17 C11         2.8809   -5.2442    0.9036 C.3       1 <0>        -0.0043
     18 C12         2.1570   -3.9350    1.2349 C.3       1 <0>        -0.1162
     19 H3         -0.9564    1.9318    0.0260 H         1 <0>         0.1424
     20 H4          1.1593    3.1637    0.0076 H         1 <0>         0.1622
     21 H5         -0.9649   -3.1297   -0.0055 H         1 <0>         0.1859
     22 H6          2.3391   -2.8246   -2.0226 H         1 <0>         0.1503
     23 H7          3.1156   -5.3814   -1.7715 H         1 <0>         0.1419
     24 H8          4.4145   -4.1730   -1.8635 H         1 <0>         0.1426
     25 H9          4.6267   -5.7513   -0.0303 H         1 <0>         0.4359
     26 H10         2.2069   -5.9137    0.3693 H         1 <0>         0.1355
     27 H11         3.2173   -5.7186    1.8255 H         1 <0>         0.1395
     28 H12         2.7684   -3.3398    1.9131 H         1 <0>         0.1068
     29 H13         1.2024   -4.1603    1.7102 H         1 <0>         0.1254
     30 H14         4.5720   -4.1810    0.4712 H         1 <0>         0.4312
@<TRIPOS>BOND
     1    1    8 1
     2    1    2 2
     3    1   19 1
     4    2    3 1
     5    2   20 1
     6    3    4 2
     7    3    5 am
     8    5    6 1
     9    5    7 1
    10    7   12 1
    11    7    8 2
    12    8    9 1
    13    9   10 1
    14    9   11 1
    15   11   12 2
    16   11   21 1
    17   12   13 1
    18   13   18 1
    19   13   14 2
    20   14   15 1
    21   14   22 1
    22   15   16 1
    23   15   23 1
    24   15   24 1
    25   16   17 1
    26   16   25 1
    27   16   30 1
    28   17   18 1
    29   17   26 1
    30   17   27 1
    31   18   28 1
    32   18   29 1
@<TRIPOS>MOLECULE
ZINC00005554
   49    51     0     0     0
SMALL
USER_CHARGES
dipropylaminoBLAHcarbaldehyde
@<TRIPOS>ATOM
      1 C1         -4.2338    2.9891    4.6862 C.3       1 <0>        -0.1560
      2 C2         -2.9773    3.6728    4.1432 C.3       1 <0>        -0.1504
      3 C3         -2.3882    2.8311    3.0095 C.3       1 <0>        -0.0143
      4 C4         -0.0708    3.3824    3.4434 C.3       1 <0>        -0.0115
      5 C5          0.9773    4.4509    3.1263 C.3       1 <0>        -0.1504
      6 C6          2.0706    4.4264    4.1963 C.3       1 <0>        -0.1556
      7 C7         -0.8055    2.9351    1.1800 C.3       1 <0>         0.0268
      8 H1          0.1866    3.2912    0.9027 H         1 <0>         0.1427
      9 C8         -0.8067    1.4033    1.2462 C.3       1 <0>        -0.1333
     10 C9         -0.1882    0.8660   -0.0425 C.3       1 <0>        -0.0741
     11 C10        -0.8471    1.4869   -1.2467 C.ar      1 <0>        -0.0848
     12 C11        -0.6808    0.8483   -2.4751 C.ar      1 <0>        -0.1031
     13 C12        -1.2449    1.3523   -3.6230 C.ar      1 <0>        -0.0946
     14 C13        -1.9966    2.5214   -3.5656 C.ar      1 <0>         0.0782
     15 C14        -2.1656    3.1623   -2.3317 C.ar      1 <0>        -0.0567
     16 C15        -1.5894    2.6387   -1.1699 C.ar      1 <0>        -0.0539
     17 C16        -1.8216    3.3701    0.1262 C.3       1 <0>        -0.1005
     18 C17        -2.9970    4.3514   -2.6046 C.2       1 <0>        -0.3060
     19 C18        -3.2588    4.3332   -3.9582 C.2       1 <0>         0.1738
     20 N1         -2.6706    3.2586   -4.5181 N.pl3     1 <0>        -0.5637
     21 H2         -2.7141    3.0341   -5.4607 H         1 <0>         0.4290
     22 C19        -3.4367    5.3170   -1.6650 C.2       1 <0>         0.4014
     23 O1         -4.1859    6.2063   -2.0138 O.2       1 <0>        -0.4730
     24 H3         -3.9747    2.0003    5.0646 H         1 <0>         0.0666
     25 H4         -4.6535    3.5888    5.4939 H         1 <0>         0.0772
     26 H5         -4.9684    2.8913    3.8869 H         1 <0>         0.0671
     27 H6         -2.2428    3.7707    4.9426 H         1 <0>         0.0852
     28 H7         -3.2365    4.6616    3.7648 H         1 <0>         0.0860
     29 H8         -3.1228    2.7332    2.2102 H         1 <0>         0.1299
     30 H9         -2.1291    1.8423    3.3879 H         1 <0>         0.1330
     31 H10        -0.4467    3.5312    4.4557 H         1 <0>         0.1314
     32 H11         0.3827    2.3943    3.3658 H         1 <0>         0.1319
     33 H12         1.4191    4.2483    2.1507 H         1 <0>         0.0853
     34 H13         0.5032    5.4324    3.1136 H         1 <0>         0.0850
     35 H14         2.5446    3.4449    4.2089 H         1 <0>         0.0668
     36 H15         2.8172    5.1877    3.9704 H         1 <0>         0.0769
     37 H16         1.6287    4.6290    5.1719 H         1 <0>         0.0667
     38 H17        -1.8300    1.0401    1.3417 H         1 <0>         0.0930
     39 H18        -0.2179    1.0728    2.1019 H         1 <0>         0.0905
     40 H19        -0.3183   -0.2155   -0.0796 H         1 <0>         0.0977
     41 H20         0.8763    1.1003   -0.0548 H         1 <0>         0.0889
     42 H21        -0.0974   -0.0592   -2.5257 H         1 <0>         0.1354
     43 H22        -1.1053    0.8427   -4.5649 H         1 <0>         0.1323
     44 H23        -1.7254    4.4424   -0.0443 H         1 <0>         0.0996
     45 H24        -2.8274    3.1530    0.4858 H         1 <0>         0.0977
     46 H25        -3.8460    5.0683   -4.4886 H         1 <0>         0.1923
     47 H26        -3.1053    5.2618   -0.6385 H         1 <0>         0.0823
     48 N2         -1.1878    3.5154    2.4846 N.4       1 <0>        -0.3945
     49 H27        -1.4009    4.5116    2.3569 H         1 <0>         0.4257
@<TRIPOS>BOND
     1    1    2 1
     2    1   24 1
     3    1   25 1
     4    1   26 1
     5    2    3 1
     6    2   27 1
     7    2   28 1
     8    3   29 1
     9    3   30 1
    10    3   48 1
    11    4    5 1
    12    4   31 1
    13    4   32 1
    14    4   48 1
    15    5    6 1
    16    5   33 1
    17    5   34 1
    18    6   35 1
    19    6   36 1
    20    6   37 1
    21    7    8 1
    22    7   17 1
    23    7    9 1
    24    7   48 1
    25    9   10 1
    26    9   38 1
    27    9   39 1
    28   10   11 1
    29   10   40 1
    30   10   41 1
    31   11   16 ar
    32   11   12 ar
    33   12   13 ar
    34   12   42 1
    35   13   14 ar
    36   13   43 1
    37   14   20 1
    38   14   15 ar
    39   15   16 ar
    40   15   18 1
    41   16   17 1
    42   17   44 1
    43   17   45 1
    44   18   19 2
    45   18   22 1
    46   19   20 1
    47   19   46 1
    48   20   21 1
    49   22   23 2
    50   22   47 1
    51   48   49 1
@<TRIPOS>MOLECULE
ZINC03782839
   49    51     0     0     0
SMALL
USER_CHARGES
dipropylaminoBLAHcarbaldehyde
@<TRIPOS>ATOM
      1 C1         -3.6867    4.1399    4.5515 C.3       1 <0>        -0.1565
      2 C2         -3.5861    2.6545    4.1989 C.3       1 <0>        -0.1495
      3 C3         -3.1068    2.5047    2.7537 C.3       1 <0>        -0.0169
      4 C4         -4.3367    0.4475    2.4105 C.3       1 <0>        -0.0172
      5 C5         -4.1810   -1.0681    2.5497 C.3       1 <0>        -0.1487
      6 C6         -5.5618   -1.7118    2.6915 C.3       1 <0>        -0.1564
      7 C7         -2.3322    0.8882    1.1259 C.3       1 <0>         0.0272
      8 H1         -2.3846   -0.1609    0.8348 H         1 <0>         0.1424
      9 C8         -0.8662    1.3190    1.2436 C.3       1 <0>        -0.1381
     10 C9         -0.1354    0.8919   -0.0274 C.3       1 <0>        -0.0738
     11 C10        -0.8780    1.3633   -1.2506 C.ar      1 <0>        -0.0850
     12 C11        -0.1793    1.3979   -2.4569 C.ar      1 <0>        -0.1027
     13 C12        -0.7846    1.8114   -3.6198 C.ar      1 <0>        -0.0946
     14 C13        -2.1195    2.2026   -3.6007 C.ar      1 <0>         0.0782
     15 C14        -2.8214    2.1693   -2.3890 C.ar      1 <0>        -0.0567
     16 C15        -2.1941    1.7502   -1.2113 C.ar      1 <0>        -0.0543
     17 C16        -3.0022    1.7521    0.0597 C.3       1 <0>        -0.0959
     18 C17        -4.1872    2.6355   -2.7005 C.2       1 <0>        -0.3066
     19 C18        -4.1998    2.9088   -4.0519 C.2       1 <0>         0.1746
     20 N1         -2.9854    2.6539   -4.5760 N.pl3     1 <0>        -0.5634
     21 H2         -2.7517    2.7714   -5.5101 H         1 <0>         0.4291
     22 C19        -5.2671    2.7748   -1.7933 C.2       1 <0>         0.4016
     23 O1         -6.3422    3.1787   -2.1868 O.2       1 <0>        -0.4729
     24 H3         -4.0282    4.2467    5.5811 H         1 <0>         0.0772
     25 H4         -2.7074    4.6062    4.4433 H         1 <0>         0.0669
     26 H5         -4.3962    4.6252    3.8812 H         1 <0>         0.0671
     27 H6         -4.5654    2.1883    4.3070 H         1 <0>         0.0859
     28 H7         -2.8766    2.1692    4.8692 H         1 <0>         0.0856
     29 H8         -2.1275    2.9710    2.6455 H         1 <0>         0.1316
     30 H9         -3.8162    2.9900    2.0834 H         1 <0>         0.1322
     31 H10        -4.9242    0.8306    3.2450 H         1 <0>         0.1335
     32 H11        -4.8445    0.6761    1.4735 H         1 <0>         0.1304
     33 H12        -3.6843   -1.4652    1.6644 H         1 <0>         0.0851
     34 H13        -3.5831   -1.2924    3.4331 H         1 <0>         0.0850
     35 H14        -6.0585   -1.3148    3.5768 H         1 <0>         0.0669
     36 H15        -6.1597   -1.4875    1.8082 H         1 <0>         0.0673
     37 H16        -5.4509   -2.7916    2.7907 H         1 <0>         0.0769
     38 H17        -0.4109    0.8369    2.1087 H         1 <0>         0.0926
     39 H18        -0.8093    2.4019    1.3537 H         1 <0>         0.0924
     40 H19        -0.0596   -0.1952   -0.0500 H         1 <0>         0.0897
     41 H20         0.8663    1.3218   -0.0274 H         1 <0>         0.0980
     42 H21         0.8569    1.0944   -2.4778 H         1 <0>         0.1356
     43 H22        -0.2262    1.8328   -4.5440 H         1 <0>         0.1324
     44 H23        -3.0894    2.7742    0.4283 H         1 <0>         0.0993
     45 H24        -3.9978    1.3595   -0.1471 H         1 <0>         0.0971
     46 H25        -5.0528    3.2723   -4.6055 H         1 <0>         0.1924
     47 H26        -5.1337    2.5216   -0.7519 H         1 <0>         0.0803
     48 N2         -2.9944    1.0657    2.4354 N.4       1 <0>        -0.3925
     49 H27        -2.4294    0.6070    3.1597 H         1 <0>         0.4271
@<TRIPOS>BOND
     1    1    2 1
     2    1   24 1
     3    1   25 1
     4    1   26 1
     5    2    3 1
     6    2   27 1
     7    2   28 1
     8    3   29 1
     9    3   30 1
    10    3   48 1
    11    4    5 1
    12    4   31 1
    13    4   32 1
    14    4   48 1
    15    5    6 1
    16    5   33 1
    17    5   34 1
    18    6   35 1
    19    6   36 1
    20    6   37 1
    21    7    8 1
    22    7   17 1
    23    7    9 1
    24    7   48 1
    25    9   10 1
    26    9   38 1
    27    9   39 1
    28   10   11 1
    29   10   40 1
    30   10   41 1
    31   11   16 ar
    32   11   12 ar
    33   12   13 ar
    34   12   42 1
    35   13   14 ar
    36   13   43 1
    37   14   20 1
    38   14   15 ar
    39   15   16 ar
    40   15   18 1
    41   16   17 1
    42   17   44 1
    43   17   45 1
    44   18   19 2
    45   18   22 1
    46   19   20 1
    47   19   46 1
    48   20   21 1
    49   22   23 2
    50   22   47 1
    51   48   49 1
@<TRIPOS>MOLECULE
ZINC13779792
   37    38     0     0     0
SMALL
USER_CHARGES
2-[(4-tert-butylphenyl)methyl]-4,5-dihydro-1H-imidazole
@<TRIPOS>ATOM
      1 C1          5.5663   -3.2054    0.6563 C.3       1 <0>        -0.1430
      2 C2          5.4759   -1.8553   -0.0578 C.3       1 <0>        -0.0377
      3 C3          5.9456   -2.0117   -1.5055 C.3       1 <0>        -0.1496
      4 C4          6.3654   -0.8381    0.6599 C.3       1 <0>        -0.1415
      5 C5          4.0481   -1.3733   -0.0422 C.ar      1 <0>        -0.0373
      6 C6          3.4045   -1.1579    1.1620 C.ar      1 <0>        -0.1112
      7 C7          2.0951   -0.7149    1.1763 C.ar      1 <0>        -0.1001
      8 C8          1.4295   -0.4870   -0.0136 C.ar      1 <0>        -0.1536
      9 C9          2.0714   -0.7075   -1.2178 C.ar      1 <0>        -0.0996
     10 C10         3.3822   -1.1463   -1.2322 C.ar      1 <0>        -0.1172
     11 C11         0.0021   -0.0041    0.0020 C.3       1 <0>        -0.0593
     12 C12        -0.0184    1.5028    0.0103 C.cat     1 <0>         0.5156
     13 C13         0.7133    3.6406    0.0148 C.3       1 <0>         0.0489
     14 C14        -0.8288    3.6551    0.0296 C.3       1 <0>         0.0669
     15 N1         -1.1750    2.2235    0.0194 N.pl3     1 <0>        -0.6669
     16 H1          4.9326   -3.9300    0.1450 H         1 <0>         0.0591
     17 H2          6.5990   -3.5540    0.6450 H         1 <0>         0.0667
     18 H3          5.2317   -3.0940    1.6877 H         1 <0>         0.0588
     19 H4          5.8812   -1.0498   -2.0143 H         1 <0>         0.0594
     20 H5          6.9783   -2.3602   -1.5168 H         1 <0>         0.0663
     21 H6          5.3119   -2.7363   -2.0169 H         1 <0>         0.0611
     22 H7          6.0308   -0.7267    1.6912 H         1 <0>         0.0584
     23 H8          7.3981   -1.1867    0.6486 H         1 <0>         0.0669
     24 H9          6.3010    0.1237    0.1511 H         1 <0>         0.0565
     25 H10         3.9247   -1.3353    2.0917 H         1 <0>         0.1328
     26 H11         1.5923   -0.5466    2.1172 H         1 <0>         0.1293
     27 H12         1.5500   -0.5336   -2.1475 H         1 <0>         0.1293
     28 H13         3.8852   -1.3143   -2.1730 H         1 <0>         0.1383
     29 H14        -0.4986   -0.3791    0.8946 H         1 <0>         0.1405
     30 H15        -0.5149   -0.3696   -0.8853 H         1 <0>         0.1405
     31 H16         1.1091    4.1206    0.9099 H         1 <0>         0.1272
     32 H17         1.0942    4.1307   -0.8812 H         1 <0>         0.1274
     33 H18        -1.2009    4.1387    0.9328 H         1 <0>         0.1215
     34 H19        -1.2180    4.1510   -0.8596 H         1 <0>         0.1214
     35 H20        -2.0728    1.8563    0.0211 H         1 <0>         0.4580
     36 N2          1.0555    2.2084    0.0038 N.pl3     1 <0>        -0.6086
     37 H21         2.0099    1.8300   -0.0073 H         1 <0>         0.4750
@<TRIPOS>BOND
     1    1    2 1
     2    1   16 1
     3    1   17 1
     4    1   18 1
     5    2    3 1
     6    2    4 1
     7    2    5 1
     8    3   19 1
     9    3   20 1
    10    3   21 1
    11    4   22 1
    12    4   23 1
    13    4   24 1
    14    5   10 ar
    15    5    6 ar
    16    6    7 ar
    17    6   25 1
    18    7    8 ar
    19    7   26 1
    20    8    9 ar
    21    8   11 1
    22    9   10 ar
    23    9   27 1
    24   10   28 1
    25   11   12 1
    26   11   29 1
    27   11   30 1
    28   12   15 1
    29   12   36 2
    30   13   14 1
    31   13   31 1
    32   13   32 1
    33   13   36 1
    34   14   15 1
    35   14   33 1
    36   14   34 1
    37   15   35 1
    38   36   37 1
@<TRIPOS>MOLECULE
ZINC05513488
   25    26     0     0     0
SMALL
USER_CHARGES
2-[(4-bromophenyl)methyl]-4,5-dihydro-1H-imidazole
@<TRIPOS>ATOM
      1 C1          2.0712   -0.7075   -1.2180 C.ar      1 <0>        -0.0968
      2 C2          3.3820   -1.1458   -1.2328 C.ar      1 <0>        -0.0861
      3 C3          4.0482   -1.3740   -0.0422 C.ar      1 <0>        -0.0721
      4 C4          3.4040   -1.1583    1.1627 C.ar      1 <0>        -0.0860
      5 C5          2.0949   -0.7149    1.1765 C.ar      1 <0>        -0.0971
      6 C6          1.4295   -0.4870   -0.0136 C.ar      1 <0>        -0.1329
      7 C7          0.0021   -0.0041    0.0020 C.3       1 <0>        -0.0616
      8 C8         -0.0184    1.5028    0.0103 C.cat     1 <0>         0.5149
      9 C9          0.7133    3.6406    0.0148 C.3       1 <0>         0.0492
     10 C10        -0.8288    3.6551    0.0296 C.3       1 <0>         0.0667
     11 N1         -1.1750    2.2235    0.0194 N.pl3     1 <0>        -0.6645
     12 Br1         5.8394   -1.9800   -0.0618 Br        1 <0>        -0.0196
     13 H1          1.5497   -0.5333   -2.1475 H         1 <0>         0.1405
     14 H2          3.8845   -1.3144   -2.1738 H         1 <0>         0.1454
     15 H3          3.9239   -1.3359    2.0925 H         1 <0>         0.1454
     16 H4          1.5920   -0.5461    2.1172 H         1 <0>         0.1404
     17 H5         -0.4986   -0.3791    0.8946 H         1 <0>         0.1446
     18 H6         -0.5149   -0.3696   -0.8853 H         1 <0>         0.1447
     19 H7          1.1091    4.1206    0.9099 H         1 <0>         0.1282
     20 H8          1.0942    4.1307   -0.8812 H         1 <0>         0.1284
     21 H9         -1.2009    4.1387    0.9328 H         1 <0>         0.1225
     22 H10        -1.2180    4.1510   -0.8596 H         1 <0>         0.1224
     23 H11        -2.0728    1.8563    0.0211 H         1 <0>         0.4587
     24 N2          1.0555    2.2084    0.0038 N.pl3     1 <0>        -0.6096
     25 H12         2.0099    1.8300   -0.0073 H         1 <0>         0.4743
@<TRIPOS>BOND
     1    1    6 ar
     2    1    2 ar
     3    1   13 1
     4    2    3 ar
     5    2   14 1
     6    3    4 ar
     7    3   12 1
     8    4    5 ar
     9    4   15 1
    10    5    6 ar
    11    5   16 1
    12    6    7 1
    13    7    8 1
    14    7   17 1
    15    7   18 1
    16    8   11 1
    17    8   24 2
    18    9   10 1
    19    9   19 1
    20    9   20 1
    21    9   24 1
    22   10   11 1
    23   10   21 1
    24   10   22 1
    25   11   23 1
    26   24   25 1
@<TRIPOS>MOLECULE
ZINC00057534
   43    44     0     0     0
SMALL
USER_CHARGES

@<TRIPOS>ATOM
      1 C1         -0.0184    1.5028    0.0103 C.3       1 <0>        -0.1195
      2 C2          0.0021   -0.0041    0.0020 C.ar      1 <0>        -0.0615
      3 C3          0.0057   -0.6886   -1.1989 C.ar      1 <0>        -0.1151
      4 C4          0.0245   -2.0709   -1.2065 C.ar      1 <0>        -0.0313
      5 C5          0.0400   -2.7685   -0.0132 C.ar      1 <0>        -0.1210
      6 C6          0.0373   -2.0839    1.1877 C.ar      1 <0>        -0.0613
      7 C7          0.0229   -0.7016    1.1953 C.ar      1 <0>        -0.1315
      8 C8          0.0251    0.0448    2.5045 C.3       1 <0>        -0.0675
      9 C9         -1.3947    0.2743    2.9543 C.cat     1 <0>         0.5217
     10 N1         -2.0786    1.3407    2.6117 N.pl3     1 <0>        -0.6330
     11 C10        -3.4228    1.2677    3.2067 C.3       1 <0>         0.0556
     12 C11        -3.3948   -0.0688    3.9769 C.3       1 <0>         0.0556
     13 N2         -2.0402   -0.5802    3.7129 N.pl3     1 <0>        -0.6331
     14 C12         0.0537   -2.8444    2.4886 C.3       1 <0>        -0.1196
     15 C13         0.0274   -2.8172   -2.5157 C.3       1 <0>        -0.0361
     16 C14         1.2671   -2.4263   -3.3228 C.3       1 <0>        -0.1420
     17 C15         0.0494   -4.3228   -2.2444 C.3       1 <0>        -0.1487
     18 C16        -1.2311   -2.4602   -3.3091 C.3       1 <0>        -0.1407
     19 H1          1.0042    1.8801    0.0026 H         1 <0>         0.0888
     20 H2         -0.5455    1.8639   -0.8728 H         1 <0>         0.0819
     21 H3         -0.5286    1.8543    0.9071 H         1 <0>         0.0426
     22 H4         -0.0064   -0.1436   -2.1312 H         1 <0>         0.1313
     23 H5          0.0540   -3.8484   -0.0191 H         1 <0>         0.1370
     24 H6          0.5541   -0.5413    3.2560 H         1 <0>         0.1324
     25 H7          0.5248    1.0048    2.3745 H         1 <0>         0.1325
     26 H8         -3.5873    2.1017    3.8891 H         1 <0>         0.1277
     27 H9         -4.1870    1.2483    2.4298 H         1 <0>         0.1262
     28 H10        -3.5454    0.0983    5.0434 H         1 <0>         0.1280
     29 H11        -4.1451   -0.7550    3.5841 H         1 <0>         0.1259
     30 H12        -1.6805   -1.4163    4.0484 H         1 <0>         0.4563
     31 H13         1.0852   -3.0145    2.7971 H         1 <0>         0.0889
     32 H14        -0.4637   -2.2661    3.2541 H         1 <0>         0.0424
     33 H15        -0.4485   -3.8026    2.3557 H         1 <0>         0.0820
     34 H16         2.1637   -2.6806   -2.7576 H         1 <0>         0.0588
     35 H17         1.2692   -2.9661   -4.2697 H         1 <0>         0.0662
     36 H18         1.2515   -1.3537   -3.5161 H         1 <0>         0.0583
     37 H19        -0.8337   -4.6013   -1.6694 H         1 <0>         0.0588
     38 H20         0.0516   -4.8626   -3.1914 H         1 <0>         0.0659
     39 H21         0.9460   -4.5771   -1.6792 H         1 <0>         0.0608
     40 H22        -1.2468   -1.3876   -3.5024 H         1 <0>         0.0577
     41 H23        -1.2290   -3.0000   -4.2561 H         1 <0>         0.0664
     42 H24        -2.1143   -2.7387   -2.7341 H         1 <0>         0.0561
     43 H25        -1.7498    2.0634    2.0546 H         1 <0>         0.4563
@<TRIPOS>BOND
     1    1    2 1
     2    1   19 1
     3    1   20 1
     4    1   21 1
     5    2    7 ar
     6    2    3 ar
     7    3    4 ar
     8    3   22 1
     9    4    5 ar
    10    4   15 1
    11    5    6 ar
    12    5   23 1
    13    6    7 ar
    14    6   14 1
    15    7    8 1
    16    8    9 1
    17    8   24 1
    18    8   25 1
    19    9   13 1
    20    9   10 2
    21   10   11 1
    22   10   43 1
    23   11   12 1
    24   11   26 1
    25   11   27 1
    26   12   13 1
    27   12   28 1
    28   12   29 1
    29   13   30 1
    30   14   31 1
    31   14   32 1
    32   14   33 1
    33   15   16 1
    34   15   17 1
    35   15   18 1
    36   16   34 1
    37   16   35 1
    38   16   36 1
    39   17   37 1
    40   17   38 1
    41   17   39 1
    42   18   40 1
    43   18   41 1
    44   18   42 1
@<TRIPOS>MOLECULE
ZINC26579568
   66    70     0     0     0
SMALL
USER_CHARGES

@<TRIPOS>ATOM
      1 C1         -1.8242    1.5605   -1.0062 C.ar      1 <0>        -0.0848
      2 C2         -1.6672    2.5831   -1.9225 C.ar      1 <0>        -0.1528
      3 C3         -0.7619    2.4482   -2.9613 C.ar      1 <0>         0.1061
      4 C4         -0.0148    1.2886   -3.0809 C.ar      1 <0>        -0.1531
      5 C5         -0.1735    0.2673   -2.1634 C.ar      1 <0>        -0.0669
      6 C6         -1.0777    0.4032   -1.1266 C.ar      1 <0>        -0.1333
      7 C7         -1.2498   -0.7112   -0.1268 C.3       1 <0>         0.1338
      8 H1         -2.2084   -0.5998    0.3801 H         1 <0>         0.0997
      9 C8         -0.1190   -0.6524    0.9021 C.3       1 <0>         0.0879
     10 O1          1.1406   -0.6995    0.2289 O.3       1 <0>        -0.5696
     11 N1         -1.2115   -2.0041   -0.8231 N.3       1 <0>        -0.6677
     12 C9         -2.5265   -2.3378   -1.3865 C.3       1 <0>         0.0716
     13 C10        -3.3705   -3.0534   -0.3279 C.3       1 <0>        -0.1379
     14 C11        -4.7079   -3.4684   -0.9448 C.3       1 <0>        -0.0055
     15 N2         -4.4694   -4.3729   -2.0759 N.4       1 <0>        -0.3830
     16 C12        -3.7220   -3.6707   -3.1261 C.3       1 <0>        -0.0059
     17 C13        -2.3467   -3.2635   -2.5932 C.3       1 <0>        -0.1513
     18 C14        -5.7571   -4.8299   -2.6155 C.3       1 <0>        -0.0120
     19 C15        -5.5109   -5.8679   -3.7123 C.3       1 <0>        -0.1452
     20 C16        -6.8520   -6.3438   -4.2743 C.3       1 <0>        -0.0354
     21 C17        -6.6096   -7.3662   -5.3546 C.2       1 <0>        -0.1893
     22 C18        -6.5383   -7.1316   -6.6743 C.2       1 <0>         0.0805
     23 N3         -6.3067   -8.3016   -7.3445 N.pl3     1 <0>        -0.5872
     24 H2         -6.2157   -8.3841   -8.3067 H         1 <0>         0.4245
     25 C19        -6.2210   -9.3455   -6.4487 C.ar      1 <0>         0.0944
     26 C20        -6.4007   -8.8036   -5.1629 C.ar      1 <0>        -0.0775
     27 C21        -6.3578   -9.6352   -4.0428 C.ar      1 <0>        -0.0861
     28 C22        -6.1346  -10.9892   -4.2060 C.ar      1 <0>         0.1125
     29 C23        -5.9529  -11.5219   -5.4806 C.ar      1 <0>        -0.1059
     30 C24        -6.0027  -10.7117   -6.5926 C.ar      1 <0>        -0.0904
     31 N4         -6.0903  -11.8311   -3.0833 N.pl3     1 <0>        -0.4277
     32 C25        -6.2530  -11.4713   -1.7793 C.2       1 <0>         0.1516
     33 N5         -6.1372  -12.5558   -1.0619 N.2       1 <0>        -0.2855
     34 N6         -5.9141  -13.5643   -1.8270 N.2       1 <0>        -0.2855
     35 C26        -5.8817  -13.1775   -3.0734 C.2       1 <0>         0.1625
     36 F1         -0.6079    3.4470   -3.8579 F         1 <0>        -0.1349
     37 H3         -2.5271    1.6674   -0.1932 H         1 <0>         0.1314
     38 H4         -2.2508    3.4870   -1.8284 H         1 <0>         0.1382
     39 H5          0.6914    1.1821   -3.8910 H         1 <0>         0.1375
     40 H6          0.4089   -0.6374   -2.2567 H         1 <0>         0.1329
     41 H7         -0.1927    0.2748    1.4704 H         1 <0>         0.0527
     42 H8         -0.2004   -1.5017    1.5804 H         1 <0>         0.0594
     43 H9          1.9045   -0.6661    0.8208 H         1 <0>         0.3864
     44 H10        -0.4999   -2.0085   -1.5385 H         1 <0>         0.3587
     45 H11        -3.0312   -1.4240   -1.7002 H         1 <0>         0.0656
     46 H12        -2.8407   -3.9392    0.0223 H         1 <0>         0.0971
     47 H13        -3.5497   -2.3804    0.5107 H         1 <0>         0.1095
     48 H14        -5.3114   -3.9780   -0.1936 H         1 <0>         0.1332
     49 H15        -5.2370   -2.5819   -1.2943 H         1 <0>         0.1271
     50 H16        -3.5977   -4.3297   -3.9854 H         1 <0>         0.1340
     51 H17        -4.2721   -2.7799   -3.4292 H         1 <0>         0.1284
     52 H18        -1.7940   -2.7407   -3.3738 H         1 <0>         0.1098
     53 H19        -1.7956   -4.1537   -2.2900 H         1 <0>         0.0984
     54 H20        -6.3472   -5.2786   -1.8164 H         1 <0>         0.1324
     55 H21        -6.2977   -3.9808   -3.0336 H         1 <0>         0.1300
     56 H22        -4.9208   -5.4192   -4.5114 H         1 <0>         0.0870
     57 H23        -4.9703   -6.7170   -3.2942 H         1 <0>         0.0872
     58 H24        -7.4421   -6.7925   -3.4752 H         1 <0>         0.0813
     59 H25        -7.3927   -5.4947   -4.6924 H         1 <0>         0.0821
     60 H26        -6.6481   -6.1626   -7.1385 H         1 <0>         0.1749
     61 H27        -6.4979   -9.2230   -3.0544 H         1 <0>         0.1299
     62 H28        -5.7787  -12.5813   -5.5978 H         1 <0>         0.1406
     63 H29        -5.8590  -11.1349   -7.5758 H         1 <0>         0.1382
     64 H30        -6.4419  -10.4747   -1.4083 H         1 <0>         0.2181
     65 H31        -5.7178  -13.8069   -3.9356 H         1 <0>         0.2235
     66 H32        -3.9369   -5.1701   -1.7613 H         1 <0>         0.4237
@<TRIPOS>BOND
     1    1    6 ar
     2    1    2 ar
     3    1   37 1
     4    2    3 ar
     5    2   38 1
     6    3    4 ar
     7    3   36 1
     8    4    5 ar
     9    4   39 1
    10    5    6 ar
    11    5   40 1
    12    6    7 1
    13    7    8 1
    14    7    9 1
    15    7   11 1
    16    9   10 1
    17    9   41 1
    18    9   42 1
    19   10   43 1
    20   11   12 1
    21   11   44 1
    22   12   17 1
    23   12   13 1
    24   12   45 1
    25   13   14 1
    26   13   46 1
    27   13   47 1
    28   14   15 1
    29   14   48 1
    30   14   49 1
    31   15   16 1
    32   15   18 1
    33   15   66 1
    34   16   17 1
    35   16   50 1
    36   16   51 1
    37   17   52 1
    38   17   53 1
    39   18   19 1
    40   18   54 1
    41   18   55 1
    42   19   20 1
    43   19   56 1
    44   19   57 1
    45   20   21 1
    46   20   58 1
    47   20   59 1
    48   21   26 1
    49   21   22 2
    50   22   23 1
    51   22   60 1
    52   23   24 1
    53   23   25 1
    54   25   30 ar
    55   25   26 ar
    56   26   27 ar
    57   27   28 ar
    58   27   61 1
    59   28   29 ar
    60   28   31 1
    61   29   30 ar
    62   29   62 1
    63   30   63 1
    64   31   35 1
    65   31   32 1
    66   32   33 2
    67   32   64 1
    68   33   34 1
    69   34   35 2
    70   35   65 1
@<TRIPOS>MOLECULE
ZINC00066085
   28    29     0     0     0
SMALL
USER_CHARGES
2-(5-methyl-1H-indol-3-yl)ethanamine
@<TRIPOS>ATOM
      1 C1          1.2016   -2.2028   -0.0207 C.3       1 <0>        -0.1165
      2 C2          1.2057   -0.6959   -0.0132 C.ar      1 <0>        -0.0953
      3 C3          0.0021   -0.0041    0.0020 C.ar      1 <0>        -0.0932
      4 C4         -0.0166    1.3733    0.0096 C.ar      1 <0>        -0.1168
      5 C5          1.1814    2.0806    0.0020 C.ar      1 <0>         0.0888
      6 C6          2.3982    1.3749   -0.0135 C.ar      1 <0>        -0.0961
      7 C7          2.3938   -0.0213   -0.0209 C.ar      1 <0>        -0.0879
      8 C8          3.4546    2.3898   -0.0173 C.2       1 <0>        -0.2098
      9 C9          2.8483    3.5874   -0.0047 C.2       1 <0>         0.0858
     10 N1          1.4900    3.4224    0.0070 N.pl3     1 <0>        -0.5874
     11 H1          0.8412    4.1434    0.0172 H         1 <0>         0.4232
     12 C10         4.9402    2.1372   -0.0326 C.3       1 <0>        -0.0613
     13 C11         5.4086    1.9362   -1.4752 C.3       1 <0>        -0.0037
     14 H2          1.1906   -2.5610   -1.0502 H         1 <0>         0.0714
     15 H3          2.0956   -2.5711    0.4826 H         1 <0>         0.0657
     16 H4          0.3157   -2.5664    0.4999 H         1 <0>         0.0702
     17 H5         -0.9290   -0.5513    0.0083 H         1 <0>         0.1316
     18 H6         -0.9581    1.9023    0.0169 H         1 <0>         0.1263
     19 H7          3.3262   -0.5662   -0.0331 H         1 <0>         0.1176
     20 H8          3.3572    4.5400   -0.0041 H         1 <0>         0.1729
     21 H9          5.4585    2.9920    0.4020 H         1 <0>         0.0913
     22 H10         5.1627    1.2430    0.5496 H         1 <0>         0.0913
     23 H11         4.8902    1.0815   -1.9097 H         1 <0>         0.1313
     24 H12         5.1860    2.8305   -2.0574 H         1 <0>         0.1336
     25 H13         7.1907    1.5540   -2.4324 H         1 <0>         0.4395
     26 H14         7.3556    2.4394   -1.0343 H         1 <0>         0.4362
     27 N2          6.8576    1.6686   -1.4766 N.4       1 <0>        -0.6479
     28 H15         7.0420    0.8056   -0.9518 H         1 <0>         0.4390
@<TRIPOS>BOND
     1    1    2 1
     2    1   14 1
     3    1   15 1
     4    1   16 1
     5    2    7 ar
     6    2    3 ar
     7    3    4 ar
     8    3   17 1
     9    4    5 ar
    10    4   18 1
    11    5   10 1
    12    5    6 ar
    13    6    7 ar
    14    6    8 1
    15    7   19 1
    16    8    9 2
    17    8   12 1
    18    9   10 1
    19    9   20 1
    20   10   11 1
    21   12   13 1
    22   12   21 1
    23   12   22 1
    24   13   23 1
    25   13   24 1
    26   13   27 1
    27   25   27 1
    28   26   27 1
    29   27   28 1
