@<TRIPOS>MOLECULE
ZINC00014360
   42    43     0     0     0
SMALL
USER_CHARGES

@<TRIPOS>ATOM
      1 C1         -0.0178    1.4608    0.0101 C.3       1 <0>         0.0793
      2 N1          0.0021   -0.0041    0.0020 N.pl3     1 <0>        -1.1235
      3 S1          0.7421   -0.8289    1.2326 S.o2      1 <0>         2.6084
      4 O1          0.5924   -2.2002    0.8914 O.2       1 <0>        -0.9468
      5 O2          2.0334   -0.2448    1.3355 O.2       1 <0>        -0.9510
      6 C2         -0.2382   -0.4417    2.7090 C.3       1 <0>        -0.5828
      7 C3          0.3516   -1.1474    3.9028 C.ar      1 <0>        -0.1049
      8 C4         -0.0784   -2.4267    4.2282 C.ar      1 <0>        -0.0826
      9 C5          0.4473   -3.0893    5.3155 C.ar      1 <0>        -0.1137
     10 C6          1.4193   -2.4726    6.0968 C.ar      1 <0>         0.1042
     11 C7          1.8519   -1.1765    5.7625 C.ar      1 <0>        -0.0991
     12 C8          1.3091   -0.5253    4.6530 C.ar      1 <0>        -0.0640
     13 C9          2.8614   -0.8166    6.7612 C.2       1 <0>        -0.2000
     14 C10         2.9754   -1.8603    7.5977 C.2       1 <0>         0.0879
     15 N2          2.1214   -2.8591    7.2163 N.pl3     1 <0>        -0.5851
     16 H1          2.0253   -3.7124    7.6673 H         1 <0>         0.4255
     17 C11         3.6270    0.4793    6.8351 C.3       1 <0>        -0.0627
     18 C12         2.7992    1.5182    7.5943 C.3       1 <0>        -0.0095
     19 N3          3.5455    2.7814    7.6664 N.4       1 <0>        -0.3881
     20 C13         3.7116    3.3299    6.3138 C.3       1 <0>        -0.0545
     21 C14         2.8051    3.7410    8.4964 C.3       1 <0>        -0.0469
     22 H2          1.0048    1.8381    0.0023 H         1 <0>         0.0693
     23 H3         -0.5450    1.8219   -0.8730 H         1 <0>         0.0876
     24 H4         -0.5280    1.8123    0.9069 H         1 <0>         0.0574
     25 H5         -0.4183   -0.4908   -0.7241 H         1 <0>         0.4222
     26 H6         -0.2266    0.6346    2.8808 H         1 <0>         0.1378
     27 H7         -1.2653   -0.7750    2.5608 H         1 <0>         0.1453
     28 H8         -0.8329   -2.9072    3.6230 H         1 <0>         0.1399
     29 H9          0.1057   -4.0841    5.5609 H         1 <0>         0.1340
     30 H10         1.6421    0.4681    4.3911 H         1 <0>         0.1262
     31 H11         3.6421   -1.9048    8.4461 H         1 <0>         0.1761
     32 H12         4.5701    0.3149    7.3563 H         1 <0>         0.0931
     33 H13         3.8275    0.8410    5.8266 H         1 <0>         0.0945
     34 H14         1.8561    1.6826    7.0732 H         1 <0>         0.1293
     35 H15         2.5988    1.1565    8.6029 H         1 <0>         0.1303
     36 H16         4.2654    4.2672    6.3673 H         1 <0>         0.1245
     37 H17         4.2611    2.6179    5.6980 H         1 <0>         0.1265
     38 H18         2.7316    3.5116    5.8726 H         1 <0>         0.1219
     39 H19         2.6818    3.3340    9.5001 H         1 <0>         0.1225
     40 H20         3.3588    4.6783    8.5499 H         1 <0>         0.1241
     41 H21         1.8251    3.9226    8.0552 H         1 <0>         0.1209
     42 H22         4.4527    2.6132    8.0749 H         1 <0>         0.4266
@<TRIPOS>BOND
     1    1    2 1
     2    1   22 1
     3    1   23 1
     4    1   24 1
     5    2    3 1
     6    2   25 1
     7    3    4 2
     8    3    5 2
     9    3    6 1
    10    6    7 1
    11    6   26 1
    12    6   27 1
    13    7   12 ar
    14    7    8 ar
    15    8    9 ar
    16    8   28 1
    17    9   10 ar
    18    9   29 1
    19   10   15 1
    20   10   11 ar
    21   11   12 ar
    22   11   13 1
    23   12   30 1
    24   13   14 2
    25   13   17 1
    26   14   15 1
    27   14   31 1
    28   15   16 1
    29   17   18 1
    30   17   32 1
    31   17   33 1
    32   18   19 1
    33   18   34 1
    34   18   35 1
    35   19   20 1
    36   19   21 1
    37   19   42 1
    38   20   36 1
    39   20   37 1
    40   20   38 1
    41   21   39 1
    42   21   40 1
    43   21   41 1
@<TRIPOS>MOLECULE
ZINC12356413
   61    65     0     0     0
SMALL
USER_CHARGES
N-[4-[4-(1,2-benzothiazol-3-yl)piperazin-1-yl]butyl]indoline-7-carboxamide
@<TRIPOS>ATOM
      1 C1         -4.1463  -13.4774   -4.5456 C.ar      1 <0>        -0.1220
      2 C2         -4.0861  -14.8519   -4.3506 C.ar      1 <0>        -0.0630
      3 C3         -3.8220  -15.3521   -3.1030 C.ar      1 <0>        -0.0770
      4 C4         -3.6184  -14.4825   -2.0523 C.ar      1 <0>        -0.1172
      5 C5         -3.6735  -13.0800   -2.2210 C.ar      1 <0>        -0.1301
      6 C6         -3.9486  -12.6041   -3.5217 C.ar      1 <0>        -0.0380
      7 C7         -3.4295  -12.3533   -0.9842 C.2       1 <0>         0.2994
      8 N1         -3.1887  -13.0095    0.1141 N.2       1 <0>        -0.4560
      9 S1         -3.2604  -14.6585   -0.3256 S.3       1 <0>         0.2211
     10 N2         -3.4477  -10.9577   -0.9766 N.pl3     1 <0>        -0.4716
     11 C8         -4.0299  -10.4454    0.2717 C.3       1 <0>         0.0277
     12 C9         -4.1048   -8.9181    0.2074 C.3       1 <0>         0.0055
     13 C10        -2.1745   -8.8849   -1.2526 C.3       1 <0>         0.0019
     14 C11        -2.0996  -10.4122   -1.1884 C.3       1 <0>         0.0292
     15 C12        -2.7759   -6.9038    0.0037 C.3       1 <0>        -0.0027
     16 C13        -1.3404   -6.3751    0.0316 C.3       1 <0>        -0.1477
     17 C14        -1.3604   -4.8453    0.0399 C.3       1 <0>        -0.1298
     18 C15         0.0751   -4.3166    0.0679 C.3       1 <0>         0.1215
     19 N3          0.0560   -2.8518    0.0758 N.am      1 <0>        -0.7379
     20 C16         1.2141   -2.1628    0.0999 C.2       1 <0>         0.5616
     21 O1          2.2749   -2.7571    0.1149 O.2       1 <0>        -0.5140
     22 C17         1.1948   -0.6886    0.1079 C.ar      1 <0>        -0.1506
     23 C18        -0.0218   -0.0049    0.0906 C.ar      1 <0>        -0.0703
     24 C19        -0.0404    1.3724    0.0982 C.ar      1 <0>        -0.1432
     25 C20         1.1494    2.0838    0.1203 C.ar      1 <0>        -0.0547
     26 C21         2.3577    1.4223    0.1348 C.ar      1 <0>        -0.1550
     27 C22         2.4037    0.0327    0.1325 C.ar      1 <0>         0.1648
     28 N4          3.7177   -0.4254    0.1655 N.pl3     1 <0>        -0.6172
     29 C23         4.5997    0.6853   -0.2540 C.3       1 <0>         0.0496
     30 C24         3.7845    1.9348    0.1522 C.3       1 <0>        -0.1141
     31 H1         -4.3552  -13.0935   -5.5333 H         1 <0>         0.1380
     32 H2         -4.2475  -15.5241   -5.1804 H         1 <0>         0.1447
     33 H3         -3.7733  -16.4191   -2.9435 H         1 <0>         0.1428
     34 H4         -4.0017  -11.5410   -3.7045 H         1 <0>         0.1342
     35 H5         -3.4052  -10.7438    1.1136 H         1 <0>         0.0795
     36 H6         -5.0324  -10.8536    0.3998 H         1 <0>         0.1258
     37 H7         -4.5094   -8.5341    1.1439 H         1 <0>         0.1395
     38 H8         -4.7515   -8.6198   -0.6177 H         1 <0>         0.1421
     39 H9         -2.7993   -8.5866   -2.0945 H         1 <0>         0.1437
     40 H10        -1.1720   -8.4767   -1.3807 H         1 <0>         0.1411
     41 H11        -1.4530  -10.7102   -0.3630 H         1 <0>         0.0726
     42 H12        -1.6948  -10.7965   -2.1246 H         1 <0>         0.1285
     43 H13        -3.3098   -6.5522    0.8865 H         1 <0>         0.1322
     44 H14        -3.2789   -6.5421   -0.8931 H         1 <0>         0.1347
     45 H15        -0.8065   -6.7267   -0.8513 H         1 <0>         0.0914
     46 H16        -0.8374   -6.7368    0.9284 H         1 <0>         0.0913
     47 H17        -1.8943   -4.4937    0.9228 H         1 <0>         0.0822
     48 H18        -1.8634   -4.4836   -0.8569 H         1 <0>         0.0826
     49 H19         0.6090   -4.6682   -0.8150 H         1 <0>         0.0708
     50 H20         0.5781   -4.6783    0.9647 H         1 <0>         0.0704
     51 H21        -0.7902   -2.3777    0.0638 H         1 <0>         0.3995
     52 H22        -0.9500   -0.5565    0.0717 H         1 <0>         0.1267
     53 H23        -0.9833    1.8990    0.0824 H         1 <0>         0.1340
     54 H24         1.1288    3.1636    0.1263 H         1 <0>         0.1294
     55 H25         3.9632   -0.7536    1.0874 H         1 <0>         0.3644
     56 H26         4.7633    0.6636   -1.3315 H         1 <0>         0.0911
     57 H27         5.5476    0.6505    0.2830 H         1 <0>         0.0907
     58 H28         3.9164    2.7355   -0.5755 H         1 <0>         0.0919
     59 H29         4.0616    2.2726    1.1507 H         1 <0>         0.0868
     60 N5         -2.7406   -8.3818    0.0166 N.4       1 <0>        -0.3996
     61 H30        -2.1471   -8.6946    0.7939 H         1 <0>         0.4267
@<TRIPOS>BOND
     1    1    6 ar
     2    1    2 ar
     3    1   31 1
     4    2    3 ar
     5    2   32 1
     6    3    4 ar
     7    3   33 1
     8    4    9 1
     9    4    5 ar
    10    5    6 ar
    11    5    7 1
    12    6   34 1
    13    7    8 2
    14    7   10 1
    15    8    9 1
    16   10   14 1
    17   10   11 1
    18   11   12 1
    19   11   35 1
    20   11   36 1
    21   12   37 1
    22   12   38 1
    23   12   60 1
    24   13   14 1
    25   13   39 1
    26   13   40 1
    27   13   60 1
    28   14   41 1
    29   14   42 1
    30   15   16 1
    31   15   43 1
    32   15   44 1
    33   15   60 1
    34   16   17 1
    35   16   45 1
    36   16   46 1
    37   17   18 1
    38   17   47 1
    39   17   48 1
    40   18   19 1
    41   18   49 1
    42   18   50 1
    43   19   20 am
    44   19   51 1
    45   20   21 2
    46   20   22 1
    47   22   27 ar
    48   22   23 ar
    49   23   24 ar
    50   23   52 1
    51   24   25 ar
    52   24   53 1
    53   25   26 ar
    54   25   54 1
    55   26   30 1
    56   26   27 ar
    57   27   28 1
    58   28   29 1
    59   28   55 1
    60   29   30 1
    61   29   56 1
    62   29   57 1
    63   30   58 1
    64   30   59 1
    65   60   61 1
@<TRIPOS>MOLECULE
ZINC01548097
   59    62     0     0     0
SMALL
USER_CHARGES
1-[4-[3-[4-(6-fluorobenzo[d]isoxazol-3-yl)-1-piperidyl]propoxy]-3-methoxy-phenyl]ethanone
@<TRIPOS>ATOM
      1 C1          5.4534   19.1223    1.8869 C.3       1 <0>        -0.1922
      2 C2          4.3501   18.7399    2.8395 C.2       1 <0>         0.3932
      3 O1          4.0275   19.4980    3.7297 O.2       1 <0>        -0.4508
      4 C3          3.6653   17.4493    2.6899 C.ar      1 <0>        -0.1605
      5 C4          4.0360   16.5727    1.6630 C.ar      1 <0>        -0.0670
      6 C5          3.3928   15.3632    1.5254 C.ar      1 <0>        -0.1853
      7 C6          2.3755   15.0095    2.4028 C.ar      1 <0>         0.1243
      8 C7          1.9965   15.8797    3.4249 C.ar      1 <0>         0.0954
      9 C8          2.6401   17.0916    3.5742 C.ar      1 <0>        -0.1155
     10 O2          0.9963   15.5315    4.2781 O.3       1 <0>        -0.3070
     11 C9          0.6601   16.4707    5.3013 C.3       1 <0>         0.0217
     12 O3          1.7447   13.8158    2.2616 O.3       1 <0>        -0.2975
     13 C10         2.1786   12.9754    1.1904 C.3       1 <0>         0.0594
     14 C11         1.3580   11.6841    1.1907 C.3       1 <0>        -0.1527
     15 C12         1.8225   10.7843    0.0437 C.3       1 <0>        -0.0007
     16 C13         1.2834    8.7626   -1.1738 C.3       1 <0>         0.0027
     17 C14         0.3423    7.5563   -1.2082 C.3       1 <0>        -0.1449
     18 C15         0.5821    6.6925    0.0332 C.3       1 <0>        -0.0235
     19 C16         0.3647    7.5425    1.2881 C.3       1 <0>        -0.1441
     20 C17         1.3040    8.7501    1.2493 C.3       1 <0>        -0.0044
     21 C18        -0.3830    5.5351    0.0354 C.2       1 <0>         0.1306
     22 C19        -0.0312    4.1126    0.0244 C.ar      1 <0>        -0.2138
     23 C20         1.1811    3.4182    0.0091 C.ar      1 <0>        -0.0102
     24 C21         1.1816    2.0526    0.0018 C.ar      1 <0>        -0.1747
     25 C22        -0.0162    1.3468    0.0094 C.ar      1 <0>         0.1754
     26 C23        -1.2242    2.0150    0.0188 C.ar      1 <0>        -0.1636
     27 C24        -1.2442    3.4039    0.0322 C.ar      1 <0>         0.1189
     28 O4         -2.2366    4.3165    0.0466 O.3       1 <0>        -0.0742
     29 N1         -1.6781    5.6150    0.0482 N.2       1 <0>        -0.2747
     30 F1          0.0021   -0.0041    0.0020 F         1 <0>        -0.1150
     31 H1          5.0645   19.6089    1.1046 H         1 <0>         0.0900
     32 H2          6.1673   19.7681    2.3983 H         1 <0>         0.0928
     33 H3          5.9614   18.2228    1.5394 H         1 <0>         0.0866
     34 H4          4.8261   16.8453    0.9790 H         1 <0>         0.1431
     35 H5          3.6796   14.6878    0.7329 H         1 <0>         0.1405
     36 H6          2.3502   17.7645    4.3677 H         1 <0>         0.1507
     37 H7         -0.1505   16.0700    5.9101 H         1 <0>         0.1071
     38 H8          1.5320   16.6506    5.9301 H         1 <0>         0.0600
     39 H9          0.3422   17.4077    4.8442 H         1 <0>         0.0600
     40 H10         3.2338   12.7354    1.3213 H         1 <0>         0.0747
     41 H11         2.0390   13.4944    0.2421 H         1 <0>         0.0748
     42 H12         0.3028   11.9241    1.0598 H         1 <0>         0.1006
     43 H13         1.4976   11.1651    2.1390 H         1 <0>         0.1001
     44 H14         2.8777   10.5443    0.1746 H         1 <0>         0.1370
     45 H15         1.6829   11.3033   -0.9046 H         1 <0>         0.1353
     46 H16         2.3172    8.4170   -1.1787 H         1 <0>         0.1364
     47 H17         1.1053    9.3872   -2.0491 H         1 <0>         0.1367
     48 H18         0.5379    6.9676   -2.1045 H         1 <0>         0.1205
     49 H19        -0.6917    7.9008   -1.2176 H         1 <0>         0.0993
     50 H20         1.6044    6.3144    0.0219 H         1 <0>         0.1178
     51 H21        -0.6688    7.8874    1.3195 H         1 <0>         0.0992
     52 H22         0.5762    6.9440    2.1742 H         1 <0>         0.1203
     53 H23         2.3377    8.4046    1.2331 H         1 <0>         0.1369
     54 H24         1.1407    9.3656    2.1340 H         1 <0>         0.1376
     55 H25         2.1154    3.9600    0.0035 H         1 <0>         0.1452
     56 H26         2.1193    1.5169   -0.0097 H         1 <0>         0.1544
     57 H27        -2.1505    1.4597    0.0202 H         1 <0>         0.1585
     58 N2          1.0059    9.5530    0.0442 N.4       1 <0>        -0.3961
     59 H28         0.0123    9.8119    0.0539 H         1 <0>         0.4307
@<TRIPOS>BOND
     1    1    2 1
     2    1   31 1
     3    1   32 1
     4    1   33 1
     5    2    3 2
     6    2    4 1
     7    4    9 ar
     8    4    5 ar
     9    5    6 ar
    10    5   34 1
    11    6    7 ar
    12    6   35 1
    13    7    8 ar
    14    7   12 1
    15    8    9 ar
    16    8   10 1
    17    9   36 1
    18   10   11 1
    19   11   37 1
    20   11   38 1
    21   11   39 1
    22   12   13 1
    23   13   14 1
    24   13   40 1
    25   13   41 1
    26   14   15 1
    27   14   42 1
    28   14   43 1
    29   15   44 1
    30   15   45 1
    31   15   58 1
    32   16   17 1
    33   16   46 1
    34   16   47 1
    35   16   58 1
    36   17   18 1
    37   17   48 1
    38   17   49 1
    39   18   19 1
    40   18   21 1
    41   18   50 1
    42   19   20 1
    43   19   51 1
    44   19   52 1
    45   20   53 1
    46   20   54 1
    47   20   58 1
    48   21   29 2
    49   21   22 1
    50   22   27 ar
    51   22   23 ar
    52   23   24 ar
    53   23   55 1
    54   24   25 ar
    55   24   56 1
    56   25   26 ar
    57   25   30 1
    58   26   27 ar
    59   26   57 1
    60   27   28 1
    61   28   29 1
    62   58   59 1
@<TRIPOS>MOLECULE
ZINC03870313
   44    45     0     0     0
SMALL
USER_CHARGES

@<TRIPOS>ATOM
      1 C1          1.4413   -2.5874   -2.4342 C.3       1 <0>        -0.1558
      2 C2          0.7544   -2.1400   -1.1423 C.3       1 <0>        -0.1491
      3 C3         -0.7443   -2.4339   -1.2335 C.3       1 <0>        -0.0201
      4 N1         -1.4039   -2.0044    0.0068 N.4       1 <0>        -0.3818
      5 C4         -1.3254   -0.5420    0.1221 C.3       1 <0>        -0.0189
      6 C5         -1.8949   -0.1056    1.4734 C.3       1 <0>        -0.1495
      7 C6         -1.6913    1.4004    1.6503 C.3       1 <0>        -0.1554
      8 C7         -2.8130   -2.4186   -0.0191 C.3       1 <0>         0.0212
      9 H1         -3.3345   -1.9999    0.8417 H         1 <0>         0.1439
     10 C8         -3.4725   -1.9253   -1.3124 C.3       1 <0>        -0.1372
     11 C9         -4.9780   -2.1583   -1.2047 C.3       1 <0>        -0.0775
     12 C10        -5.2664   -3.5813   -0.8033 C.ar      1 <0>        -0.0684
     13 C11        -6.5491   -4.0680   -1.0239 C.ar      1 <0>        -0.1225
     14 C12        -6.8811   -5.3604   -0.6738 C.ar      1 <0>        -0.0878
     15 C13        -5.9313   -6.1820   -0.0976 C.ar      1 <0>        -0.1384
     16 C14        -4.6513   -5.7025    0.1215 C.ar      1 <0>         0.1150
     17 C15        -4.3156   -4.3974   -0.2354 C.ar      1 <0>        -0.1164
     18 C16        -2.9018   -3.9428    0.0171 C.3       1 <0>        -0.0892
     19 O1         -3.7160   -6.5091    0.6885 O.3       1 <0>        -0.4966
     20 H2          2.5091   -2.3780   -2.3693 H         1 <0>         0.0777
     21 H3          1.2888   -3.6574   -2.5750 H         1 <0>         0.0667
     22 H4          1.0155   -2.0454   -3.2786 H         1 <0>         0.0666
     23 H5          1.1802   -2.6819   -0.2979 H         1 <0>         0.0859
     24 H6          0.9069   -1.0699   -1.0015 H         1 <0>         0.0859
     25 H7         -1.1702   -1.8919   -2.0779 H         1 <0>         0.1316
     26 H8         -0.8968   -3.5039   -1.3743 H         1 <0>         0.1312
     27 H9         -0.2845   -0.2270    0.0477 H         1 <0>         0.1340
     28 H10        -1.9022   -0.0828   -0.6807 H         1 <0>         0.1313
     29 H11        -2.9599   -0.3350    1.5100 H         1 <0>         0.0855
     30 H12        -1.3808   -0.6382    2.2735 H         1 <0>         0.0852
     31 H13        -2.2054    1.9330    0.8503 H         1 <0>         0.0669
     32 H14        -2.0971    1.7113    2.6130 H         1 <0>         0.0774
     33 H15        -0.6264    1.6298    1.6137 H         1 <0>         0.0669
     34 H16        -3.2741   -0.8615   -1.4430 H         1 <0>         0.0923
     35 H17        -3.0749   -2.4804   -2.1620 H         1 <0>         0.0927
     36 H18        -5.3938   -1.4827   -0.4571 H         1 <0>         0.0903
     37 H19        -5.4430   -1.9557   -2.1695 H         1 <0>         0.0990
     38 H20        -7.2937   -3.4279   -1.4736 H         1 <0>         0.1316
     39 H21        -7.8809   -5.7290   -0.8494 H         1 <0>         0.1360
     40 H22        -6.1865   -7.1938    0.1811 H         1 <0>         0.1370
     41 H23        -2.2487   -4.3592   -0.7498 H         1 <0>         0.0928
     42 H24        -2.5786   -4.2985    0.9954 H         1 <0>         0.1031
     43 H25        -3.2026   -7.0244    0.0514 H         1 <0>         0.3942
     44 H26        -0.9429   -2.4293    0.7974 H         1 <0>         0.4229
@<TRIPOS>BOND
     1    1    2 1
     2    1   20 1
     3    1   21 1
     4    1   22 1
     5    2    3 1
     6    2   23 1
     7    2   24 1
     8    3    4 1
     9    3   25 1
    10    3   26 1
    11    4    5 1
    12    4    8 1
    13    4   44 1
    14    5    6 1
    15    5   27 1
    16    5   28 1
    17    6    7 1
    18    6   29 1
    19    6   30 1
    20    7   31 1
    21    7   32 1
    22    7   33 1
    23    8    9 1
    24    8   18 1
    25    8   10 1
    26   10   11 1
    27   10   34 1
    28   10   35 1
    29   11   12 1
    30   11   36 1
    31   11   37 1
    32   12   17 ar
    33   12   13 ar
    34   13   14 ar
    35   13   38 1
    36   14   15 ar
    37   14   39 1
    38   15   16 ar
    39   15   40 1
    40   16   17 ar
    41   16   19 1
    42   17   18 1
    43   18   41 1
    44   18   42 1
    45   19   43 1
@<TRIPOS>MOLECULE
ZINC02003124
   41    43     0     0     0
SMALL
USER_CHARGES
7-(2-anilinoethylaminomethyl)chromen-2-one
@<TRIPOS>ATOM
      1 C1          8.7439   -3.5949   -6.6746 C.ar      1 <0>        -0.1605
      2 C2          9.3837   -3.9603   -5.5044 C.ar      1 <0>        -0.0708
      3 C3          8.8261   -3.6406   -4.2820 C.ar      1 <0>        -0.1817
      4 C4          7.6213   -2.9513   -4.2288 C.ar      1 <0>         0.1972
      5 C5          6.9787   -2.5905   -5.4063 C.ar      1 <0>        -0.1936
      6 C6          7.5444   -2.9087   -6.6253 C.ar      1 <0>        -0.0743
      7 N1          7.0543   -2.6269   -2.9943 N.pl3     1 <0>        -0.7513
      8 C7          5.7836   -1.8999   -2.9401 C.3       1 <0>         0.1039
      9 C8          5.3875   -1.6732   -1.4798 C.3       1 <0>        -0.0166
     10 C9          3.7007   -0.7081   -0.0356 C.3       1 <0>         0.0509
     11 C10         2.3927    0.0402   -0.0201 C.ar      1 <0>        -0.1205
     12 C11         1.1979   -0.6653   -0.0129 C.ar      1 <0>        -0.1183
     13 C12         0.0021   -0.0041    0.0020 C.ar      1 <0>        -0.0488
     14 C13        -0.0169    1.3941    0.0097 C.ar      1 <0>        -0.1193
     15 C14        -1.2829    2.1331    0.0319 C.2       1 <0>        -0.0237
     16 C15        -1.2332    3.4893    0.0342 C.2       1 <0>        -0.2119
     17 C16         0.0167    4.1457    0.0261 C.2       1 <0>         0.5040
     18 O1          0.0477    5.3630    0.0332 O.2       1 <0>        -0.4352
     19 O2          1.1715    3.4622    0.0104 O.3       1 <0>        -0.2705
     20 C17         1.1915    2.1123    0.0020 C.ar      1 <0>         0.1466
     21 C18         2.3954    1.4193   -0.0127 C.ar      1 <0>        -0.1033
     22 H1          9.1819   -3.8464   -7.6292 H         1 <0>         0.1252
     23 H2         10.3206   -4.4958   -5.5464 H         1 <0>         0.1279
     24 H3          9.3261   -3.9266   -3.3684 H         1 <0>         0.1229
     25 H4          6.0396   -2.0584   -5.3685 H         1 <0>         0.1159
     26 H5          7.0473   -2.6248   -7.5412 H         1 <0>         0.1253
     27 H6          7.5020   -2.8829   -2.1727 H         1 <0>         0.4058
     28 H7          5.0100   -2.4827   -3.4401 H         1 <0>         0.0793
     29 H8          5.8939   -0.9377   -3.4402 H         1 <0>         0.0793
     30 H9          6.1611   -1.0904   -0.9798 H         1 <0>         0.1397
     31 H10         5.2773   -2.6354   -0.9797 H         1 <0>         0.1398
     32 H11         4.4626   -0.1186    0.4745 H         1 <0>         0.1444
     33 H12         3.5787   -1.6636    0.4746 H         1 <0>         0.1464
     34 H13         1.2132   -1.7452   -0.0189 H         1 <0>         0.1446
     35 H14        -0.9244   -0.5590    0.0075 H         1 <0>         0.1529
     36 H15        -2.2291    1.6126    0.0421 H         1 <0>         0.1639
     37 H16        -2.1471    4.0648    0.0464 H         1 <0>         0.1753
     38 H17         3.3308    1.9590   -0.0180 H         1 <0>         0.1530
     39 N2          4.1078   -0.9410   -1.4341 N.4       1 <0>        -0.5155
     40 H18         3.3845   -1.4931   -1.9099 H         1 <0>         0.4356
     41 H19         4.2171   -0.0378   -1.9099 H         1 <0>         0.4360
@<TRIPOS>BOND
     1    1    6 ar
     2    1    2 ar
     3    1   22 1
     4    2    3 ar
     5    2   23 1
     6    3    4 ar
     7    3   24 1
     8    4    5 ar
     9    4    7 1
    10    5    6 ar
    11    5   25 1
    12    6   26 1
    13    7    8 1
    14    7   27 1
    15    8    9 1
    16    8   28 1
    17    8   29 1
    18    9   30 1
    19    9   31 1
    20    9   39 1
    21   10   11 1
    22   10   32 1
    23   10   33 1
    24   10   39 1
    25   11   21 ar
    26   11   12 ar
    27   12   13 ar
    28   12   34 1
    29   13   14 ar
    30   13   35 1
    31   14   20 ar
    32   14   15 1
    33   15   16 2
    34   15   36 1
    35   16   17 1
    36   16   37 1
    37   17   18 2
    38   17   19 1
    39   19   20 1
    40   20   21 ar
    41   21   38 1
    42   39   40 1
    43   39   41 1
@<TRIPOS>MOLECULE
ZINC04632541
   54    57     0     0     0
SMALL
USER_CHARGES
3-[2-[4-(3,4-dimethylphenyl)piperazin-1-yl]ethyl]isoindolin-1-one
@<TRIPOS>ATOM
      1 C1          7.8495   -7.8113   -8.5815 C.3       1 <0>        -0.1249
      2 C2          7.5575   -7.0117   -7.3380 C.ar      1 <0>        -0.0892
      3 C3          8.2223   -5.8202   -7.1119 C.ar      1 <0>        -0.0896
      4 C4          7.9530   -5.0821   -5.9763 C.ar      1 <0>        -0.1644
      5 C5          7.0203   -5.5428   -5.0554 C.ar      1 <0>         0.0817
      6 C6          6.3545   -6.7398   -5.2856 C.ar      1 <0>        -0.1253
      7 C7          6.6252   -7.4706   -6.4259 C.ar      1 <0>        -0.0577
      8 C8          5.9032   -8.7695   -6.6765 C.3       1 <0>        -0.1254
      9 N1          6.7486   -4.8009   -3.9036 N.pl3     1 <0>        -0.4850
     10 C9          7.5607   -3.5769   -3.8617 C.3       1 <0>         0.0204
     11 C10         7.2927   -2.8347   -2.5503 C.3       1 <0>         0.0027
     12 C11         5.0490   -3.7410   -2.4959 C.3       1 <0>        -0.0019
     13 C12         5.3170   -4.4833   -3.8072 C.3       1 <0>         0.0256
     14 C13         5.5754   -1.7368   -1.2426 C.3       1 <0>        -0.0061
     15 C14         4.1385   -1.2144   -1.2995 C.3       1 <0>        -0.1573
     16 C15         3.8408   -0.4018   -0.0377 C.3       1 <0>         0.1875
     17 H1          4.0710   -0.9903    0.8504 H         1 <0>         0.1123
     18 C16         2.3920    0.0171   -0.0208 C.ar      1 <0>        -0.0963
     19 C17         1.2083   -0.6840   -0.0132 C.ar      1 <0>        -0.0985
     20 C18         0.0021   -0.0041    0.0020 C.ar      1 <0>        -0.0822
     21 C19        -0.0167    1.3796    0.0096 C.ar      1 <0>        -0.1135
     22 C20         1.1644    2.0922    0.0022 C.ar      1 <0>        -0.0412
     23 C21         2.3846    1.4137   -0.0132 C.ar      1 <0>        -0.1557
     24 C22         3.7831    1.8839   -0.0249 C.2       1 <0>         0.5626
     25 O1          4.1238    3.0507   -0.0221 O.2       1 <0>        -0.5036
     26 N2          4.6266    0.8374   -0.0391 N.am      1 <0>        -0.7316
     27 H2          7.1801   -7.4959   -9.3818 H         1 <0>         0.0752
     28 H3          8.8830   -7.6455   -8.8857 H         1 <0>         0.0699
     29 H4          7.6967   -8.8709   -8.3764 H         1 <0>         0.0750
     30 H5          8.9497   -5.4643   -7.8265 H         1 <0>         0.1290
     31 H6          8.4693   -4.1496   -5.8026 H         1 <0>         0.1255
     32 H7          5.6256   -7.0984   -4.5739 H         1 <0>         0.1268
     33 H8          4.9895   -8.5748   -7.2380 H         1 <0>         0.0765
     34 H9          6.5462   -9.4379   -7.2492 H         1 <0>         0.0775
     35 H10         5.6519   -9.2352   -5.7236 H         1 <0>         0.0695
     36 H11         7.2963   -2.9361   -4.7029 H         1 <0>         0.0707
     37 H12         8.6170   -3.8391   -3.9219 H         1 <0>         0.1300
     38 H13         7.8722   -1.9117   -2.5299 H         1 <0>         0.1378
     39 H14         7.5828   -3.4648   -1.7096 H         1 <0>         0.1419
     40 H15         5.3135   -4.3818   -1.6547 H         1 <0>         0.1427
     41 H16         3.9927   -3.4788   -2.4357 H         1 <0>         0.1379
     42 H17         5.0271   -3.8528   -4.6478 H         1 <0>         0.0684
     43 H18         4.7375   -5.4062   -3.8277 H         1 <0>         0.1280
     44 H19         6.2657   -0.8954   -1.1810 H         1 <0>         0.1289
     45 H20         5.6968   -2.3713   -0.3647 H         1 <0>         0.1391
     46 H21         3.4482   -2.0558   -1.3610 H         1 <0>         0.1062
     47 H22         4.0170   -0.5799   -2.1774 H         1 <0>         0.0980
     48 H23         1.2198   -1.7639   -0.0187 H         1 <0>         0.1322
     49 H24        -0.9267   -0.5552    0.0076 H         1 <0>         0.1396
     50 H25        -0.9607    1.9042    0.0169 H         1 <0>         0.1405
     51 H26         1.1453    3.1720    0.0078 H         1 <0>         0.1382
     52 H27         5.5950    0.8923   -0.0486 H         1 <0>         0.4229
     53 N3          5.8544   -2.5019   -2.4766 N.4       1 <0>        -0.3975
     54 H28         5.6026   -1.9274   -3.2894 H         1 <0>         0.4261
@<TRIPOS>BOND
     1    1    2 1
     2    1   27 1
     3    1   28 1
     4    1   29 1
     5    2    7 ar
     6    2    3 ar
     7    3    4 ar
     8    3   30 1
     9    4    5 ar
    10    4   31 1
    11    5    6 ar
    12    5    9 1
    13    6    7 ar
    14    6   32 1
    15    7    8 1
    16    8   33 1
    17    8   34 1
    18    8   35 1
    19    9   13 1
    20    9   10 1
    21   10   11 1
    22   10   36 1
    23   10   37 1
    24   11   38 1
    25   11   39 1
    26   11   53 1
    27   12   13 1
    28   12   40 1
    29   12   41 1
    30   12   53 1
    31   13   42 1
    32   13   43 1
    33   14   15 1
    34   14   44 1
    35   14   45 1
    36   14   53 1
    37   15   16 1
    38   15   46 1
    39   15   47 1
    40   16   17 1
    41   16   26 1
    42   16   18 1
    43   18   23 ar
    44   18   19 ar
    45   19   20 ar
    46   19   48 1
    47   20   21 ar
    48   20   49 1
    49   21   22 ar
    50   21   50 1
    51   22   23 ar
    52   22   51 1
    53   23   24 1
    54   24   25 2
    55   24   26 am
    56   26   52 1
    57   53   54 1
@<TRIPOS>MOLECULE
ZINC03827164
   54    57     0     0     0
SMALL
USER_CHARGES
3-[2-[4-(3,4-dimethylphenyl)piperazin-1-yl]ethyl]isoindolin-1-one
@<TRIPOS>ATOM
      1 C1          1.7632   -0.4862    5.8957 C.3       1 <0>        -0.1249
      2 C2          1.1087    0.0582    4.6522 C.ar      1 <0>        -0.0892
      3 C3          1.6104   -0.2734    3.4068 C.ar      1 <0>        -0.0896
      4 C4          1.0096    0.2191    2.2652 C.ar      1 <0>        -0.1641
      5 C5         -0.0939    1.0567    2.3690 C.ar      1 <0>         0.0816
      6 C6         -0.5952    1.3877    3.6213 C.ar      1 <0>        -0.1256
      7 C7          0.0077    0.8877    4.7590 C.ar      1 <0>        -0.0577
      8 C8         -0.5355    1.2463    6.1182 C.3       1 <0>        -0.1251
      9 N1         -0.7014    1.5602    1.2164 N.pl3     1 <0>        -0.4850
     10 C9         -0.0127    1.0858    0.0080 C.3       1 <0>         0.0204
     11 C10        -0.7538    1.5933   -1.2312 C.3       1 <0>         0.0026
     12 C11        -1.4953    3.5359    0.0077 C.3       1 <0>        -0.0018
     13 C12        -0.7542    3.0285    1.2469 C.3       1 <0>         0.0257
     14 C13        -1.4446    3.5911   -2.4129 C.3       1 <0>        -0.0061
     15 C14        -1.2602    5.1090   -2.4650 C.3       1 <0>        -0.1571
     16 C15        -1.9252    5.6605   -3.7277 C.3       1 <0>         0.1876
     17 H1         -2.9710    5.3555   -3.7636 H         1 <0>         0.1124
     18 C16        -1.8216    7.1650   -3.7532 C.ar      1 <0>        -0.0963
     19 C17        -2.2800    8.1556   -2.9157 C.ar      1 <0>        -0.0983
     20 C18        -2.0219    9.4839   -3.2096 C.ar      1 <0>        -0.0822
     21 C19        -1.3036    9.8187   -4.3441 C.ar      1 <0>        -0.1135
     22 C20        -0.8395    8.8333   -5.1904 C.ar      1 <0>        -0.0412
     23 C21        -1.0957    7.4917   -4.9008 C.ar      1 <0>        -0.1558
     24 C22        -0.7408    6.2396   -5.5959 C.2       1 <0>         0.5627
     25 O1         -0.1073    6.1753   -6.6313 O.2       1 <0>        -0.5036
     26 N2         -1.2186    5.1800   -4.9206 N.am      1 <0>        -0.7318
     27 H2          1.3010   -1.4364    6.1634 H         1 <0>         0.0763
     28 H3          2.8263   -0.6390    5.7096 H         1 <0>         0.0693
     29 H4          1.6358    0.2230    6.7136 H         1 <0>         0.0745
     30 H5          2.4708   -0.9213    3.3269 H         1 <0>         0.1290
     31 H6          1.3992   -0.0438    1.2928 H         1 <0>         0.1255
     32 H7         -1.4556    2.0350    3.7054 H         1 <0>         0.1268
     33 H8         -1.2863    0.5136    6.4143 H         1 <0>         0.0781
     34 H9          0.2767    1.2483    6.8451 H         1 <0>         0.0769
     35 H10        -0.9899    2.2362    6.0783 H         1 <0>         0.0684
     36 H11         0.0021   -0.0041    0.0020 H         1 <0>         0.1300
     37 H12         1.0098    1.4634    0.0003 H         1 <0>         0.0707
     38 H13        -0.2280    1.2668   -2.1285 H         1 <0>         0.1378
     39 H14        -1.7678    1.1933   -1.2378 H         1 <0>         0.1419
     40 H15        -1.5101    4.6258    0.0137 H         1 <0>         0.1379
     41 H16        -2.5177    3.1580    0.0152 H         1 <0>         0.1427
     42 H17         0.2597    3.4285    1.2535 H         1 <0>         0.0685
     43 H18        -1.2798    3.3552    2.1442 H         1 <0>         0.1280
     44 H19        -0.9858    3.1390   -3.2922 H         1 <0>         0.1288
     45 H20        -2.5086    3.3547   -2.3961 H         1 <0>         0.1391
     46 H21        -1.7190    5.5612   -1.5857 H         1 <0>         0.1063
     47 H22        -0.1963    5.3454   -2.4818 H         1 <0>         0.0978
     48 H23        -2.8409    7.8973   -2.0296 H         1 <0>         0.1322
     49 H24        -2.3818   10.2608   -2.5514 H         1 <0>         0.1396
     50 H25        -1.1059   10.8565   -4.5681 H         1 <0>         0.1405
     51 H26        -0.2790    9.0989   -6.0746 H         1 <0>         0.1382
     52 H27        -1.1138    4.2511   -5.1794 H         1 <0>         0.4228
     53 N3         -0.7798    3.0707   -1.1992 N.4       1 <0>        -0.3974
     54 H28         0.1850    3.4209   -1.1711 H         1 <0>         0.4261
@<TRIPOS>BOND
     1    1    2 1
     2    1   27 1
     3    1   28 1
     4    1   29 1
     5    2    7 ar
     6    2    3 ar
     7    3    4 ar
     8    3   30 1
     9    4    5 ar
    10    4   31 1
    11    5    6 ar
    12    5    9 1
    13    6    7 ar
    14    6   32 1
    15    7    8 1
    16    8   33 1
    17    8   34 1
    18    8   35 1
    19    9   13 1
    20    9   10 1
    21   10   11 1
    22   10   36 1
    23   10   37 1
    24   11   38 1
    25   11   39 1
    26   11   53 1
    27   12   13 1
    28   12   40 1
    29   12   41 1
    30   12   53 1
    31   13   42 1
    32   13   43 1
    33   14   15 1
    34   14   44 1
    35   14   45 1
    36   14   53 1
    37   15   16 1
    38   15   46 1
    39   15   47 1
    40   16   17 1
    41   16   26 1
    42   16   18 1
    43   18   23 ar
    44   18   19 ar
    45   19   20 ar
    46   19   48 1
    47   20   21 ar
    48   20   49 1
    49   21   22 ar
    50   21   50 1
    51   22   23 ar
    52   22   51 1
    53   23   24 1
    54   24   25 2
    55   24   26 am
    56   26   52 1
    57   53   54 1
@<TRIPOS>MOLECULE
ZINC00057058
   26    27     0     0     0
SMALL
USER_CHARGES

@<TRIPOS>ATOM
      1 C1         -0.0168    1.3880    0.0097 C.ar      1 <0>        -0.1182
      2 C2          1.1587    2.1055    0.0023 C.ar      1 <0>        -0.1024
      3 C3          2.3795    1.4398   -0.0129 C.ar      1 <0>         0.0862
      4 C4          2.4019    0.0334   -0.0206 C.ar      1 <0>        -0.0842
      5 C5          1.2039   -0.6838   -0.0130 C.ar      1 <0>        -0.1143
      6 C6          0.0021   -0.0041    0.0020 C.ar      1 <0>         0.0953
      7 O1         -1.1679   -0.6972    0.0094 O.3       1 <0>        -0.4959
      8 C7          3.8159   -0.3493   -0.0361 C.2       1 <0>        -0.2101
      9 C8          4.5307    0.7870   -0.0369 C.2       1 <0>         0.0918
     10 N1          3.6908    1.8667   -0.0231 N.pl3     1 <0>        -0.5866
     11 H1          3.9751    2.7941   -0.0208 H         1 <0>         0.4248
     12 C9          4.3642   -1.7530   -0.0489 C.3       1 <0>        -0.0616
     13 C10         4.4190   -2.2661   -1.4892 C.3       1 <0>        -0.0080
     14 N2          4.9535   -3.6343   -1.5017 N.4       1 <0>        -0.6389
     15 H2         -0.9621    1.9101    0.0260 H         1 <0>         0.1389
     16 H3          1.1325    3.1852    0.0080 H         1 <0>         0.1315
     17 H4          1.2172   -1.7637   -0.0192 H         1 <0>         0.1256
     18 H5         -1.5147   -0.8930   -0.8718 H         1 <0>         0.3922
     19 H6          5.6093    0.8408   -0.0472 H         1 <0>         0.1750
     20 H7          5.3681   -1.7548    0.3759 H         1 <0>         0.0927
     21 H8          3.7180   -2.4009    0.5433 H         1 <0>         0.0925
     22 H9          3.4152   -2.2643   -1.9140 H         1 <0>         0.1329
     23 H10         5.0652   -1.6182   -2.0814 H         1 <0>         0.1331
     24 H11         5.8827   -3.6360   -1.1085 H         1 <0>         0.4347
     25 H12         4.3553   -4.2341   -0.9535 H         1 <0>         0.4353
     26 H13         4.9896   -3.9727   -2.4515 H         1 <0>         0.4379
@<TRIPOS>BOND
     1    1    6 ar
     2    1    2 ar
     3    1   15 1
     4    2    3 ar
     5    2   16 1
     6    3   10 1
     7    3    4 ar
     8    4    5 ar
     9    4    8 1
    10    5    6 ar
    11    5   17 1
    12    6    7 1
    13    7   18 1
    14    8    9 2
    15    8   12 1
    16    9   10 1
    17    9   19 1
    18   10   11 1
    19   12   13 1
    20   12   20 1
    21   12   21 1
    22   13   14 1
    23   13   22 1
    24   13   23 1
    25   14   24 1
    26   14   25 1
    27   14   26 1
@<TRIPOS>MOLECULE
ZINC19796155
   42    45     0     0     0
SMALL
USER_CHARGES

@<TRIPOS>ATOM
      1 C1         -0.0670    1.4396   -0.3852 C.3       1 <0>         0.0243
      2 N1         -0.0229   -0.0169   -0.1987 N.3       1 <0>        -0.5428
      3 C2          0.3808   -0.6943   -1.4380 C.3       1 <0>         0.0399
      4 C3          0.2401   -2.2095   -1.2572 C.3       1 <0>         0.1263
      5 N2          0.9912   -2.6085   -0.0572 N.pl3     1 <0>        -0.5953
      6 C4          0.7394   -1.8803    1.1955 C.3       1 <0>         0.1122
      7 C5          0.8604   -0.3781    0.9181 C.3       1 <0>         0.0393
      8 C6          1.9051   -3.6365   -0.1053 C.2       1 <0>         0.5098
      9 N3          2.1670   -4.1290   -1.2643 N.2       1 <0>        -0.6041
     10 C7          3.0130   -5.1503   -1.5719 C.ar      1 <0>         0.1655
     11 C8          2.6280   -6.0848   -2.5372 C.ar      1 <0>        -0.1058
     12 C9          3.4872   -7.1047   -2.8991 C.ar      1 <0>        -0.0230
     13 C10         4.7348   -7.2069   -2.3106 C.ar      1 <0>        -0.1209
     14 C11         5.1212   -6.2977   -1.3402 C.ar      1 <0>        -0.1017
     15 C12         4.2618   -5.2835   -0.9546 C.ar      1 <0>         0.1117
     16 N4          4.6314   -4.4326    0.1003 N.pl3     1 <0>        -0.7261
     17 C13         3.8434   -4.4184    1.2519 C.ar      1 <0>         0.2140
     18 C14         2.4943   -4.0640    1.1729 C.ar      1 <0>        -0.1453
     19 C15         1.7072   -4.1133    2.3240 C.ar      1 <0>        -0.0723
     20 C16         2.2727   -4.4729    3.5311 C.ar      1 <0>        -0.1389
     21 C17         3.6189   -4.7825    3.6069 C.ar      1 <0>        -0.0765
     22 C18         4.3974   -4.7629    2.4751 C.ar      1 <0>        -0.1433
     23 Cl1         2.9987   -8.2627   -4.0966 Cl        1 <0>        -0.0679
     24 H1          0.9359    1.8090   -0.5992 H         1 <0>         0.0255
     25 H2         -0.7279    1.6794   -1.2181 H         1 <0>         0.0711
     26 H3         -0.4416    1.9111    0.5233 H         1 <0>         0.0709
     27 H4         -0.2581   -0.3649   -2.2574 H         1 <0>         0.0878
     28 H5          1.4186   -0.4499   -1.6647 H         1 <0>         0.0378
     29 H6         -0.8117   -2.4673   -1.1334 H         1 <0>         0.0720
     30 H7          0.6453   -2.7216   -2.1299 H         1 <0>         0.1060
     31 H8         -0.2645   -2.1065    1.5551 H         1 <0>         0.0792
     32 H9          1.4746   -2.1748    1.9444 H         1 <0>         0.0984
     33 H10         1.8915   -0.1381    0.6586 H         1 <0>         0.0379
     34 H11         0.5693    0.1807    1.8075 H         1 <0>         0.0892
     35 H12         1.6558   -6.0097   -3.0016 H         1 <0>         0.1375
     36 H13         5.4083   -7.9971   -2.6081 H         1 <0>         0.1357
     37 H14         6.0961   -6.3802   -0.8829 H         1 <0>         0.1326
     38 H15         5.4169   -3.8679    0.0299 H         1 <0>         0.4097
     39 H16         0.6563   -3.8699    2.2709 H         1 <0>         0.1344
     40 H17         1.6613   -4.5124    4.4205 H         1 <0>         0.1323
     41 H18         4.0571   -5.0467    4.5580 H         1 <0>         0.1317
     42 H19         5.4473   -5.0071    2.5424 H         1 <0>         0.1313
@<TRIPOS>BOND
     1    1    2 1
     2    1   24 1
     3    1   25 1
     4    1   26 1
     5    2    7 1
     6    2    3 1
     7    3    4 1
     8    3   27 1
     9    3   28 1
    10    4    5 1
    11    4   29 1
    12    4   30 1
    13    5    6 1
    14    5    8 1
    15    6    7 1
    16    6   31 1
    17    6   32 1
    18    7   33 1
    19    7   34 1
    20    8   18 1
    21    8    9 2
    22    9   10 1
    23   10   15 ar
    24   10   11 ar
    25   11   12 ar
    26   11   35 1
    27   12   13 ar
    28   12   23 1
    29   13   14 ar
    30   13   36 1
    31   14   15 ar
    32   14   37 1
    33   15   16 1
    34   16   17 1
    35   16   38 1
    36   17   22 ar
    37   17   18 ar
    38   18   19 ar
    39   19   20 ar
    40   19   39 1
    41   20   21 ar
    42   20   40 1
    43   21   22 ar
    44   21   41 1
    45   22   42 1
@<TRIPOS>MOLECULE
ZINC19796155
   44    47     0     0     0
SMALL
USER_CHARGES

@<TRIPOS>ATOM
      1 C1         -1.5703   -0.0018   -1.9302 C.3       1 <0>        -0.0497
      2 N1         -0.7527   -0.7171   -0.9414 N.4       1 <0>        -0.3854
      3 C2         -1.0498   -2.1535   -1.0104 C.3       1 <0>        -0.0252
      4 C3         -0.2839   -2.8861    0.0962 C.3       1 <0>         0.1048
      5 N2          1.1441   -2.5548   -0.0269 N.pl3     1 <0>        -0.7052
      6 C4          1.5202   -1.1363   -0.1296 C.3       1 <0>         0.1049
      7 C5          0.6692   -0.4862   -1.2256 C.3       1 <0>        -0.0251
      8 C6          2.0831   -3.5253   -0.0448 C.2       1 <0>         0.6309
      9 C7          2.6112   -3.9094    1.2074 C.ar      1 <0>        -0.2438
     10 C8          2.0495   -3.1929    2.2728 C.ar      1 <0>         0.0055
     11 C9          2.4602   -3.4528    3.5483 C.ar      1 <0>        -0.1817
     12 C10         3.4265   -4.4148    3.8208 C.ar      1 <0>         0.0489
     13 C11         4.0101   -5.1439    2.8276 C.ar      1 <0>        -0.2233
     14 C12         3.6302   -4.9235    1.4921 C.ar      1 <0>         0.3343
     15 N3          4.2865   -5.7106    0.6358 N.pl3     1 <0>        -0.6131
     16 C13         4.1767   -5.7728   -0.7271 C.ar      1 <0>         0.1589
     17 C14         5.0408   -6.7320   -1.2562 C.ar      1 <0>        -0.1157
     18 C15         5.0795   -6.9478   -2.6222 C.ar      1 <0>        -0.0495
     19 C16         4.2642   -6.2154   -3.4643 C.ar      1 <0>        -0.0338
     20 C17         3.4016   -5.2585   -2.9468 C.ar      1 <0>        -0.0846
     21 C18         3.3520   -5.0321   -1.5848 C.ar      1 <0>         0.0769
     22 N4          2.4115   -4.0290   -1.2719 N.pl3     1 <0>        -0.5773
     23 Cl1         4.3195   -6.4929   -5.1771 Cl        1 <0>        -0.0159
     24 H1         -1.3348   -0.3678   -2.9295 H         1 <0>         0.1246
     25 H2         -2.6262   -0.1724   -1.7203 H         1 <0>         0.1321
     26 H3         -1.3566    1.0656   -1.8745 H         1 <0>         0.1321
     27 H4         -2.1201   -2.3101   -0.8766 H         1 <0>         0.1569
     28 H5         -0.7442   -2.5415   -1.9820 H         1 <0>         0.1344
     29 H6         -0.6518   -2.5648    1.0707 H         1 <0>         0.1155
     30 H7         -0.4211   -3.9618   -0.0138 H         1 <0>         0.1302
     31 H8          1.3345   -0.6383    0.8220 H         1 <0>         0.1155
     32 H9          2.5758   -1.0551   -0.3891 H         1 <0>         0.1302
     33 H10         0.9228   -0.9247   -2.1907 H         1 <0>         0.1344
     34 H11         0.8655    0.5856   -1.2504 H         1 <0>         0.1569
     35 H12         1.2975   -2.4405    2.0860 H         1 <0>         0.1502
     36 H13         2.0243   -2.8976    4.3657 H         1 <0>         0.1496
     37 H14         3.7223   -4.5886    4.8448 H         1 <0>         0.1558
     38 H15         4.7590   -5.8851    3.0650 H         1 <0>         0.1623
     39 H16         5.6790   -7.3052   -0.6001 H         1 <0>         0.1677
     40 H17         5.7487   -7.6901   -3.0316 H         1 <0>         0.1653
     41 H18         2.7675   -4.6896   -3.6107 H         1 <0>         0.1565
     42 H19         1.9393   -3.6432   -2.0263 H         1 <0>         0.4255
     43 H20         4.9278   -6.3202    1.0333 H         1 <0>         0.4372
     44 H21        -0.9695   -0.3754   -0.0171 H         1 <0>         0.4310
@<TRIPOS>BOND
     1    1    2 1
     2    1   24 1
     3    1   25 1
     4    1   26 1
     5    2    7 1
     6    2    3 1
     7    2   44 1
     8    3    4 1
     9    3   27 1
    10    3   28 1
    11    4    5 1
    12    4   29 1
    13    4   30 1
    14    5    6 1
    15    5    8 1
    16    6    7 1
    17    6   31 1
    18    6   32 1
    19    7   33 1
    20    7   34 1
    21    8   22 1
    22    8    9 2
    23    9   14 ar
    24    9   10 ar
    25   10   11 ar
    26   10   35 1
    27   11   12 ar
    28   11   36 1
    29   12   13 ar
    30   12   37 1
    31   13   14 ar
    32   13   38 1
    33   14   15 2
    34   15   16 1
    35   15   43 1
    36   16   21 ar
    37   16   17 ar
    38   17   18 ar
    39   17   39 1
    40   18   19 ar
    41   18   40 1
    42   19   20 ar
    43   19   23 1
    44   20   21 ar
    45   20   41 1
    46   21   22 1
    47   22   42 1
@<TRIPOS>MOLECULE
ZINC19796155
   43    46     0     0     0
SMALL
USER_CHARGES

@<TRIPOS>ATOM
      1 C1         -0.0523    1.4387   -0.3863 C.3       1 <0>        -0.0469
      2 N1         -0.0147   -0.0168   -0.1908 N.4       1 <0>        -0.3852
      3 C2          0.4863   -0.6601   -1.4120 C.3       1 <0>        -0.0213
      4 C3          0.4181   -2.1823   -1.2510 C.3       1 <0>         0.1002
      5 N2          1.1441   -2.5548   -0.0269 N.pl3     1 <0>        -0.6180
      6 C4          0.8178   -1.8405    1.2170 C.3       1 <0>         0.0860
      7 C5          0.8671   -0.3344    0.9395 C.3       1 <0>        -0.0221
      8 C6          2.1017   -3.5432   -0.0451 C.2       1 <0>         0.5019
      9 N3          2.4234   -4.0210   -1.1951 N.2       1 <0>        -0.5760
     10 C7          3.3217   -5.0050   -1.4750 C.ar      1 <0>         0.1390
     11 C8          3.0096   -5.9522   -2.4541 C.ar      1 <0>        -0.0932
     12 C9          3.9229   -6.9340   -2.7877 C.ar      1 <0>        -0.0267
     13 C10         5.1529   -6.9852   -2.1572 C.ar      1 <0>        -0.1032
     14 C11         5.4673   -6.0631   -1.1730 C.ar      1 <0>        -0.1031
     15 C12         4.5533   -5.0871   -0.8155 C.ar      1 <0>         0.1235
     16 N4          4.8505   -4.2243    0.2524 N.pl3     1 <0>        -0.7273
     17 C13         4.0239   -4.2464    1.3765 C.ar      1 <0>         0.2173
     18 C14         2.6645   -3.9489    1.2520 C.ar      1 <0>        -0.1537
     19 C15         1.8414   -4.0345    2.3754 C.ar      1 <0>        -0.0841
     20 C16         2.3802   -4.3733    3.6007 C.ar      1 <0>        -0.1334
     21 C17         3.7349   -4.6261    3.7220 C.ar      1 <0>        -0.0692
     22 C18         4.5500   -4.5705    2.6174 C.ar      1 <0>        -0.1369
     23 Cl1         3.5248   -8.1083   -4.0027 Cl        1 <0>        -0.0551
     24 H1          0.9534    1.8033   -0.5956 H         1 <0>         0.1211
     25 H2         -0.7066    1.6758   -1.2253 H         1 <0>         0.1256
     26 H3         -0.4316    1.9169    0.5167 H         1 <0>         0.1252
     27 H4         -0.1269   -0.3565   -2.2605 H         1 <0>         0.1425
     28 H5          1.5196   -0.3587   -1.5839 H         1 <0>         0.1315
     29 H6         -0.6226   -2.4957   -1.1694 H         1 <0>         0.0898
     30 H7          0.8819   -2.6629   -2.1125 H         1 <0>         0.1431
     31 H8         -0.1827   -2.1194    1.5479 H         1 <0>         0.0960
     32 H9          1.5457   -2.0950    1.9873 H         1 <0>         0.1385
     33 H10         1.8889   -0.0428    0.6965 H         1 <0>         0.1320
     34 H11         0.5345    0.2092    1.8238 H         1 <0>         0.1439
     35 H12         2.0515   -5.9169   -2.9512 H         1 <0>         0.1396
     36 H13         5.8689   -7.7454   -2.4325 H         1 <0>         0.1422
     37 H14         6.4287   -6.1057   -0.6827 H         1 <0>         0.1382
     38 H15         5.6134   -3.6267    0.2096 H         1 <0>         0.4129
     39 H16         0.7836   -3.8354    2.2868 H         1 <0>         0.1314
     40 H17         1.7411   -4.4409    4.4686 H         1 <0>         0.1357
     41 H18         4.1512   -4.8742    4.6872 H         1 <0>         0.1370
     42 H19         5.6063   -4.7705    2.7202 H         1 <0>         0.1363
     43 H20        -0.9456   -0.3526    0.0057 H         1 <0>         0.4250
@<TRIPOS>BOND
     1    1    2 1
     2    1   24 1
     3    1   25 1
     4    1   26 1
     5    2    7 1
     6    2    3 1
     7    2   43 1
     8    3    4 1
     9    3   27 1
    10    3   28 1
    11    4    5 1
    12    4   29 1
    13    4   30 1
    14    5    6 1
    15    5    8 1
    16    6    7 1
    17    6   31 1
    18    6   32 1
    19    7   33 1
    20    7   34 1
    21    8   18 1
    22    8    9 2
    23    9   10 1
    24   10   15 ar
    25   10   11 ar
    26   11   12 ar
    27   11   35 1
    28   12   13 ar
    29   12   23 1
    30   13   14 ar
    31   13   36 1
    32   14   15 ar
    33   14   37 1
    34   15   16 1
    35   16   17 1
    36   16   38 1
    37   17   22 ar
    38   17   18 ar
    39   18   19 ar
    40   19   20 ar
    41   19   39 1
    42   20   21 ar
    43   20   40 1
    44   21   22 ar
    45   21   41 1
    46   22   42 1
@<TRIPOS>MOLECULE
ZINC25758996
   47    49     0     0     0
SMALL
USER_CHARGES

@<TRIPOS>ATOM
      1 C1         -0.0184    1.5028    0.0103 C.3       1 <0>        -0.1173
      2 C2          0.0021   -0.0041    0.0020 C.ar      1 <0>        -0.0924
      3 C3          0.0058   -0.6879   -1.2010 C.ar      1 <0>        -0.0947
      4 C4          0.0249   -2.0710   -1.2175 C.ar      1 <0>        -0.1230
      5 C5          0.0401   -2.7779   -0.0326 C.ar      1 <0>        -0.0925
      6 C6          0.0364   -2.0945    1.1841 C.ar      1 <0>        -0.1322
      7 C7          0.0228   -0.6986    1.1936 C.ar      1 <0>        -0.0603
      8 C8          0.0521   -2.8454    2.4576 C.2       1 <0>         0.5689
      9 O1          0.0490   -2.2475    3.5158 O.2       1 <0>        -0.5295
     10 N1          0.0700   -4.1930    2.4450 N.am      1 <0>        -0.7189
     11 C9          0.0855   -4.9372    3.7068 C.3       1 <0>         0.2803
     12 N2         -1.2877   -5.3082    4.0735 N.3       1 <0>        -0.5515
     13 C10        -1.7253   -6.5012    3.3364 C.3       1 <0>         0.0435
     14 C11        -3.2132   -6.7480    3.6077 C.3       1 <0>         0.1497
     15 N3         -3.4195   -6.8055    5.0629 N.pl3     1 <0>        -0.6835
     16 C12        -2.8858   -5.7091    5.8852 C.3       1 <0>         0.1490
     17 C13        -1.4109   -5.5032    5.5242 C.3       1 <0>         0.0499
     18 C14        -4.1012   -7.8679    5.6455 C.ar      1 <0>         0.2214
     19 C15        -3.4080   -8.9954    6.0662 C.ar      1 <0>        -0.1267
     20 C16        -4.0869  -10.0489    6.6443 C.ar      1 <0>        -0.0834
     21 C17        -5.4616   -9.9918    6.8092 C.ar      1 <0>        -0.1238
     22 C18        -6.1665   -8.8816    6.3980 C.ar      1 <0>        -0.0657
     23 C19        -5.4929   -7.8042    5.8167 C.ar      1 <0>        -0.0414
     24 C20        -6.2186   -6.6446    5.3930 C.1       1 <0>         0.2580
     25 N4         -6.7942   -5.7248    5.0568 N.1       1 <0>        -0.4144
     26 H1          1.0042    1.8801    0.0026 H         1 <0>         0.0737
     27 H2         -0.5455    1.8639   -0.8728 H         1 <0>         0.0694
     28 H3         -0.5286    1.8543    0.9071 H         1 <0>         0.0699
     29 H4         -0.0067   -0.1393   -2.1313 H         1 <0>         0.1277
     30 H5          0.0277   -2.5987   -2.1598 H         1 <0>         0.1296
     31 H6          0.0543   -3.8577   -0.0468 H         1 <0>         0.1237
     32 H7          0.0244   -0.1637    2.1318 H         1 <0>         0.1358
     33 H8          0.0725   -4.6702    1.6005 H         1 <0>         0.3981
     34 H9          0.6865   -5.8389    3.5894 H         1 <0>         0.0594
     35 H10         0.5151   -4.3138    4.4910 H         1 <0>         0.1002
     36 H11        -1.5712   -6.3459    2.2686 H         1 <0>         0.0774
     37 H12        -1.1474   -7.3646    3.6659 H         1 <0>         0.0404
     38 H13        -3.8023   -5.9334    3.1863 H         1 <0>         0.0579
     39 H14        -3.5156   -7.6934    3.1574 H         1 <0>         0.0751
     40 H15        -3.4434   -4.7946    5.6828 H         1 <0>         0.0595
     41 H16        -2.9718   -5.9676    6.9406 H         1 <0>         0.0769
     42 H17        -0.8373   -6.3805    5.8233 H         1 <0>         0.0409
     43 H18        -1.0287   -4.6241    6.0431 H         1 <0>         0.0862
     44 H19        -2.3367   -9.0481    5.9407 H         1 <0>         0.1304
     45 H20        -3.5433  -10.9235    6.9699 H         1 <0>         0.1311
     46 H21        -5.9832  -10.8220    7.2621 H         1 <0>         0.1342
     47 H22        -7.2379   -8.8423    6.5289 H         1 <0>         0.1331
@<TRIPOS>BOND
     1    1    2 1
     2    1   26 1
     3    1   27 1
     4    1   28 1
     5    2    7 ar
     6    2    3 ar
     7    3    4 ar
     8    3   29 1
     9    4    5 ar
    10    4   30 1
    11    5    6 ar
    12    5   31 1
    13    6    7 ar
    14    6    8 1
    15    7   32 1
    16    8    9 2
    17    8   10 am
    18   10   11 1
    19   10   33 1
    20   11   12 1
    21   11   34 1
    22   11   35 1
    23   12   17 1
    24   12   13 1
    25   13   14 1
    26   13   36 1
    27   13   37 1
    28   14   15 1
    29   14   38 1
    30   14   39 1
    31   15   16 1
    32   15   18 1
    33   16   17 1
    34   16   40 1
    35   16   41 1
    36   17   42 1
    37   17   43 1
    38   18   23 ar
    39   18   19 ar
    40   19   20 ar
    41   19   44 1
    42   20   21 ar
    43   20   45 1
    44   21   22 ar
    45   21   46 1
    46   22   23 ar
    47   22   47 1
    48   23   24 1
    49   24   25 3
@<TRIPOS>MOLECULE
ZINC00014669
   52    54     0     0     0
SMALL
USER_CHARGES

@<TRIPOS>ATOM
      1 C1         -0.0187    1.5258    0.0104 C.3       1 <0>        -0.1955
      2 C2          0.0021   -0.0041    0.0020 C.3       1 <0>        -0.0083
      3 H1         -1.0205   -0.3814    0.0098 H         1 <0>         0.1468
      4 C3          0.7182   -0.4975   -1.2568 C.3       1 <0>         0.1400
      5 H2          0.8116   -1.5829   -1.2198 H         1 <0>         0.1310
      6 C4         -0.0771   -0.1029   -2.4745 C.ar      1 <0>        -0.1512
      7 C5          0.0941    1.1497   -3.0345 C.ar      1 <0>        -0.0890
      8 C6         -0.6341    1.5140   -4.1505 C.ar      1 <0>        -0.1398
      9 C7         -1.5374    0.6217   -4.7096 C.ar      1 <0>         0.1316
     10 C8         -1.7070   -0.6346   -4.1460 C.ar      1 <0>        -0.1402
     11 C9         -0.9726   -0.9960   -3.0331 C.ar      1 <0>        -0.0838
     12 O1         -2.2553    0.9780   -5.8071 O.3       1 <0>        -0.4970
     13 O2          2.0188    0.0904   -1.3262 O.3       1 <0>        -0.5453
     14 N1          0.7126   -0.4907    1.1921 N.4       1 <0>        -0.3761
     15 C10         0.7394   -1.9582    1.1781 C.3       1 <0>        -0.0130
     16 C11         1.5480   -2.4687    2.3727 C.3       1 <0>        -0.1408
     17 C12         0.8958   -1.9809    3.6696 C.3       1 <0>        -0.0939
     18 C13         0.8055   -0.4524    3.6405 C.3       1 <0>        -0.1446
     19 C14         0.0245   -0.0166    2.3989 C.3       1 <0>        -0.0111
     20 C15         1.7430   -2.4207    4.8653 C.3       1 <0>        -0.0745
     21 C16         1.0387   -2.0476    6.1443 C.ar      1 <0>        -0.0945
     22 C17         1.2668   -0.8138    6.7244 C.ar      1 <0>        -0.1215
     23 C18         0.6208   -0.4716    7.8976 C.ar      1 <0>        -0.1162
     24 C19        -0.2537   -1.3631    8.4905 C.ar      1 <0>        -0.1164
     25 C20        -0.4825   -2.5965    7.9099 C.ar      1 <0>        -0.1138
     26 C21         0.1602   -2.9370    6.7344 C.ar      1 <0>        -0.1161
     27 H3          1.0039    1.9031    0.0027 H         1 <0>         0.0830
     28 H4         -0.5459    1.8868   -0.8726 H         1 <0>         0.1122
     29 H5         -0.5289    1.8773    0.9072 H         1 <0>         0.0916
     30 H6          0.7975    1.8439   -2.5989 H         1 <0>         0.1273
     31 H7         -0.5005    2.4927   -4.5871 H         1 <0>         0.1383
     32 H8         -2.4096   -1.3309   -4.5794 H         1 <0>         0.1385
     33 H9         -1.1011   -1.9755   -2.5967 H         1 <0>         0.1312
     34 H10        -1.8251    0.7616   -6.6457 H         1 <0>         0.4023
     35 H11         2.0123    1.0567   -1.3619 H         1 <0>         0.3863
     36 H12        -0.2795   -2.3404    1.2397 H         1 <0>         0.1288
     37 H13         1.2010   -2.3039    0.2532 H         1 <0>         0.1321
     38 H14         1.5652   -3.5585    2.3616 H         1 <0>         0.1138
     39 H15         2.5673   -2.0873    2.3121 H         1 <0>         0.0906
     40 H16        -0.1053   -2.4035    3.7555 H         1 <0>         0.0907
     41 H17         0.2921   -0.1010    4.5354 H         1 <0>         0.1157
     42 H18         1.8094   -0.0291    3.6061 H         1 <0>         0.0886
     43 H19        -0.0418    1.0711    2.3751 H         1 <0>         0.1320
     44 H20        -0.9792   -0.4402    2.4344 H         1 <0>         0.1280
     45 H21         1.8865   -3.5007    4.8312 H         1 <0>         0.0833
     46 H22         2.7124   -1.9239    4.8261 H         1 <0>         0.0787
     47 H23         1.9500   -0.1173    6.2612 H         1 <0>         0.1195
     48 H24         0.7995    0.4921    8.3512 H         1 <0>         0.1244
     49 H25        -0.7579   -1.0960    9.4075 H         1 <0>         0.1252
     50 H26        -1.1655   -3.2931    8.3733 H         1 <0>         0.1252
     51 H27        -0.0214   -3.8992    6.2788 H         1 <0>         0.1215
     52 H28         1.6582   -0.1389    1.1853 H         1 <0>         0.4240
@<TRIPOS>BOND
     1    1    2 1
     2    1   27 1
     3    1   28 1
     4    1   29 1
     5    2    3 1
     6    2    4 1
     7    2   14 1
     8    4    5 1
     9    4    6 1
    10    4   13 1
    11    6   11 ar
    12    6    7 ar
    13    7    8 ar
    14    7   30 1
    15    8    9 ar
    16    8   31 1
    17    9   10 ar
    18    9   12 1
    19   10   11 ar
    20   10   32 1
    21   11   33 1
    22   12   34 1
    23   13   35 1
    24   14   19 1
    25   14   15 1
    26   14   52 1
    27   15   16 1
    28   15   36 1
    29   15   37 1
    30   16   17 1
    31   16   38 1
    32   16   39 1
    33   17   18 1
    34   17   20 1
    35   17   40 1
    36   18   19 1
    37   18   41 1
    38   18   42 1
    39   19   43 1
    40   19   44 1
    41   20   21 1
    42   20   45 1
    43   20   46 1
    44   21   26 ar
    45   21   22 ar
    46   22   23 ar
    47   22   47 1
    48   23   24 ar
    49   23   48 1
    50   24   25 ar
    51   24   49 1
    52   25   26 ar
    53   25   50 1
    54   26   51 1
@<TRIPOS>MOLECULE
ZINC01999529
   52    55     0     0     0
SMALL
USER_CHARGES

@<TRIPOS>ATOM
      1 C1         -0.0166    1.3718    0.0096 C.ar      1 <0>        -0.0777
      2 C2          1.1605    2.0994    0.0023 C.ar      1 <0>        -0.0864
      3 C3          2.3767    1.4321   -0.0129 C.ar      1 <0>         0.0073
      4 C4          2.3992    0.0662   -0.0204 C.ar      1 <0>        -0.6175
      5 C5          1.2246   -0.6975   -0.0133 C.ar      1 <0>        -0.1240
      6 C6          0.0021   -0.0041    0.0020 C.ar      1 <0>        -0.0321
      7 C7          1.4909   -2.1423   -0.0240 C.2       1 <0>         0.5408
      8 O1          0.5787   -2.9456   -0.0200 O.2       1 <0>        -0.4623
      9 N1          2.7689   -2.5506   -0.0387 N.am      1 <0>        -0.9253
     10 S1          3.6863   -1.1515   -0.0397 S.o2      1 <0>         2.6548
     11 O2          4.3669   -1.0804    1.2056 O.2       1 <0>        -0.9145
     12 O3          4.3426   -1.0663   -1.2972 O.2       1 <0>        -0.9196
     13 C8          3.2582   -3.9315   -0.0505 C.3       1 <0>         0.1395
     14 C9          3.2964   -4.4467   -1.4906 C.3       1 <0>        -0.1474
     15 C10         3.8074   -5.8888   -1.5029 C.3       1 <0>        -0.1473
     16 C11         3.8456   -6.4041   -2.9430 C.3       1 <0>        -0.0102
     17 N2          4.3362   -7.7887   -2.9548 N.4       1 <0>        -0.3846
     18 C12         5.7269   -7.8173   -2.4842 C.3       1 <0>        -0.0271
     19 C13         6.2023   -9.2707   -2.3871 C.3       1 <0>         0.1084
     20 N3          5.9887   -9.9193   -3.6901 N.pl3     1 <0>        -0.6062
     21 C14         4.6622   -9.8000   -4.3147 C.3       1 <0>         0.1079
     22 C15         4.2595   -8.3216   -4.3209 C.3       1 <0>        -0.0203
     23 C16         7.0071  -10.6215   -4.3109 C.ar      1 <0>         0.5561
     24 N4          8.1872  -10.7115   -3.7152 N.ar      1 <0>        -0.5663
     25 C17         9.1814  -11.3755   -4.2811 C.ar      1 <0>         0.1960
     26 C18         8.9767  -11.9805   -5.5112 C.ar      1 <0>        -0.2677
     27 C19         7.7301  -11.8667   -6.1064 C.ar      1 <0>         0.1958
     28 N5          6.7772  -11.1924   -5.4842 N.ar      1 <0>        -0.5665
     29 H1         -0.9633    1.8912    0.0260 H         1 <0>         0.1509
     30 H2          1.1326    3.1791    0.0079 H         1 <0>         0.1535
     31 H3          3.3014    1.9899   -0.0191 H         1 <0>         0.1494
     32 H4         -0.9274   -0.5540    0.0083 H         1 <0>         0.1485
     33 H5          4.2615   -3.9650    0.3742 H         1 <0>         0.1015
     34 H6          2.5917   -4.5582    0.5421 H         1 <0>         0.1059
     35 H7          2.2931   -4.4131   -1.9152 H         1 <0>         0.0892
     36 H8          3.9629   -3.8200   -2.0832 H         1 <0>         0.0898
     37 H9          4.8107   -5.9224   -1.0783 H         1 <0>         0.0933
     38 H10         3.1409   -6.5155   -0.9103 H         1 <0>         0.0955
     39 H11         2.8423   -6.3705   -3.3677 H         1 <0>         0.1353
     40 H12         4.5121   -5.7774   -3.5356 H         1 <0>         0.1327
     41 H13         6.3594   -7.2742   -3.1864 H         1 <0>         0.1335
     42 H14         5.7879   -7.3485   -1.5021 H         1 <0>         0.1458
     43 H15         7.2628   -9.2931   -2.1362 H         1 <0>         0.1405
     44 H16         5.6303   -9.7927   -1.6200 H         1 <0>         0.0917
     45 H17         4.7045  -10.1723   -5.3383 H         1 <0>         0.1405
     46 H18         3.9347  -10.3754   -3.7423 H         1 <0>         0.0917
     47 H19         3.2393   -8.2244   -4.6922 H         1 <0>         0.1446
     48 H20         4.9364   -7.7632   -4.9675 H         1 <0>         0.1326
     49 H21        10.1412  -11.4451   -3.7908 H         1 <0>         0.1760
     50 H22         9.7713  -12.5285   -5.9956 H         1 <0>         0.1542
     51 H23         7.5380  -12.3261   -7.0647 H         1 <0>         0.1759
     52 H24         3.7650   -8.3518   -2.3428 H         1 <0>         0.4236
@<TRIPOS>BOND
     1    1    6 ar
     2    1    2 ar
     3    1   29 1
     4    2    3 ar
     5    2   30 1
     6    3    4 ar
     7    3   31 1
     8    4   10 1
     9    4    5 ar
    10    5    6 ar
    11    5    7 1
    12    6   32 1
    13    7    8 2
    14    7    9 am
    15    9   10 1
    16    9   13 1
    17   10   11 2
    18   10   12 2
    19   13   14 1
    20   13   33 1
    21   13   34 1
    22   14   15 1
    23   14   35 1
    24   14   36 1
    25   15   16 1
    26   15   37 1
    27   15   38 1
    28   16   17 1
    29   16   39 1
    30   16   40 1
    31   17   22 1
    32   17   18 1
    33   17   52 1
    34   18   19 1
    35   18   41 1
    36   18   42 1
    37   19   20 1
    38   19   43 1
    39   19   44 1
    40   20   21 1
    41   20   23 1
    42   21   22 1
    43   21   45 1
    44   21   46 1
    45   22   47 1
    46   22   48 1
    47   23   28 ar
    48   23   24 ar
    49   24   25 ar
    50   25   26 ar
    51   25   49 1
    52   26   27 ar
    53   26   50 1
    54   27   28 ar
    55   27   51 1
@<TRIPOS>MOLECULE
ZINC01999529
   51    54     0     0     0
SMALL
USER_CHARGES

@<TRIPOS>ATOM
      1 C1         -0.0166    1.3718    0.0096 C.ar      1 <0>        -0.0797
      2 C2          1.1605    2.0994    0.0023 C.ar      1 <0>        -0.0925
      3 C3          2.3767    1.4321   -0.0129 C.ar      1 <0>         0.0055
      4 C4          2.3992    0.0662   -0.0204 C.ar      1 <0>        -0.6181
      5 C5          1.2246   -0.6975   -0.0133 C.ar      1 <0>        -0.1153
      6 C6          0.0021   -0.0041    0.0020 C.ar      1 <0>        -0.0365
      7 C7          1.4909   -2.1423   -0.0240 C.2       1 <0>         0.5361
      8 O1          0.5787   -2.9456   -0.0200 O.2       1 <0>        -0.4603
      9 N1          2.7689   -2.5506   -0.0387 N.am      1 <0>        -0.9199
     10 S1          3.6863   -1.1515   -0.0397 S.o2      1 <0>         2.6544
     11 O2          4.3669   -1.0804    1.2056 O.2       1 <0>        -0.9194
     12 O3          4.3426   -1.0663   -1.2972 O.2       1 <0>        -0.9182
     13 C8          3.2582   -3.9315   -0.0505 C.3       1 <0>         0.1391
     14 C9          3.2964   -4.4467   -1.4906 C.3       1 <0>        -0.1462
     15 C10         3.8074   -5.8888   -1.5029 C.3       1 <0>        -0.1140
     16 C11         3.8456   -6.4041   -2.9430 C.3       1 <0>         0.0557
     17 N2          4.3362   -7.7887   -2.9548 N.3       1 <0>        -0.5381
     18 C12         5.7363   -7.8548   -2.5151 C.3       1 <0>         0.0366
     19 C13         6.1531   -9.3220   -2.3677 C.3       1 <0>         0.1319
     20 N3          5.8642  -10.0190   -3.6302 N.pl3     1 <0>        -0.5851
     21 C14         4.5174   -9.8860   -4.2060 C.3       1 <0>         0.1323
     22 C15         4.1649   -8.3966   -4.2811 C.3       1 <0>         0.0413
     23 C16         6.8339  -10.7801   -4.2595 C.ar      1 <0>         0.5658
     24 N4          8.0345  -10.8821   -3.7086 N.ar      1 <0>        -0.5729
     25 C17         8.9835  -11.6019   -4.2839 C.ar      1 <0>         0.1940
     26 C18         8.7091  -12.2531   -5.4763 C.ar      1 <0>        -0.2967
     27 C19         7.4428  -12.1251   -6.0250 C.ar      1 <0>         0.1939
     28 N5          6.5378  -11.3939   -5.3958 N.ar      1 <0>        -0.5731
     29 H1         -0.9633    1.8912    0.0260 H         1 <0>         0.1479
     30 H2          1.1326    3.1791    0.0079 H         1 <0>         0.1502
     31 H3          3.3014    1.9899   -0.0191 H         1 <0>         0.1474
     32 H4         -0.9274   -0.5540    0.0083 H         1 <0>         0.1478
     33 H5          4.2615   -3.9650    0.3742 H         1 <0>         0.0985
     34 H6          2.5917   -4.5582    0.5421 H         1 <0>         0.1041
     35 H7          2.2931   -4.4131   -1.9152 H         1 <0>         0.0780
     36 H8          3.9629   -3.8200   -2.0832 H         1 <0>         0.0764
     37 H9          4.8107   -5.9224   -1.0783 H         1 <0>         0.0686
     38 H10         3.1409   -6.5155   -0.9103 H         1 <0>         0.0799
     39 H11         2.8423   -6.3705   -3.3677 H         1 <0>         0.0786
     40 H12         4.5121   -5.7774   -3.5356 H         1 <0>         0.0367
     41 H13         6.3730   -7.3683   -3.2541 H         1 <0>         0.0381
     42 H14         5.8404   -7.3489   -1.5553 H         1 <0>         0.0926
     43 H15         7.2203   -9.3798   -2.1535 H         1 <0>         0.1013
     44 H16         5.5887   -9.7834   -1.5573 H         1 <0>         0.0736
     45 H17         4.5031  -10.3166   -5.2073 H         1 <0>         0.1015
     46 H18         3.7957  -10.4015   -3.5724 H         1 <0>         0.0737
     47 H19         3.1294   -8.2836   -4.6020 H         1 <0>         0.0896
     48 H20         4.8235   -7.9025   -4.9955 H         1 <0>         0.0380
     49 H21         9.9604  -11.6810   -3.8302 H         1 <0>         0.1667
     50 H22         9.4658  -12.8471   -5.9673 H         1 <0>         0.1437
     51 H23         7.1969  -12.6195   -6.9532 H         1 <0>         0.1666
@<TRIPOS>BOND
     1    1    6 ar
     2    1    2 ar
     3    1   29 1
     4    2    3 ar
     5    2   30 1
     6    3    4 ar
     7    3   31 1
     8    4   10 1
     9    4    5 ar
    10    5    6 ar
    11    5    7 1
    12    6   32 1
    13    7    8 2
    14    7    9 am
    15    9   10 1
    16    9   13 1
    17   10   11 2
    18   10   12 2
    19   13   14 1
    20   13   33 1
    21   13   34 1
    22   14   15 1
    23   14   35 1
    24   14   36 1
    25   15   16 1
    26   15   37 1
    27   15   38 1
    28   16   17 1
    29   16   39 1
    30   16   40 1
    31   17   22 1
    32   17   18 1
    33   18   19 1
    34   18   41 1
    35   18   42 1
    36   19   20 1
    37   19   43 1
    38   19   44 1
    39   20   21 1
    40   20   23 1
    41   21   22 1
    42   21   45 1
    43   21   46 1
    44   22   47 1
    45   22   48 1
    46   23   28 ar
    47   23   24 ar
    48   24   25 ar
    49   25   26 ar
    50   25   49 1
    51   26   27 ar
    52   26   50 1
    53   27   28 ar
    54   27   51 1
@<TRIPOS>MOLECULE
ZINC00538312
   58    62     0     0     0
SMALL
USER_CHARGES

@<TRIPOS>ATOM
      1 C1         -0.0184    1.5028    0.0103 C.3       1 <0>        -0.1195
      2 C2          0.0021   -0.0041    0.0020 C.2       1 <0>         0.2267
      3 C3         -1.1658   -0.7051    0.0037 C.2       1 <0>        -0.3134
      4 C4         -1.0976   -2.1102    0.0026 C.2       1 <0>         0.5229
      5 O1         -2.1195   -2.7763   -0.0037 O.2       1 <0>        -0.5388
      6 N1          0.1170   -2.7181    0.0083 N.am      1 <0>        -0.5055
      7 C5          1.2324   -1.9722   -0.0125 C.2       1 <0>         0.4317
      8 N2          1.1610   -0.6576   -0.0126 N.2       1 <0>        -0.5532
      9 C6          2.6152   -2.5746   -0.0542 C.3       1 <0>        -0.0794
     10 C7          2.5757   -4.0399    0.3747 C.3       1 <0>        -0.1325
     11 C8          1.4654   -4.7382   -0.4208 C.3       1 <0>        -0.1400
     12 C9          0.1227   -4.1811    0.0440 C.3       1 <0>         0.0852
     13 C10        -2.4949    0.0052    0.0071 C.3       1 <0>        -0.0659
     14 C11        -3.0069    0.1361   -1.4287 C.3       1 <0>        -0.0060
     15 N3         -4.3025    0.8286   -1.4254 N.4       1 <0>        -0.3843
     16 C12        -5.2942    0.0044   -0.7242 C.3       1 <0>        -0.0080
     17 C13        -6.6248    0.7562   -0.6469 C.3       1 <0>        -0.1417
     18 C14        -7.1187    1.0558   -2.0652 C.3       1 <0>        -0.0246
     19 C15        -6.0446    1.8523   -2.8116 C.3       1 <0>        -0.1421
     20 C16        -4.7355    1.0599   -2.8086 C.3       1 <0>        -0.0031
     21 C17        -8.3887    1.8641   -1.9963 C.2       1 <0>         0.1325
     22 C18        -9.6953    1.4738   -2.5327 C.ar      1 <0>        -0.2134
     23 C19       -10.1611    0.3470   -3.2152 C.ar      1 <0>        -0.0098
     24 C20       -11.4711    0.2760   -3.5942 C.ar      1 <0>        -0.1750
     25 C21       -12.3461    1.3174   -3.3066 C.ar      1 <0>         0.1749
     26 C22       -11.9048    2.4388   -2.6332 C.ar      1 <0>        -0.1638
     27 C23       -10.5757    2.5285   -2.2393 C.ar      1 <0>         0.1187
     28 O2         -9.8642    3.4688   -1.5855 O.3       1 <0>        -0.0749
     29 N4         -8.5274    3.0311   -1.4462 N.2       1 <0>        -0.2751
     30 F1        -13.6388    1.2314   -3.6896 F         1 <0>        -0.1154
     31 H1          1.0042    1.8801    0.0026 H         1 <0>         0.0924
     32 H2         -0.5455    1.8639   -0.8728 H         1 <0>         0.0828
     33 H3         -0.5286    1.8543    0.9071 H         1 <0>         0.0913
     34 H4          3.0059   -2.5077   -1.0696 H         1 <0>         0.1148
     35 H5          3.2691   -2.0204    0.6191 H         1 <0>         0.1189
     36 H6          3.5346   -4.5121    0.1611 H         1 <0>         0.0978
     37 H7          2.3615   -4.1056    1.4415 H         1 <0>         0.0782
     38 H8          1.5965   -4.5420   -1.4849 H         1 <0>         0.0801
     39 H9          1.5014   -5.8120   -0.2372 H         1 <0>         0.1025
     40 H10        -0.0688   -4.5145    1.0639 H         1 <0>         0.0935
     41 H11        -0.6654   -4.5576   -0.6081 H         1 <0>         0.1043
     42 H12        -3.2109   -0.5666    0.5975 H         1 <0>         0.0984
     43 H13        -2.3754    0.9974    0.4422 H         1 <0>         0.0964
     44 H14        -2.2909    0.7079   -2.0190 H         1 <0>         0.1297
     45 H15        -3.1264   -0.8561   -1.8638 H         1 <0>         0.1316
     46 H16        -5.4368   -0.9309   -1.2655 H         1 <0>         0.1347
     47 H17        -4.9399   -0.2107    0.2839 H         1 <0>         0.1394
     48 H18        -7.3603    0.1418   -0.1276 H         1 <0>         0.1195
     49 H19        -6.4834    1.6916   -0.1055 H         1 <0>         0.0988
     50 H20        -7.3090    0.1197   -2.5902 H         1 <0>         0.1177
     51 H21        -6.3653    2.0214   -3.8395 H         1 <0>         0.1196
     52 H22        -5.8912    2.8104   -2.3151 H         1 <0>         0.0992
     53 H23        -3.9686    1.6240   -3.3394 H         1 <0>         0.1371
     54 H24        -4.8899    0.1021   -3.3055 H         1 <0>         0.1330
     55 H25        -9.4868   -0.4654   -3.4426 H         1 <0>         0.1453
     56 H26       -11.8300   -0.5955   -4.1217 H         1 <0>         0.1542
     57 H27       -12.5906    3.2435   -2.4131 H         1 <0>         0.1583
     58 H28        -4.2082    1.7141   -0.9510 H         1 <0>         0.4233
@<TRIPOS>BOND
     1    1    2 1
     2    1   31 1
     3    1   32 1
     4    1   33 1
     5    2    8 1
     6    2    3 2
     7    3    4 1
     8    3   13 1
     9    4    5 2
    10    4    6 am
    11    6   12 1
    12    6    7 1
    13    7    8 2
    14    7    9 1
    15    9   10 1
    16    9   34 1
    17    9   35 1
    18   10   11 1
    19   10   36 1
    20   10   37 1
    21   11   12 1
    22   11   38 1
    23   11   39 1
    24   12   40 1
    25   12   41 1
    26   13   14 1
    27   13   42 1
    28   13   43 1
    29   14   15 1
    30   14   44 1
    31   14   45 1
    32   15   20 1
    33   15   16 1
    34   15   58 1
    35   16   17 1
    36   16   46 1
    37   16   47 1
    38   17   18 1
    39   17   48 1
    40   17   49 1
    41   18   19 1
    42   18   21 1
    43   18   50 1
    44   19   20 1
    45   19   51 1
    46   19   52 1
    47   20   53 1
    48   20   54 1
    49   21   29 2
    50   21   22 1
    51   22   27 ar
    52   22   23 ar
    53   23   24 ar
    54   23   55 1
    55   24   25 ar
    56   24   56 1
    57   25   26 ar
    58   25   30 1
    59   26   27 ar
    60   26   57 1
    61   27   28 1
    62   28   29 1
