@<TRIPOS>MOLECULE
ZINC13757086
   31    33     0     0     0
SMALL
USER_CHARGES
2-(2,3,6,7-tetrahydrofuro[2,3-f]benzofuran-8-yl)ethanamine
@<TRIPOS>ATOM
      1 C1          0.0333   -2.7713   -0.0254 C.ar      1 <0>        -0.0764
      2 C2          0.0437   -2.0922    1.1716 C.ar      1 <0>        -0.1283
      3 C3          0.0230   -0.7042    1.2060 C.ar      1 <0>         0.0859
      4 C4          0.0021   -0.0041    0.0020 C.ar      1 <0>        -0.0749
      5 C5         -0.0057   -0.6828   -1.1946 C.ar      1 <0>        -0.1392
      6 C6          0.0093   -2.0713   -1.2289 C.ar      1 <0>         0.0922
      7 O1         -0.0143   -2.5341   -2.5096 O.3       1 <0>        -0.2952
      8 C7          0.4078   -1.4858   -3.3985 C.3       1 <0>         0.0504
      9 C8          0.0006   -0.2041   -2.6342 C.3       1 <0>        -0.1072
     10 C9         -0.0184    1.5028    0.0103 C.3       1 <0>        -0.0987
     11 C10         1.4170    2.0324   -0.0006 C.3       1 <0>        -0.0010
     12 O2          0.0194   -0.2413    2.4869 O.3       1 <0>        -0.3046
     13 C11         0.4777   -1.2815    3.3672 C.3       1 <0>         0.0532
     14 C12         0.0791   -2.5707    2.6108 C.3       1 <0>        -0.1149
     15 H1          0.0443   -3.8512   -0.0313 H         1 <0>         0.1399
     16 H2          1.4868   -1.5189   -3.5498 H         1 <0>         0.0819
     17 H3         -0.1188   -1.5515   -4.3506 H         1 <0>         0.1144
     18 H4          0.7356    0.5872   -2.7814 H         1 <0>         0.0889
     19 H5         -0.9929    0.1292   -2.9343 H         1 <0>         0.0984
     20 H6         -0.5455    1.8639   -0.8728 H         1 <0>         0.0962
     21 H7         -0.5286    1.8543    0.9071 H         1 <0>         0.1001
     22 H8          1.9442    1.6713    0.8825 H         1 <0>         0.1334
     23 H9          1.9272    1.6808   -0.8974 H         1 <0>         0.1343
     24 H10         2.3341    3.8756    0.0006 H         1 <0>         0.4408
     25 H11         0.8587    3.8598   -0.7668 H         1 <0>         0.4367
     26 H12         1.5586   -1.2287    3.4974 H         1 <0>         0.0819
     27 H13        -0.0314   -1.2252    4.3294 H         1 <0>         0.1146
     28 H14         0.8308   -3.3487    2.7442 H         1 <0>         0.1014
     29 H15        -0.9025   -2.9214    2.9294 H         1 <0>         0.1013
     30 N1          1.3855    3.5053    0.0297 N.4       1 <0>        -0.6463
     31 H16         0.9313    3.8154    0.8967 H         1 <0>         0.4409
@<TRIPOS>BOND
     1    1    6 ar
     2    1    2 ar
     3    1   15 1
     4    2   14 1
     5    2    3 ar
     6    3    4 ar
     7    3   12 1
     8    4    5 ar
     9    4   10 1
    10    5    9 1
    11    5    6 ar
    12    6    7 1
    13    7    8 1
    14    8    9 1
    15    8   16 1
    16    8   17 1
    17    9   18 1
    18    9   19 1
    19   10   11 1
    20   10   20 1
    21   10   21 1
    22   11   22 1
    23   11   23 1
    24   11   30 1
    25   12   13 1
    26   13   14 1
    27   13   26 1
    28   13   27 1
    29   14   28 1
    30   14   29 1
    31   24   30 1
    32   25   30 1
    33   30   31 1
@<TRIPOS>MOLECULE
ZINC52956332
   66    69     0     0     0
SMALL
USER_CHARGES

@<TRIPOS>ATOM
      1 C1         -0.2570   -0.0396   -0.2249 C.3       1 <0>        -0.1481
      2 C2         -0.4777   -1.5512   -0.1410 C.3       1 <0>         0.0719
      3 C3          0.2510   -2.1058    1.0847 C.3       1 <0>        -0.1743
      4 O1         -1.8760   -1.8229   -0.0272 O.3       1 <0>        -0.2968
      5 C4         -2.3308   -2.9699   -0.5993 C.ar      1 <0>         0.1238
      6 C5         -1.4369   -3.8709   -1.1538 C.ar      1 <0>        -0.2108
      7 C6         -1.9007   -5.0365   -1.7356 C.ar      1 <0>        -0.0833
      8 C7         -3.2562   -5.3067   -1.7656 C.ar      1 <0>        -0.1528
      9 C8         -4.1549   -4.4130   -1.2140 C.ar      1 <0>        -0.0865
     10 C9         -3.6965   -3.2442   -0.6239 C.ar      1 <0>         0.1375
     11 N1         -4.6040   -2.3403   -0.0596 N.pl3     1 <0>        -0.6674
     12 C10        -5.1972   -1.2631   -0.8665 C.3       1 <0>         0.1547
     13 C11        -5.0050    0.0635   -0.1240 C.3       1 <0>         0.0426
     14 N2         -5.5408   -0.0593    1.2382 N.3       1 <0>        -0.5278
     15 C12        -4.8056   -1.0693    2.0110 C.3       1 <0>         0.0391
     16 C13        -4.9943   -2.4462    1.3545 C.3       1 <0>         0.1554
     17 C14        -5.5326    1.2387    1.9262 C.3       1 <0>         0.0947
     18 C15        -6.3064    1.1292    3.2147 C.ar      1 <0>        -0.0813
     19 C16        -7.6662    1.3854    3.2273 C.ar      1 <0>        -0.0744
     20 C17        -8.3840    1.2867    4.4058 C.ar      1 <0>        -0.1211
     21 C18        -7.7471    0.9321    5.5774 C.ar      1 <0>        -0.0675
     22 C19        -6.3760    0.6723    5.5716 C.ar      1 <0>        -0.1273
     23 C20        -5.6587    0.7682    4.3778 C.ar      1 <0>        -0.0879
     24 C21        -5.6870    0.2923    6.8233 C.2       1 <0>         0.5617
     25 O2         -6.1780   -0.5424    7.5580 O.2       1 <0>        -0.5326
     26 N3         -4.5146    0.8713    7.1497 N.am      1 <0>        -0.6059
     27 C22        -3.8640    1.8148    6.2303 C.3       1 <0>         0.0916
     28 C23        -3.5771    3.1180    6.9827 C.3       1 <0>        -0.1360
     29 C24        -2.7654    2.8071    8.2423 C.3       1 <0>        -0.1214
     30 C25        -3.5758    1.8882    9.1594 C.3       1 <0>        -0.1356
     31 C26        -3.8657    0.5757    8.4343 C.3       1 <0>         0.1105
     32 H1          0.8096    0.1676   -0.3117 H         1 <0>         0.0754
     33 H2         -0.7761    0.3555   -1.0981 H         1 <0>         0.0627
     34 H3         -0.6472    0.4351    0.6754 H         1 <0>         0.0636
     35 H4         -0.0875   -2.0259   -1.0413 H         1 <0>         0.0742
     36 H5         -0.1393   -1.6311    1.9850 H         1 <0>         0.0650
     37 H6          0.0937   -3.1828    1.1445 H         1 <0>         0.0608
     38 H7          1.3176   -1.8986    0.9979 H         1 <0>         0.0710
     39 H8         -0.3773   -3.6629   -1.1321 H         1 <0>         0.1279
     40 H9         -1.2021   -5.7375   -2.1681 H         1 <0>         0.1235
     41 H10        -3.6139   -6.2182   -2.2214 H         1 <0>         0.1239
     42 H11        -5.2133   -4.6264   -1.2391 H         1 <0>         0.1282
     43 H12        -4.7006   -1.2157   -1.8356 H         1 <0>         0.0685
     44 H13        -6.2613   -1.4538   -1.0061 H         1 <0>         0.0563
     45 H14        -3.9427    0.3033   -0.0768 H         1 <0>         0.0406
     46 H15        -5.5341    0.8563   -0.6529 H         1 <0>         0.0772
     47 H16        -3.7461   -0.8138    2.0285 H         1 <0>         0.0394
     48 H17        -5.1901   -1.0982    3.0305 H         1 <0>         0.0783
     49 H18        -6.0393   -2.7483    1.4243 H         1 <0>         0.0563
     50 H19        -4.3636   -3.1812    1.8544 H         1 <0>         0.0674
     51 H20        -4.5044    1.5283    2.1433 H         1 <0>         0.0422
     52 H21        -5.9950    1.9913    1.2875 H         1 <0>         0.0858
     53 H22        -8.1693    1.6640    2.3132 H         1 <0>         0.1285
     54 H23        -9.4450    1.4880    4.4089 H         1 <0>         0.1309
     55 H24        -8.3085    0.8561    6.4969 H         1 <0>         0.1292
     56 H25        -4.5982    0.5642    4.3658 H         1 <0>         0.1264
     57 H26        -2.9283    1.3874    5.8698 H         1 <0>         0.0700
     58 H27        -4.5244    2.0175    5.3871 H         1 <0>         0.0990
     59 H28        -3.0089    3.7912    6.3407 H         1 <0>         0.0765
     60 H29        -4.5182    3.5906    7.2637 H         1 <0>         0.0681
     61 H30        -1.8355    2.3122    7.9621 H         1 <0>         0.0648
     62 H31        -2.5388    3.7354    8.7666 H         1 <0>         0.0672
     63 H32        -3.0066    1.6860   10.0668 H         1 <0>         0.0777
     64 H33        -4.5169    2.3723    9.4200 H         1 <0>         0.0669
     65 H34        -4.5272   -0.0389    9.0449 H         1 <0>         0.0936
     66 H35        -2.9302    0.0450    8.2576 H         1 <0>         0.0683
@<TRIPOS>BOND
     1    1    2 1
     2    1   32 1
     3    1   33 1
     4    1   34 1
     5    2    3 1
     6    2    4 1
     7    2   35 1
     8    3   36 1
     9    3   37 1
    10    3   38 1
    11    4    5 1
    12    5   10 ar
    13    5    6 ar
    14    6    7 ar
    15    6   39 1
    16    7    8 ar
    17    7   40 1
    18    8    9 ar
    19    8   41 1
    20    9   10 ar
    21    9   42 1
    22   10   11 1
    23   11   16 1
    24   11   12 1
    25   12   13 1
    26   12   43 1
    27   12   44 1
    28   13   14 1
    29   13   45 1
    30   13   46 1
    31   14   15 1
    32   14   17 1
    33   15   16 1
    34   15   47 1
    35   15   48 1
    36   16   49 1
    37   16   50 1
    38   17   18 1
    39   17   51 1
    40   17   52 1
    41   18   23 ar
    42   18   19 ar
    43   19   20 ar
    44   19   53 1
    45   20   21 ar
    46   20   54 1
    47   21   22 ar
    48   21   55 1
    49   22   23 ar
    50   22   24 1
    51   23   56 1
    52   24   25 2
    53   24   26 am
    54   26   31 1
    55   26   27 1
    56   27   28 1
    57   27   57 1
    58   27   58 1
    59   28   29 1
    60   28   59 1
    61   28   60 1
    62   29   30 1
    63   29   61 1
    64   29   62 1
    65   30   31 1
    66   30   63 1
    67   30   64 1
    68   31   65 1
    69   31   66 1
@<TRIPOS>MOLECULE
ZINC13757083
   34    36     0     0     0
SMALL
USER_CHARGES
(2R)-1-(8-bromo-2,3,6,7-tetrahydrofuro[2,3-f]benzofuran-4-yl)propan-2-amine
@<TRIPOS>ATOM
      1 C1          6.1686    2.5690   -0.1669 C.3       1 <0>        -0.1807
      2 C2          5.2106    1.3769   -0.1209 C.3       1 <0>         0.0370
      3 H1          4.5427    1.4141   -0.9816 H         1 <0>         0.1392
      4 C3          4.3865    1.4342    1.1669 C.3       1 <0>        -0.0985
      5 C4          3.3592    0.3317    1.1554 C.ar      1 <0>        -0.0767
      6 C5          2.1127    0.5620    0.6190 C.ar      1 <0>        -0.1294
      7 C6          1.1515   -0.4393    0.5890 C.ar      1 <0>         0.1298
      8 C7          1.4637   -1.6850    1.1307 C.ar      1 <0>        -0.0636
      9 C8          2.7084   -1.9132    1.6721 C.ar      1 <0>        -0.0957
     10 C9          3.6749   -0.9157    1.6876 C.ar      1 <0>         0.0558
     11 O1          4.8332   -1.3585    2.2507 O.3       1 <0>        -0.3166
     12 C10         4.5593   -2.5317    3.0353 C.3       1 <0>         0.0582
     13 C11         3.3223   -3.1351    2.3290 C.3       1 <0>        -0.1182
     14 Br1         0.1723   -3.0663    1.1222 Br        1 <0>        -0.0086
     15 O2          0.0021   -0.0041    0.0020 O.3       1 <0>        -0.2811
     16 C12        -0.0174    1.4336    0.0099 C.3       1 <0>         0.0478
     17 C13         1.4864    1.7961   -0.0025 C.3       1 <0>        -0.1102
     18 H2          6.8364    2.5318    0.6938 H         1 <0>         0.0842
     19 H3          6.7556    2.5281   -1.0844 H         1 <0>         0.0851
     20 H4          5.5961    3.4962   -0.1428 H         1 <0>         0.1078
     21 H5          3.8835    2.3989    1.2337 H         1 <0>         0.1229
     22 H6          5.0455    1.3079    2.0259 H         1 <0>         0.1055
     23 H7          4.3228   -2.2615    4.0645 H         1 <0>         0.0894
     24 H8          5.4001   -3.2246    3.0004 H         1 <0>         0.1207
     25 H9          2.6360   -3.5741    3.0531 H         1 <0>         0.1091
     26 H10         3.6207   -3.8704    1.5818 H         1 <0>         0.1073
     27 H11        -0.5147    1.8180   -0.8806 H         1 <0>         0.1209
     28 H12        -0.4976    1.8083    0.9139 H         1 <0>         0.0893
     29 H13         1.8432    1.9426   -1.0220 H         1 <0>         0.1008
     30 H14         1.6790    2.6793    0.6066 H         1 <0>         0.1039
     31 H15         6.4850    0.0352   -1.0232 H         1 <0>         0.4368
     32 H16         6.6092    0.0688    0.6349 H         1 <0>         0.4371
     33 N1          5.9631    0.1104   -0.1516 N.4       1 <0>        -0.6452
     34 H17         5.3050   -0.6750   -0.0864 H         1 <0>         0.4360
@<TRIPOS>BOND
     1    1    2 1
     2    1   18 1
     3    1   19 1
     4    1   20 1
     5    2    3 1
     6    2    4 1
     7    2   33 1
     8    4    5 1
     9    4   21 1
    10    4   22 1
    11    5   10 ar
    12    5    6 ar
    13    6   17 1
    14    6    7 ar
    15    7    8 ar
    16    7   15 1
    17    8    9 ar
    18    8   14 1
    19    9   13 1
    20    9   10 ar
    21   10   11 1
    22   11   12 1
    23   12   13 1
    24   12   23 1
    25   12   24 1
    26   13   25 1
    27   13   26 1
    28   15   16 1
    29   16   17 1
    30   16   27 1
    31   16   28 1
    32   17   29 1
    33   17   30 1
    34   31   33 1
    35   32   33 1
    36   33   34 1
@<TRIPOS>MOLECULE
ZINC13757085
   34    36     0     0     0
SMALL
USER_CHARGES
(2S)-1-(8-bromo-2,3,6,7-tetrahydrofuro[2,3-f]benzofuran-4-yl)propan-2-amine
@<TRIPOS>ATOM
      1 C1          5.4869    3.1157   -1.4447 C.3       1 <0>        -0.1809
      2 C2          4.1111    2.4464   -1.4423 C.3       1 <0>         0.0372
      3 H1          4.1661    1.5007   -1.9815 H         1 <0>         0.1390
      4 C3          3.6731    2.1861    0.0004 C.3       1 <0>        -0.0981
      5 C4          2.3767    1.4177    0.0010 C.ar      1 <0>        -0.0766
      6 C5          2.3958    0.0414    0.0008 C.ar      1 <0>        -0.1299
      7 C6          1.2156   -0.6896   -0.0040 C.ar      1 <0>         0.1299
      8 C7          0.0021   -0.0041    0.0020 C.ar      1 <0>        -0.0638
      9 C8         -0.0166    1.3722    0.0096 C.ar      1 <0>        -0.0957
     10 C9          1.1646    2.1030    0.0022 C.ar      1 <0>         0.0567
     11 O1          0.9168    3.4421   -0.0128 O.3       1 <0>        -0.3167
     12 C10        -0.4290    3.6781    0.4350 C.3       1 <0>         0.0582
     13 C11        -1.1566    2.3728    0.0355 C.3       1 <0>        -0.1181
     14 Br1        -1.6246   -0.9683   -0.0008 Br        1 <0>        -0.0088
     15 O2          1.4632   -2.0289   -0.0218 O.3       1 <0>        -0.2812
     16 C12         2.8138   -2.2661    0.4104 C.3       1 <0>         0.0479
     17 C13         3.5365   -0.9588    0.0081 C.3       1 <0>        -0.1101
     18 H2          5.7989    3.3011   -2.4725 H         1 <0>         0.0850
     19 H3          5.4319    4.0614   -0.9055 H         1 <0>         0.0841
     20 H4          6.2101    2.4614   -0.9579 H         1 <0>         0.1078
     21 H5          3.5322    3.1368    0.5145 H         1 <0>         0.1054
     22 H6          4.4398    1.6056    0.5137 H         1 <0>         0.1228
     23 H7         -0.4570    3.8208    1.5153 H         1 <0>         0.0892
     24 H8         -0.8627    4.5352   -0.0802 H         1 <0>         0.1206
     25 H9         -1.6138    2.4677   -0.9494 H         1 <0>         0.1072
     26 H10        -1.8999    2.0968    0.7834 H         1 <0>         0.1089
     27 H11         2.8536   -2.4130    1.4897 H         1 <0>         0.0893
     28 H12         3.2422   -3.1209   -0.1129 H         1 <0>         0.1208
     29 H13         4.2887   -0.6861    0.7483 H         1 <0>         0.1038
     30 H14         3.9823   -1.0492   -0.9824 H         1 <0>         0.1008
     31 H15         3.0194    4.1864   -1.5807 H         1 <0>         0.4373
     32 H16         3.4034    3.5153   -3.0532 H         1 <0>         0.4367
     33 N1          3.1158    3.3135   -2.0970 N.4       1 <0>        -0.6450
     34 H17         2.2087    2.8327   -2.1144 H         1 <0>         0.4363
@<TRIPOS>BOND
     1    1    2 1
     2    1   18 1
     3    1   19 1
     4    1   20 1
     5    2    3 1
     6    2    4 1
     7    2   33 1
     8    4    5 1
     9    4   21 1
    10    4   22 1
    11    5   10 ar
    12    5    6 ar
    13    6   17 1
    14    6    7 ar
    15    7    8 ar
    16    7   15 1
    17    8    9 ar
    18    8   14 1
    19    9   13 1
    20    9   10 ar
    21   10   11 1
    22   11   12 1
    23   12   13 1
    24   12   23 1
    25   12   24 1
    26   13   25 1
    27   13   26 1
    28   15   16 1
    29   16   17 1
    30   16   27 1
    31   16   28 1
    32   17   29 1
    33   17   30 1
    34   31   33 1
    35   32   33 1
    36   33   34 1
@<TRIPOS>MOLECULE
ZINC26748290
   37    39     0     0     0
SMALL
USER_CHARGES
3-(1-methyl-5,6-dihydro-2H-pyridin-3-yl)-1H-indole-5-carboxamide
@<TRIPOS>ATOM
      1 C1         -7.4660   -2.2699    2.2658 C.3       1 <0>        -0.0466
      2 N1         -7.0108   -1.6355    1.0215 N.4       1 <0>        -0.4014
      3 C2         -6.2518   -2.5857    0.1919 C.3       1 <0>        -0.0050
      4 C3         -6.0828   -1.9844   -1.2056 C.3       1 <0>        -0.1213
      5 C4         -5.5788   -0.5726   -1.0923 C.2       1 <0>        -0.1218
      6 C5         -5.6348    0.1138    0.0297 C.2       1 <0>        -0.0768
      7 C6         -6.1931   -0.4475    1.3058 C.3       1 <0>         0.0447
      8 C7         -5.1196    1.4969    0.0351 C.2       1 <0>        -0.1679
      9 C8         -5.8560    2.6373    0.0453 C.2       1 <0>         0.0811
     10 N2         -5.0272    3.7216    0.0474 N.pl3     1 <0>        -0.5937
     11 H1         -5.4500    4.7371    0.0553 H         1 <0>         0.4543
     12 C9         -3.7127    3.3178    0.0386 C.ar      1 <0>         0.1276
     13 C10        -3.7053    1.9103    0.0305 C.ar      1 <0>        -0.1034
     14 C11        -2.4995    1.2197    0.0205 C.ar      1 <0>        -0.0104
     15 C12        -1.3029    1.9324    0.0187 C.ar      1 <0>        -0.1562
     16 C13        -1.3219    3.3335    0.0323 C.ar      1 <0>        -0.0661
     17 C14        -2.5045    4.0125    0.0367 C.ar      1 <0>        -0.1277
     18 C15        -0.0144    1.2116    0.0087 C.2       1 <0>         0.5656
     19 O1          0.0021   -0.0041    0.0020 O.2       1 <0>        -0.5541
     20 N3          1.1435    1.9013    0.0014 N.am      1 <0>        -0.8723
     21 H2         -8.0743   -3.1543    2.0252 H         1 <0>         0.1262
     22 H3         -8.0710   -1.5544    2.8421 H         1 <0>         0.1250
     23 H4         -6.5936   -2.5760    2.8617 H         1 <0>         0.1196
     24 H5         -5.2656   -2.7624    0.6460 H         1 <0>         0.1294
     25 H6         -6.8014   -3.5364    0.1273 H         1 <0>         0.1357
     26 H7         -5.3603   -2.5846   -1.7781 H         1 <0>         0.1251
     27 H8         -7.0526   -1.9848   -1.7247 H         1 <0>         0.1071
     28 H9         -5.1501   -0.1151   -1.9961 H         1 <0>         0.1407
     29 H10        -6.8148    0.3172    1.7944 H         1 <0>         0.1379
     30 H11        -5.3624   -0.7248    1.9715 H         1 <0>         0.1358
     31 H12        -6.9351    2.6800    0.0503 H         1 <0>         0.1751
     32 H13        -2.4903    0.1397    0.0139 H         1 <0>         0.1332
     33 H14        -0.3909    3.8810    0.0350 H         1 <0>         0.1335
     34 H15        -2.5048    5.0925    0.0429 H         1 <0>         0.1318
     35 H16         2.1035    1.3643   -0.0060 H         1 <0>         0.4302
     36 H17         1.1285    3.0012    0.0029 H         1 <0>         0.4192
     37 H18        -7.9049   -1.3193    0.4642 H         1 <0>         0.4461
@<TRIPOS>BOND
     1    1    2 1
     2    1   21 1
     3    1   22 1
     4    1   23 1
     5    2    7 1
     6    2    3 1
     7    2   37 1
     8    3    4 1
     9    3   24 1
    10    3   25 1
    11    4    5 1
    12    4   26 1
    13    4   27 1
    14    5    6 2
    15    5   28 1
    16    6    7 1
    17    6    8 1
    18    7   29 1
    19    7   30 1
    20    8   13 1
    21    8    9 2
    22    9   10 1
    23    9   31 1
    24   10   11 1
    25   10   12 1
    26   12   17 ar
    27   12   13 ar
    28   13   14 ar
    29   14   15 ar
    30   14   32 1
    31   15   16 ar
    32   15   18 1
    33   16   17 ar
    34   16   33 1
    35   17   34 1
    36   18   19 2
    37   18   20 am
    38   20   35 1
    39   20   36 1
@<TRIPOS>MOLECULE
ZINC13757088
   31    33     0     0     0
SMALL
USER_CHARGES
2-(4-bromo-2,3,6,7-tetrahydrofuro[2,3-f]benzofuran-8-yl)ethanamine
@<TRIPOS>ATOM
      1 C1          0.0408   -0.2321    2.6359 C.3       1 <0>        -0.1058
      2 C2          0.4680   -1.5192    3.3802 C.3       1 <0>         0.0488
      3 O1          0.0389   -2.5607    2.4868 O.3       1 <0>        -0.2821
      4 C3          0.0373   -2.0840    1.2109 C.ar      1 <0>         0.1188
      5 C4          0.0228   -0.6955    1.1915 C.ar      1 <0>        -0.1338
      6 C5          0.0021   -0.0041    0.0020 C.ar      1 <0>        -0.0618
      7 C6         -0.0059   -0.6911   -1.2096 C.ar      1 <0>         0.0940
      8 C7          0.0279   -2.0792   -1.1910 C.ar      1 <0>        -0.1060
      9 C8          0.0442   -2.7715   -0.0010 C.ar      1 <0>        -0.0575
     10 Br1         0.0754   -4.6622   -0.0113 Br        1 <0>        -0.0133
     11 C9          0.0404   -2.5417   -2.6358 C.3       1 <0>        -0.1161
     12 C10         0.4118   -1.2408   -3.3859 C.3       1 <0>         0.0546
     13 O2         -0.0383   -0.2146   -2.4850 O.3       1 <0>        -0.2995
     14 C11        -0.0184    1.5028    0.0103 C.3       1 <0>        -0.1006
     15 C12         1.4170    2.0324   -0.0006 C.3       1 <0>        -0.0013
     16 H1          0.7726    0.5626    2.7808 H         1 <0>         0.0926
     17 H2         -0.9505    0.0913    2.9535 H         1 <0>         0.1024
     18 H3          1.5493   -1.5467    3.5145 H         1 <0>         0.0853
     19 H4         -0.0435   -1.5983    4.3395 H         1 <0>         0.1184
     20 H5          0.7968   -3.3107   -2.7920 H         1 <0>         0.1065
     21 H6         -0.9438   -2.8990   -2.9388 H         1 <0>         0.1071
     22 H7          1.4893   -1.1764   -3.5372 H         1 <0>         0.0849
     23 H8         -0.1172   -1.1789   -4.3370 H         1 <0>         0.1182
     24 H9         -0.5455    1.8639   -0.8728 H         1 <0>         0.1032
     25 H10        -0.5286    1.8543    0.9071 H         1 <0>         0.0992
     26 H11         1.9442    1.6713    0.8825 H         1 <0>         0.1353
     27 H12         1.9272    1.6808   -0.8974 H         1 <0>         0.1344
     28 H13         0.8736    3.8514    0.7958 H         1 <0>         0.4371
     29 H14         2.3341    3.8756    0.0006 H         1 <0>         0.4416
     30 N1          1.3851    3.5055   -0.0144 N.4       1 <0>        -0.6461
     31 H15         0.9144    3.8249   -0.8692 H         1 <0>         0.4414
@<TRIPOS>BOND
     1    1    5 1
     2    1    2 1
     3    1   16 1
     4    1   17 1
     5    2    3 1
     6    2   18 1
     7    2   19 1
     8    3    4 1
     9    4    9 ar
    10    4    5 ar
    11    5    6 ar
    12    6    7 ar
    13    6   14 1
    14    7   13 1
    15    7    8 ar
    16    8    9 ar
    17    8   11 1
    18    9   10 1
    19   11   12 1
    20   11   20 1
    21   11   21 1
    22   12   13 1
    23   12   22 1
    24   12   23 1
    25   14   15 1
    26   14   24 1
    27   14   25 1
    28   15   26 1
    29   15   27 1
    30   15   30 1
    31   28   30 1
    32   29   30 1
    33   30   31 1
@<TRIPOS>MOLECULE
ZINC26745026
   36    38     0     0     0
SMALL
USER_CHARGES
5-chloro-3-(1-ethyl-5,6-dihydro-2H-pyridin-3-yl)-1H-indole
@<TRIPOS>ATOM
      1 C1         -3.6418   -4.6541   -1.9040 C.3       1 <0>        -0.1899
      2 C2         -2.9178   -3.3460   -2.2289 C.3       1 <0>        -0.0088
      3 N1         -2.4413   -2.7278   -0.9845 N.4       1 <0>        -0.4001
      4 C3         -3.5699   -2.2828   -0.1506 C.3       1 <0>        -0.0084
      5 C4         -3.0407   -1.9483    1.2463 C.3       1 <0>        -0.1201
      6 C5         -1.8361   -1.0560    1.1330 C.2       1 <0>        -0.1243
      7 C6         -1.1695   -0.9018    0.0084 C.2       1 <0>        -0.0730
      8 C7         -1.5424   -1.6017   -1.2669 C.3       1 <0>         0.0445
      9 C8          0.0021   -0.0041    0.0020 C.2       1 <0>        -0.1767
     10 C9          1.3082   -0.3751   -0.0124 C.2       1 <0>         0.0882
     11 N2          2.1023    0.7343   -0.0141 N.pl3     1 <0>        -0.5950
     12 H1          3.1970    0.6271   -0.0252 H         1 <0>         0.4543
     13 C10         1.3272    1.8747   -0.0005 C.ar      1 <0>         0.1078
     14 C11        -0.0179    1.4686    0.0101 C.ar      1 <0>        -0.0819
     15 C12        -1.0346    2.4215    0.0300 C.ar      1 <0>        -0.0705
     16 C13        -0.7133    3.7619    0.0300 C.ar      1 <0>        -0.0502
     17 C14         0.6158    4.1637    0.0199 C.ar      1 <0>        -0.0880
     18 C15         1.6307    3.2323    0.0045 C.ar      1 <0>        -0.1079
     19 Cl1        -1.9761    4.9530    0.0487 Cl        1 <0>        -0.0609
     20 H2         -3.9986   -5.1169   -2.8359 H         1 <0>         0.1072
     21 H3         -4.4988   -4.4454   -1.2468 H         1 <0>         0.0802
     22 H4         -2.9485   -5.3404   -1.3957 H         1 <0>         0.0815
     23 H5         -2.0608   -3.5547   -2.8861 H         1 <0>         0.1314
     24 H6         -3.6110   -2.6597   -2.7372 H         1 <0>         0.1269
     25 H7         -4.0293   -1.3907   -0.6012 H         1 <0>         0.1287
     26 H8         -4.3175   -3.0871   -0.0858 H         1 <0>         0.1363
     27 H9         -3.8236   -1.4319    1.8210 H         1 <0>         0.1242
     28 H10        -2.7585   -2.8771    1.7636 H         1 <0>         0.1065
     29 H11        -1.5172   -0.5203    2.0393 H         1 <0>         0.1407
     30 H12        -0.6288   -1.9748   -1.7527 H         1 <0>         0.1377
     31 H13        -2.0473   -0.8879   -1.9344 H         1 <0>         0.1351
     32 H14         1.6646   -1.3946   -0.0210 H         1 <0>         0.1748
     33 H15        -2.0690    2.1113    0.0431 H         1 <0>         0.1297
     34 H16         0.8562    5.2166    0.0238 H         1 <0>         0.1420
     35 H17         2.6611    3.5557   -0.0032 H         1 <0>         0.1353
     36 H18        -1.8758   -3.4909   -0.4296 H         1 <0>         0.4428
@<TRIPOS>BOND
     1    1    2 1
     2    1   20 1
     3    1   21 1
     4    1   22 1
     5    2    3 1
     6    2   23 1
     7    2   24 1
     8    3    8 1
     9    3    4 1
    10    3   36 1
    11    4    5 1
    12    4   25 1
    13    4   26 1
    14    5    6 1
    15    5   27 1
    16    5   28 1
    17    6    7 2
    18    6   29 1
    19    7    8 1
    20    7    9 1
    21    8   30 1
    22    8   31 1
    23    9   14 1
    24    9   10 2
    25   10   11 1
    26   10   32 1
    27   11   12 1
    28   11   13 1
    29   13   18 ar
    30   13   14 ar
    31   14   15 ar
    32   15   16 ar
    33   15   33 1
    34   16   17 ar
    35   16   19 1
    36   17   18 ar
    37   17   34 1
    38   18   35 1
@<TRIPOS>MOLECULE
ZINC11900191
   48    50     0     0     0
SMALL
USER_CHARGES
N-[2-[4-(2-methoxyphenyl)piperazin-1-yl]ethyl]furan-2-carboxamide
@<TRIPOS>ATOM
      1 C1         -1.1455    3.4824    0.0264 C.3       1 <0>         0.0204
      2 O1         -1.2029    2.0546    0.0189 O.3       1 <0>        -0.2998
      3 C2         -0.0168    1.3889    0.0097 C.ar      1 <0>         0.1645
      4 C3          1.1751    2.0944    0.0021 C.ar      1 <0>        -0.2028
      5 C4          2.3802    1.4164   -0.0135 C.ar      1 <0>        -0.0620
      6 C5          2.3999    0.0340   -0.0207 C.ar      1 <0>        -0.1458
      7 C6          1.2148   -0.6775   -0.0132 C.ar      1 <0>        -0.1057
      8 C7          0.0021   -0.0041    0.0020 C.ar      1 <0>         0.0235
      9 N1         -1.1993   -0.7222    0.0092 N.pl3     1 <0>        -0.4816
     10 C8         -1.3293   -1.5189    1.2371 C.3       1 <0>         0.0307
     11 C9         -2.6874   -2.2247    1.2428 C.3       1 <0>        -0.0072
     12 C10        -2.6684   -2.2806   -1.1770 C.3       1 <0>         0.0057
     13 C11        -1.3103   -1.5748   -1.1826 C.3       1 <0>         0.0292
     14 C12        -4.0593   -3.8310    0.0585 C.3       1 <0>        -0.0151
     15 C13        -4.2778   -4.4456    1.4425 C.3       1 <0>         0.0936
     16 N2         -5.5353   -5.1972    1.4500 N.am      1 <0>        -0.7275
     17 C14        -5.9364   -5.8285    2.5712 C.2       1 <0>         0.6186
     18 O2         -5.2540   -5.7741    3.5773 O.2       1 <0>        -0.5062
     19 C15        -7.1952   -6.5810    2.5787 C.2       1 <0>        -0.1062
     20 C16        -7.7160   -7.2629    3.6408 C.2       1 <0>        -0.0970
     21 C17        -8.9239   -7.8289    3.2039 C.2       1 <0>        -0.2244
     22 C18        -9.0854   -7.4721    1.9106 C.2       1 <0>         0.0122
     23 O3         -8.0444   -6.7158    1.5390 O.3       1 <0>        -0.1690
     24 H1         -0.6132    3.8200    0.9157 H         1 <0>         0.0590
     25 H2         -0.6217    3.8296   -0.8642 H         1 <0>         0.0590
     26 H3         -2.1577    3.8867    0.0334 H         1 <0>         0.1054
     27 H4          1.1633    3.1743    0.0076 H         1 <0>         0.1382
     28 H5          3.3085    1.9682   -0.0198 H         1 <0>         0.1340
     29 H6          3.3435   -0.4913   -0.0325 H         1 <0>         0.1309
     30 H7          1.2330   -1.7573   -0.0195 H         1 <0>         0.1244
     31 H8         -0.5330   -2.2623    1.2743 H         1 <0>         0.0638
     32 H9         -1.2564   -0.8637    2.1052 H         1 <0>         0.1248
     33 H10        -3.4839   -1.4807    1.2331 H         1 <0>         0.1439
     34 H11        -2.7741   -2.8392    2.1389 H         1 <0>         0.1399
     35 H12        -3.4647   -1.5372   -1.2141 H         1 <0>         0.1422
     36 H13        -2.7414   -2.9355   -2.0452 H         1 <0>         0.1371
     37 H14        -1.2235   -0.9603   -2.0787 H         1 <0>         0.1249
     38 H15        -0.5138   -2.3188   -1.1729 H         1 <0>         0.0635
     39 H16        -4.8853   -3.1595   -0.1755 H         1 <0>         0.1410
     40 H17        -4.0130   -4.6239   -0.6880 H         1 <0>         0.1383
     41 H18        -3.4517   -5.1171    1.6765 H         1 <0>         0.0923
     42 H19        -4.3241   -3.6526    2.1890 H         1 <0>         0.0956
     43 H20        -6.0792   -5.2405    0.6480 H         1 <0>         0.4134
     44 H21        -7.2824   -7.3502    4.6261 H         1 <0>         0.1642
     45 H22        -9.5975   -8.4354    3.7910 H         1 <0>         0.1637
     46 H23        -9.9190   -7.7474    1.2816 H         1 <0>         0.2172
     47 N3         -2.7769   -3.0952    0.0514 N.4       1 <0>        -0.3929
     48 H24        -2.0043   -3.7711    0.0731 H         1 <0>         0.4278
@<TRIPOS>BOND
     1    1    2 1
     2    1   24 1
     3    1   25 1
     4    1   26 1
     5    2    3 1
     6    3    8 ar
     7    3    4 ar
     8    4    5 ar
     9    4   27 1
    10    5    6 ar
    11    5   28 1
    12    6    7 ar
    13    6   29 1
    14    7    8 ar
    15    7   30 1
    16    8    9 1
    17    9   13 1
    18    9   10 1
    19   10   11 1
    20   10   31 1
    21   10   32 1
    22   11   33 1
    23   11   34 1
    24   11   47 1
    25   12   13 1
    26   12   35 1
    27   12   36 1
    28   12   47 1
    29   13   37 1
    30   13   38 1
    31   14   15 1
    32   14   39 1
    33   14   40 1
    34   14   47 1
    35   15   16 1
    36   15   41 1
    37   15   42 1
    38   16   17 am
    39   16   43 1
    40   17   18 2
    41   17   19 1
    42   19   23 1
    43   19   20 2
    44   20   21 1
    45   20   44 1
    46   21   22 2
    47   21   45 1
    48   22   23 1
    49   22   46 1
    50   47   48 1
@<TRIPOS>MOLECULE
ZINC53172833
   46    48     0     0     0
SMALL
USER_CHARGES

@<TRIPOS>ATOM
      1 C1         -0.0167    1.3786    0.0115 C.ar      1 <0>        -0.1809
      2 C2          0.0020   -0.0039   -0.0114 C.ar      1 <0>        -0.0708
      3 C3          1.2063   -0.6796   -0.0274 C.ar      1 <0>        -0.2014
      4 C4          2.3998    0.0311   -0.0206 C.ar      1 <0>         0.2193
      5 C5          2.3775    1.4198    0.0024 C.ar      1 <0>        -0.2012
      6 C6          1.1696    2.0892    0.0184 C.ar      1 <0>        -0.0710
      7 N1          3.6196   -0.6492   -0.0363 N.pl3     1 <0>        -0.6325
      8 C7          4.8906    0.0825   -0.1489 C.3       1 <0>         0.1262
      9 C8          5.7107   -0.5385   -1.2847 C.3       1 <0>         0.0419
     10 N2          5.8440   -1.9833   -1.0549 N.3       1 <0>        -0.5320
     11 C9          4.5356   -2.6505   -1.0847 C.3       1 <0>         0.0340
     12 C10         3.6676   -2.1156    0.0654 C.3       1 <0>         0.1257
     13 C11         6.7655   -2.5880   -2.0261 C.3       1 <0>         0.0444
     14 C12         7.0731   -4.0276   -1.6092 C.3       1 <0>         0.1215
     15 N3          7.9921   -4.6307   -2.5777 N.am      1 <0>        -0.7272
     16 C13         8.4048   -5.9031   -2.4130 C.2       1 <0>         0.5626
     17 O1          8.0145   -6.5504   -1.4609 O.2       1 <0>        -0.5293
     18 C14         9.3315   -6.5112   -3.3896 C.ar      1 <0>        -0.1494
     19 C15         9.7859   -5.7681   -4.4812 C.ar      1 <0>        -0.0570
     20 C16        10.6505   -6.3404   -5.3894 C.ar      1 <0>        -0.1611
     21 C17        11.0686   -7.6516   -5.2210 C.ar      1 <0>         0.1276
     22 C18        10.6206   -8.3940   -4.1390 C.ar      1 <0>        -0.1602
     23 C19         9.7608   -7.8294   -3.2214 C.ar      1 <0>        -0.0284
     24 F1         11.9154   -8.2080   -6.1146 F         1 <0>        -0.1319
     25 H1         -0.9599    1.9046    0.0194 H         1 <0>         0.1176
     26 H2         -0.9263   -0.5559   -0.0163 H         1 <0>         0.1202
     27 H3          1.2202   -1.7594   -0.0449 H         1 <0>         0.1211
     28 H4          3.3036    1.9754    0.0081 H         1 <0>         0.1209
     29 H5          1.1515    3.1689    0.0362 H         1 <0>         0.1202
     30 H6          4.6912    1.1306   -0.3720 H         1 <0>         0.0876
     31 H7          5.4430    0.0031    0.7874 H         1 <0>         0.0710
     32 H8          5.2049   -0.3664   -2.2348 H         1 <0>         0.0405
     33 H9          6.7000   -0.0816   -1.3109 H         1 <0>         0.0878
     34 H10         4.0461   -2.4490   -2.0376 H         1 <0>         0.0414
     35 H11         4.6726   -3.7253   -0.9658 H         1 <0>         0.0899
     36 H12         4.1046   -2.4022    1.0219 H         1 <0>         0.0721
     37 H13         2.6592   -2.5215   -0.0158 H         1 <0>         0.0880
     38 H14         6.3047   -2.5863   -3.0139 H         1 <0>         0.0422
     39 H15         7.6908   -2.0128   -2.0558 H         1 <0>         0.0844
     40 H16         7.5338   -4.0293   -0.6213 H         1 <0>         0.0816
     41 H17         6.1477   -4.6029   -1.5795 H         1 <0>         0.0712
     42 H18         8.3035   -4.1142   -3.3374 H         1 <0>         0.3996
     43 H19         9.4603   -4.7469   -4.6136 H         1 <0>         0.1357
     44 H20        11.0025   -5.7666   -6.2339 H         1 <0>         0.1440
     45 H21        10.9491   -9.4150   -4.0127 H         1 <0>         0.1456
     46 H22         9.4161   -8.4070   -2.3764 H         1 <0>         0.1484
@<TRIPOS>BOND
     1    1    6 ar
     2    1    2 ar
     3    1   25 1
     4    2    3 ar
     5    2   26 1
     6    3    4 ar
     7    3   27 1
     8    4    5 ar
     9    4    7 1
    10    5    6 ar
    11    5   28 1
    12    6   29 1
    13    7   12 1
    14    7    8 1
    15    8    9 1
    16    8   30 1
    17    8   31 1
    18    9   10 1
    19    9   32 1
    20    9   33 1
    21   10   11 1
    22   10   13 1
    23   11   12 1
    24   11   34 1
    25   11   35 1
    26   12   36 1
    27   12   37 1
    28   13   14 1
    29   13   38 1
    30   13   39 1
    31   14   15 1
    32   14   40 1
    33   14   41 1
    34   15   16 am
    35   15   42 1
    36   16   17 2
    37   16   18 1
    38   18   23 ar
    39   18   19 ar
    40   19   20 ar
    41   19   43 1
    42   20   21 ar
    43   20   44 1
    44   21   22 ar
    45   21   24 1
    46   22   23 ar
    47   22   45 1
    48   23   46 1
@<TRIPOS>MOLECULE
ZINC53172846
   43    44     0     0     0
SMALL
USER_CHARGES

@<TRIPOS>ATOM
      1 C1         -0.0184    1.5028    0.0103 C.3       1 <0>        -0.1731
      2 C2          0.0021   -0.0041    0.0020 C.2       1 <0>         0.5101
      3 O1          0.0203   -0.6160    1.0489 O.2       1 <0>        -0.5440
      4 N1          0.0001   -0.6716   -1.1688 N.am      1 <0>        -0.7334
      5 C3          0.0199   -2.1365   -1.1769 C.3       1 <0>         0.1193
      6 C4          0.0131   -2.6387   -2.6221 C.3       1 <0>         0.0458
      7 N2          0.0330   -4.1075   -2.6302 N.3       1 <0>        -0.5307
      8 C5         -1.2042   -4.6539   -2.0569 C.3       1 <0>         0.0358
      9 C6         -1.0704   -6.1740   -1.9165 C.3       1 <0>         0.1532
     10 N3         -0.6909   -6.7323   -3.2232 N.pl3     1 <0>        -0.6685
     11 C7          0.4594   -6.1422   -3.9245 C.3       1 <0>         0.1532
     12 C8          0.2654   -4.6234   -3.9858 C.3       1 <0>         0.0429
     13 C9         -1.4053   -7.7971   -3.7843 C.ar      1 <0>         0.1383
     14 C10        -2.4893   -7.5473   -4.6132 C.ar      1 <0>        -0.0878
     15 C11        -3.1928   -8.6006   -5.1664 C.ar      1 <0>        -0.1523
     16 C12        -2.8191   -9.9039   -4.8960 C.ar      1 <0>        -0.0833
     17 C13        -1.7396  -10.1605   -4.0706 C.ar      1 <0>        -0.2064
     18 C14        -1.0261   -9.1107   -3.5165 C.ar      1 <0>         0.1198
     19 O2          0.0391   -9.3615   -2.7087 O.3       1 <0>        -0.3040
     20 C15         0.3701  -10.7325   -2.4786 C.3       1 <0>         0.0251
     21 H1          1.0042    1.8801    0.0026 H         1 <0>         0.0947
     22 H2         -0.5455    1.8639   -0.8728 H         1 <0>         0.0795
     23 H3         -0.5286    1.8543    0.9071 H         1 <0>         0.0942
     24 H4         -0.0145   -0.1822   -2.0061 H         1 <0>         0.4005
     25 H5          0.9196   -2.4904   -0.6735 H         1 <0>         0.0775
     26 H6         -0.8601   -2.5146   -0.6566 H         1 <0>         0.0680
     27 H7         -0.8866   -2.2847   -3.1255 H         1 <0>         0.0392
     28 H8          0.8931   -2.2605   -3.1423 H         1 <0>         0.0815
     29 H9         -1.3766   -4.2118   -1.0756 H         1 <0>         0.0836
     30 H10        -2.0428   -4.4217   -2.7133 H         1 <0>         0.0365
     31 H11        -0.3004   -6.4074   -1.1811 H         1 <0>         0.0595
     32 H12        -2.0234   -6.5978   -1.6000 H         1 <0>         0.0704
     33 H13         1.3764   -6.3725   -3.3821 H         1 <0>         0.0591
     34 H14         0.5178   -6.5450   -4.9357 H         1 <0>         0.0706
     35 H15        -0.5937   -4.3916   -4.6154 H         1 <0>         0.0362
     36 H16         1.1587   -4.1591   -4.4035 H         1 <0>         0.0810
     37 H17        -2.7836   -6.5302   -4.8258 H         1 <0>         0.1250
     38 H18        -4.0368   -8.4050   -5.8113 H         1 <0>         0.1239
     39 H19        -3.3719  -10.7238   -5.3301 H         1 <0>         0.1246
     40 H20        -1.4503  -11.1798   -3.8614 H         1 <0>         0.1278
     41 H21        -0.4762  -11.2373   -2.0127 H         1 <0>         0.0538
     42 H22         0.6027  -11.2144   -3.4282 H         1 <0>         0.0537
     43 H23         1.2362  -10.7915   -1.8195 H         1 <0>         0.0994
@<TRIPOS>BOND
     1    1    2 1
     2    1   21 1
     3    1   22 1
     4    1   23 1
     5    2    3 2
     6    2    4 am
     7    4    5 1
     8    4   24 1
     9    5    6 1
    10    5   25 1
    11    5   26 1
    12    6    7 1
    13    6   27 1
    14    6   28 1
    15    7   12 1
    16    7    8 1
    17    8    9 1
    18    8   29 1
    19    8   30 1
    20    9   10 1
    21    9   31 1
    22    9   32 1
    23   10   11 1
    24   10   13 1
    25   11   12 1
    26   11   33 1
    27   11   34 1
    28   12   35 1
    29   12   36 1
    30   13   18 ar
    31   13   14 ar
    32   14   15 ar
    33   14   37 1
    34   15   16 ar
    35   15   38 1
    36   16   17 ar
    37   16   39 1
    38   17   18 ar
    39   17   40 1
    40   18   19 1
    41   19   20 1
    42   20   41 1
    43   20   42 1
    44   20   43 1
@<TRIPOS>MOLECULE
ZINC13760892
   49    51     0     0     0
SMALL
USER_CHARGES

@<TRIPOS>ATOM
      1 C1         -0.0173    1.4248    0.0099 C.3       1 <0>         0.0251
      2 O1          0.0021   -0.0041    0.0020 O.3       1 <0>        -0.3040
      3 C2         -1.2013   -0.6380    0.0101 C.ar      1 <0>         0.1201
      4 C3         -2.3740    0.0989    0.0195 C.ar      1 <0>        -0.2063
      5 C4         -3.5967   -0.5469    0.0283 C.ar      1 <0>        -0.0831
      6 C5         -3.6532   -1.9283    0.0271 C.ar      1 <0>        -0.1523
      7 C6         -2.4875   -2.6710    0.0173 C.ar      1 <0>        -0.0880
      8 C7         -1.2572   -2.0300    0.0032 C.ar      1 <0>         0.1380
      9 N1         -0.0754   -2.7797   -0.0127 N.pl3     1 <0>        -0.6682
     10 C8          0.5713   -3.1961    1.2410 C.3       1 <0>         0.1531
     11 C9          0.8354   -4.7041    1.1750 C.3       1 <0>         0.0428
     12 N2          1.5913   -5.0126   -0.0462 N.3       1 <0>        -0.5299
     13 C10         0.8175   -4.6811   -1.2500 C.3       1 <0>         0.0353
     14 C11         0.5494   -3.1773   -1.2834 C.3       1 <0>         0.1530
     15 C12         2.0135   -6.4196   -0.0626 C.3       1 <0>         0.0448
     16 C13         2.9994   -6.6428   -1.2111 C.3       1 <0>         0.1209
     17 N3          3.4204   -8.0459   -1.2276 N.am      1 <0>        -0.7230
     18 C14         4.2932   -8.4767   -2.1598 C.2       1 <0>         0.5595
     19 O2          4.7310   -7.7013   -2.9867 O.2       1 <0>        -0.5229
     20 C15         4.7190   -9.8956   -2.1764 C.ar      1 <0>        -0.0885
     21 C16         4.2231  -10.8056   -1.2379 C.ar      1 <0>        -0.1441
     22 C17         4.6466  -12.1195   -1.2902 C.ar      1 <0>         0.0981
     23 N4          5.5054  -12.5178   -2.2074 N.ar      1 <0>        -0.4681
     24 C18         5.9971  -11.6930   -3.1103 C.ar      1 <0>         0.0997
     25 C19         5.6234  -10.3632   -3.1347 C.ar      1 <0>        -0.1150
     26 H1          1.0053    1.8021    0.0021 H         1 <0>         0.0995
     27 H2         -0.5445    1.7859   -0.8732 H         1 <0>         0.0539
     28 H3         -0.5275    1.7763    0.9067 H         1 <0>         0.0538
     29 H4         -2.3335    1.1781    0.0204 H         1 <0>         0.1279
     30 H5         -4.5101    0.0293    0.0363 H         1 <0>         0.1247
     31 H6         -4.6104   -2.4284    0.0343 H         1 <0>         0.1239
     32 H7         -2.5344   -3.7500    0.0168 H         1 <0>         0.1249
     33 H8          1.5150   -2.6639    1.3604 H         1 <0>         0.0594
     34 H9         -0.0855   -2.9758    2.0825 H         1 <0>         0.0708
     35 H10         1.4125   -5.0108    2.0473 H         1 <0>         0.0814
     36 H11        -0.1140   -5.2393    1.1600 H         1 <0>         0.0367
     37 H12         1.3817   -4.9710   -2.1364 H         1 <0>         0.0840
     38 H13        -0.1317   -5.2166   -1.2312 H         1 <0>         0.0367
     39 H14        -0.1219   -2.9447   -2.1101 H         1 <0>         0.0705
     40 H15         1.4910   -2.6433   -1.4113 H         1 <0>         0.0593
     41 H16         2.4960   -6.6652    0.8834 H         1 <0>         0.0828
     42 H17         1.1418   -7.0588   -0.2026 H         1 <0>         0.0405
     43 H18         2.5169   -6.3971   -2.1571 H         1 <0>         0.0721
     44 H19         3.8711   -6.0035   -1.0711 H         1 <0>         0.0821
     45 H20         3.0710   -8.6649   -0.5675 H         1 <0>         0.4005
     46 H21         3.5197  -10.4860   -0.4831 H         1 <0>         0.1382
     47 H22         4.2692  -12.8299   -0.5695 H         1 <0>         0.1637
     48 H23         6.6988  -12.0626   -3.8434 H         1 <0>         0.1659
     49 H24         6.0268   -9.6940   -3.8803 H         1 <0>         0.1499
@<TRIPOS>BOND
     1    1    2 1
     2    1   26 1
     3    1   27 1
     4    1   28 1
     5    2    3 1
     6    3    8 ar
     7    3    4 ar
     8    4    5 ar
     9    4   29 1
    10    5    6 ar
    11    5   30 1
    12    6    7 ar
    13    6   31 1
    14    7    8 ar
    15    7   32 1
    16    8    9 1
    17    9   14 1
    18    9   10 1
    19   10   11 1
    20   10   33 1
    21   10   34 1
    22   11   12 1
    23   11   35 1
    24   11   36 1
    25   12   13 1
    26   12   15 1
    27   13   14 1
    28   13   37 1
    29   13   38 1
    30   14   39 1
    31   14   40 1
    32   15   16 1
    33   15   41 1
    34   15   42 1
    35   16   17 1
    36   16   43 1
    37   16   44 1
    38   17   18 am
    39   17   45 1
    40   18   19 2
    41   18   20 1
    42   20   25 ar
    43   20   21 ar
    44   21   22 ar
    45   21   46 1
    46   22   23 ar
    47   22   47 1
    48   23   24 ar
    49   24   25 ar
    50   24   48 1
    51   25   49 1
@<TRIPOS>MOLECULE
ZINC03363307
   51    53     0     0     0
SMALL
USER_CHARGES

@<TRIPOS>ATOM
      1 C1         -0.0173    1.4248    0.0099 C.3       1 <0>         0.0228
      2 O1          0.0021   -0.0041    0.0020 O.3       1 <0>        -0.3112
      3 C2          0.6063   -0.6076   -1.0566 C.ar      1 <0>         0.1292
      4 C3          1.1727    0.1584   -2.0619 C.ar      1 <0>        -0.2022
      5 C4          1.7862   -0.4565   -3.1379 C.ar      1 <0>        -0.0667
      6 C5          1.8369   -1.8361   -3.2138 C.ar      1 <0>        -0.1490
      7 C6          1.2745   -2.6077   -2.2144 C.ar      1 <0>        -0.0821
      8 C7          0.6620   -1.9977   -1.1294 C.ar      1 <0>         0.1084
      9 N1          0.0968   -2.7768   -0.1132 N.pl3     1 <0>        -0.6636
     10 C8         -1.3057   -3.2146   -0.1871 C.3       1 <0>         0.1217
     11 C9         -1.3569   -4.7253    0.0636 C.3       1 <0>        -0.0220
     12 N2         -0.6925   -5.0320    1.3366 N.4       1 <0>        -0.3789
     13 C10         0.7338   -4.6939    1.2505 C.3       1 <0>        -0.0286
     14 C11         0.8902   -3.1864    1.0559 C.3       1 <0>         0.1221
     15 C12        -0.8376   -6.4641    1.6301 C.3       1 <0>        -0.0057
     16 C13        -0.2558   -6.7628    3.0132 C.3       1 <0>        -0.1505
     17 C14        -0.4069   -8.2543    3.3189 C.3       1 <0>         0.0618
     18 O2          0.1365   -8.5333    4.6107 O.3       1 <0>        -0.3103
     19 C15         0.0815   -9.8226    5.0382 C.ar      1 <0>         0.1104
     20 C16        -0.4789  -10.7992    4.2280 C.ar      1 <0>        -0.1787
     21 C17        -0.5342  -12.1090    4.6637 C.ar      1 <0>        -0.1136
     22 C18        -0.0311  -12.4471    5.9085 C.ar      1 <0>         0.0728
     23 C19         0.5281  -11.4732    6.7183 C.ar      1 <0>        -0.1109
     24 C20         0.5907  -10.1638    6.2825 C.ar      1 <0>        -0.1158
     25 F1         -0.0863  -13.7283    6.3334 F         1 <0>        -0.1339
     26 H1          1.0053    1.8021    0.0021 H         1 <0>         0.0590
     27 H2         -0.5445    1.7859   -0.8732 H         1 <0>         0.0589
     28 H3         -0.5275    1.7763    0.9067 H         1 <0>         0.1037
     29 H4          1.1348    1.2363   -2.0057 H         1 <0>         0.1342
     30 H5          2.2267    0.1425   -3.9212 H         1 <0>         0.1321
     31 H6          2.3168   -2.3119   -4.0562 H         1 <0>         0.1306
     32 H7          1.3151   -3.6852   -2.2764 H         1 <0>         0.1265
     33 H8         -1.8914   -2.6971    0.5728 H         1 <0>         0.0783
     34 H9         -1.7068   -2.9936   -1.1762 H         1 <0>         0.1146
     35 H10        -2.3961   -5.0513    0.1082 H         1 <0>         0.1368
     36 H11        -0.8470   -5.2457   -0.7471 H         1 <0>         0.1305
     37 H12         1.2353   -4.9969    2.1697 H         1 <0>         0.1381
     38 H13         1.1804   -5.2153    0.4039 H         1 <0>         0.1309
     39 H14         1.9402   -2.9468    0.8881 H         1 <0>         0.1144
     40 H15         0.5300   -2.6661    1.9434 H         1 <0>         0.0778
     41 H16        -1.8938   -6.7330    1.6144 H         1 <0>         0.1352
     42 H17        -0.3036   -7.0450    0.8781 H         1 <0>         0.1327
     43 H18         0.8004   -6.4939    3.0289 H         1 <0>         0.0996
     44 H19        -0.7898   -6.1819    3.7652 H         1 <0>         0.1001
     45 H20        -1.4631   -8.5232    3.3032 H         1 <0>         0.0738
     46 H21         0.1271   -8.8352    2.5669 H         1 <0>         0.0733
     47 H22        -0.8720  -10.5356    3.2573 H         1 <0>         0.1354
     48 H23        -0.9704  -12.8696    4.0331 H         1 <0>         0.1422
     49 H24         0.9198  -11.7382    7.6893 H         1 <0>         0.1482
     50 H25         1.0313   -9.4052    6.9124 H         1 <0>         0.1438
     51 H26        -1.1202   -4.4947    2.0759 H         1 <0>         0.4238
@<TRIPOS>BOND
     1    1    2 1
     2    1   26 1
     3    1   27 1
     4    1   28 1
     5    2    3 1
     6    3    8 ar
     7    3    4 ar
     8    4    5 ar
     9    4   29 1
    10    5    6 ar
    11    5   30 1
    12    6    7 ar
    13    6   31 1
    14    7    8 ar
    15    7   32 1
    16    8    9 1
    17    9   14 1
    18    9   10 1
    19   10   11 1
    20   10   33 1
    21   10   34 1
    22   11   12 1
    23   11   35 1
    24   11   36 1
    25   12   13 1
    26   12   15 1
    27   12   51 1
    28   13   14 1
    29   13   37 1
    30   13   38 1
    31   14   39 1
    32   14   40 1
    33   15   16 1
    34   15   41 1
    35   15   42 1
    36   16   17 1
    37   16   43 1
    38   16   44 1
    39   17   18 1
    40   17   45 1
    41   17   46 1
    42   18   19 1
    43   19   24 ar
    44   19   20 ar
    45   20   21 ar
    46   20   47 1
    47   21   22 ar
    48   21   48 1
    49   22   23 ar
    50   22   25 1
    51   23   24 ar
    52   23   49 1
    53   24   50 1
@<TRIPOS>MOLECULE
ZINC03363307
   50    52     0     0     0
SMALL
USER_CHARGES

@<TRIPOS>ATOM
      1 C1         -0.0173    1.4248    0.0099 C.3       1 <0>         0.0251
      2 O1          0.0021   -0.0041    0.0020 O.3       1 <0>        -0.3040
      3 C2          0.6263   -0.6189    1.0423 C.ar      1 <0>         0.1198
      4 C3          1.2020    0.1362    2.0507 C.ar      1 <0>        -0.2065
      5 C4          1.8368   -0.4902    3.1075 C.ar      1 <0>        -0.0834
      6 C5          1.8987   -1.8703    3.1618 C.ar      1 <0>        -0.1522
      7 C6          1.3263   -2.6311    2.1598 C.ar      1 <0>        -0.0881
      8 C7          0.6832   -2.0097    1.0992 C.ar      1 <0>         0.1385
      9 N1          0.0978   -2.7779    0.0862 N.pl3     1 <0>        -0.6684
     10 C8          0.8705   -3.1791   -1.0992 C.3       1 <0>         0.1532
     11 C9          0.7192   -4.6921   -1.2897 C.3       1 <0>         0.0416
     12 N2         -0.7081   -5.0367   -1.3328 N.3       1 <0>        -0.5329
     13 C10        -1.3720   -4.7173   -0.0619 C.3       1 <0>         0.0366
     14 C11        -1.3047   -3.2105    0.1818 C.3       1 <0>         0.1531
     15 C12        -0.8980   -6.4501   -1.6852 C.3       1 <0>         0.0597
     16 C13        -2.3795   -6.7116   -1.9641 C.3       1 <0>        -0.1163
     17 C14        -2.5773   -8.1837   -2.3312 C.3       1 <0>         0.0598
     18 O2         -3.9610   -8.4279   -2.5916 O.3       1 <0>        -0.3100
     19 C15        -4.3100   -9.6963   -2.9343 C.ar      1 <0>         0.1229
     20 C16        -3.3411  -10.6858   -3.0123 C.ar      1 <0>        -0.1819
     21 C17        -3.6972  -11.9744   -3.3607 C.ar      1 <0>        -0.1123
     22 C18        -5.0204  -12.2782   -3.6324 C.ar      1 <0>         0.0587
     23 C19        -5.9885  -11.2913   -3.5553 C.ar      1 <0>        -0.1121
     24 C20        -5.6361  -10.0034   -3.2007 C.ar      1 <0>        -0.1235
     25 F1         -5.3672  -13.5386   -3.9734 F         1 <0>        -0.1402
     26 H1          1.0053    1.8021    0.0021 H         1 <0>         0.0538
     27 H2         -0.5445    1.7859   -0.8732 H         1 <0>         0.0994
     28 H3         -0.5275    1.7763    0.9067 H         1 <0>         0.0538
     29 H4          1.1555    1.2145    2.0114 H         1 <0>         0.1278
     30 H5          2.2858    0.1003    3.8925 H         1 <0>         0.1246
     31 H6          2.3959   -2.3551    3.9890 H         1 <0>         0.1239
     32 H7          1.3765   -3.7090    2.2044 H         1 <0>         0.1250
     33 H8          0.4889   -2.6595   -1.9781 H         1 <0>         0.0587
     34 H9          1.9218   -2.9319   -0.9519 H         1 <0>         0.0699
     35 H10         1.1938   -4.9902   -2.2246 H         1 <0>         0.0805
     36 H11         1.1942   -5.2127   -0.4581 H         1 <0>         0.0354
     37 H12        -2.4141   -5.0337   -0.1064 H         1 <0>         0.0837
     38 H13        -0.8680   -5.2375    0.7526 H         1 <0>         0.0348
     39 H14        -1.6908   -2.9840    1.1756 H         1 <0>         0.0694
     40 H15        -1.8994   -2.6939   -0.5716 H         1 <0>         0.0582
     41 H16        -0.3139   -6.6843   -2.5752 H         1 <0>         0.0784
     42 H17        -0.5676   -7.0784   -0.8581 H         1 <0>         0.0357
     43 H18        -2.9636   -6.4774   -1.0741 H         1 <0>         0.0756
     44 H19        -2.7099   -6.0833   -2.7912 H         1 <0>         0.0853
     45 H20        -1.9932   -8.4178   -3.2212 H         1 <0>         0.0652
     46 H21        -2.2469   -8.8120   -1.5040 H         1 <0>         0.0625
     47 H22        -2.3088  -10.4490   -2.8012 H         1 <0>         0.1373
     48 H23        -2.9430  -12.7450   -3.4216 H         1 <0>         0.1385
     49 H24        -7.0202  -11.5296   -3.7678 H         1 <0>         0.1434
     50 H25        -6.3922   -9.2349   -3.1359 H         1 <0>         0.1422
@<TRIPOS>BOND
     1    1    2 1
     2    1   26 1
     3    1   27 1
     4    1   28 1
     5    2    3 1
     6    3    8 ar
     7    3    4 ar
     8    4    5 ar
     9    4   29 1
    10    5    6 ar
    11    5   30 1
    12    6    7 ar
    13    6   31 1
    14    7    8 ar
    15    7   32 1
    16    8    9 1
    17    9   14 1
    18    9   10 1
    19   10   11 1
    20   10   33 1
    21   10   34 1
    22   11   12 1
    23   11   35 1
    24   11   36 1
    25   12   13 1
    26   12   15 1
    27   13   14 1
    28   13   37 1
    29   13   38 1
    30   14   39 1
    31   14   40 1
    32   15   16 1
    33   15   41 1
    34   15   42 1
    35   16   17 1
    36   16   43 1
    37   16   44 1
    38   17   18 1
    39   17   45 1
    40   17   46 1
    41   18   19 1
    42   19   24 ar
    43   19   20 ar
    44   20   21 ar
    45   20   47 1
    46   21   22 ar
    47   21   48 1
    48   22   23 ar
    49   22   25 1
    50   23   24 ar
    51   23   49 1
    52   24   50 1
@<TRIPOS>MOLECULE
ZINC36187797
   44    47     0     0     0
SMALL
USER_CHARGES

@<TRIPOS>ATOM
      1 C1         -0.0164    1.3552    0.0095 C.ar      1 <0>        -0.1199
      2 C2          1.1572    2.0975    0.0023 C.ar      1 <0>        -0.0954
      3 C3          2.3742    1.4455   -0.0124 C.ar      1 <0>        -0.0763
      4 C4          2.4050    0.0671   -0.0198 C.ar      1 <0>        -0.1147
      5 C5          1.2288   -0.7103   -0.0134 C.ar      1 <0>        -0.0808
      6 C6          0.0021   -0.0041    0.0020 C.ar      1 <0>        -0.0789
      7 C7          1.4322   -2.1606   -0.0239 C.2       1 <0>        -0.1070
      8 C8          2.7067   -2.6047   -0.0384 C.2       1 <0>        -0.1733
      9 S1          3.7047   -1.1418   -0.0375 S.3       1 <0>         0.0536
     10 C9          3.1540   -4.0340   -0.0538 C.3       1 <0>         0.1357
     11 N1          1.9960   -4.8761   -0.4076 N.3       1 <0>        -0.6498
     12 C10         0.8285   -4.5226    0.4120 C.3       1 <0>         0.0699
     13 H1          1.1226   -4.4795    1.4607 H         1 <0>         0.1071
     14 C11         0.2782   -3.1602   -0.0173 C.3       1 <0>        -0.0846
     15 C12        -0.2414   -5.5692    0.2356 C.2       1 <0>         0.5247
     16 O1         -0.2239   -6.2967   -0.7346 O.2       1 <0>        -0.5212
     17 N2         -1.2177   -5.6966    1.1560 N.am      1 <0>        -0.7277
     18 C13        -2.2578   -6.7140    0.9845 C.3       1 <0>         0.1459
     19 C14        -3.3715   -6.1597    0.0939 C.3       1 <0>        -0.1285
     20 C15        -4.4577   -7.2222   -0.0852 C.3       1 <0>        -0.1180
     21 C16        -5.0358   -7.5959    1.2812 C.3       1 <0>        -0.1226
     22 C17        -3.9221   -8.1503    2.1718 C.3       1 <0>        -0.1167
     23 C18        -2.8359   -7.0877    2.3509 C.3       1 <0>        -0.1265
     24 H2         -0.9658    1.8697    0.0259 H         1 <0>         0.1283
     25 H3          1.1183    3.1768    0.0077 H         1 <0>         0.1358
     26 H4          3.2945    2.0106   -0.0183 H         1 <0>         0.1330
     27 H5         -0.9292   -0.5510    0.0083 H         1 <0>         0.1235
     28 H6          3.9432   -4.1643   -0.7942 H         1 <0>         0.1033
     29 H7          3.5244   -4.3139    0.9324 H         1 <0>         0.1023
     30 H8          1.7828   -4.8030   -1.3911 H         1 <0>         0.3582
     31 H9         -0.4869   -2.8339    0.6871 H         1 <0>         0.0883
     32 H10        -0.1495   -3.2347   -1.0172 H         1 <0>         0.0862
     33 H11        -1.2317   -5.1147    1.9320 H         1 <0>         0.3991
     34 H12        -1.8264   -7.5996    0.5180 H         1 <0>         0.0893
     35 H13        -3.8030   -5.2741    0.5604 H         1 <0>         0.0629
     36 H14        -2.9597   -5.8934   -0.8796 H         1 <0>         0.0664
     37 H15        -5.2512   -6.8273   -0.7197 H         1 <0>         0.0652
     38 H16        -4.0263   -8.1078   -0.5518 H         1 <0>         0.0650
     39 H17        -5.4673   -6.7103    1.7477 H         1 <0>         0.0625
     40 H18        -5.8097   -8.3529    1.1536 H         1 <0>         0.0646
     41 H19        -4.3339   -8.4165    3.1453 H         1 <0>         0.0679
     42 H20        -3.4907   -9.0359    1.7053 H         1 <0>         0.0658
     43 H21        -2.0424   -7.4826    2.9854 H         1 <0>         0.0692
     44 H22        -3.2673   -6.2021    2.8174 H         1 <0>         0.0678
@<TRIPOS>BOND
     1    1    6 ar
     2    1    2 ar
     3    1   24 1
     4    2    3 ar
     5    2   25 1
     6    3    4 ar
     7    3   26 1
     8    4    9 1
     9    4    5 ar
    10    5    6 ar
    11    5    7 1
    12    6   27 1
    13    7   14 1
    14    7    8 2
    15    8    9 1
    16    8   10 1
    17   10   11 1
    18   10   28 1
    19   10   29 1
    20   11   12 1
    21   11   30 1
    22   12   13 1
    23   12   14 1
    24   12   15 1
    25   14   31 1
    26   14   32 1
    27   15   16 2
    28   15   17 am
    29   17   18 1
    30   17   33 1
    31   18   23 1
    32   18   19 1
    33   18   34 1
    34   19   20 1
    35   19   35 1
    36   19   36 1
    37   20   21 1
    38   20   37 1
    39   20   38 1
    40   21   22 1
    41   21   39 1
    42   21   40 1
    43   22   23 1
    44   22   41 1
    45   22   42 1
    46   23   43 1
    47   23   44 1
@<TRIPOS>MOLECULE
ZINC36187798
   44    47     0     0     0
SMALL
USER_CHARGES

@<TRIPOS>ATOM
      1 C1         -0.0164    1.3552    0.0095 C.ar      1 <0>        -0.1202
      2 C2          1.1572    2.0975    0.0023 C.ar      1 <0>        -0.0962
      3 C3          2.3742    1.4455   -0.0132 C.ar      1 <0>        -0.0761
      4 C4          2.4049    0.0671   -0.0211 C.ar      1 <0>        -0.1140
      5 C5          1.2288   -0.7103   -0.0134 C.ar      1 <0>        -0.0808
      6 C6          0.0021   -0.0041    0.0020 C.ar      1 <0>        -0.0783
      7 C7          1.4322   -2.1606   -0.0223 C.2       1 <0>        -0.0965
      8 C8          2.7068   -2.6047   -0.0367 C.2       1 <0>        -0.1414
      9 S1          3.7046   -1.1418   -0.0410 S.3       1 <0>         0.0545
     10 C9          3.1541   -4.0340   -0.0453 C.3       1 <0>         0.1367
     11 N1          2.0029   -4.8800    0.3214 N.3       1 <0>        -0.6593
     12 C10         0.8201   -4.5179   -0.4720 C.3       1 <0>         0.0718
     13 H1          1.0943   -4.4635   -1.5256 H         1 <0>         0.0662
     14 C11         0.2782   -3.1602   -0.0177 C.3       1 <0>        -0.0437
     15 C12        -0.2463   -5.5664   -0.2866 C.2       1 <0>         0.5156
     16 O1         -0.2105   -6.3043    0.6752 O.2       1 <0>        -0.5155
     17 N2         -1.2400   -5.6840   -1.1895 N.am      1 <0>        -0.7272
     18 C13        -2.2767   -6.7033   -1.0093 C.3       1 <0>         0.1452
     19 C14        -1.7906   -8.0332   -1.5889 C.3       1 <0>        -0.1287
     20 C15        -2.8733   -9.0977   -1.4006 C.3       1 <0>        -0.1179
     21 C16        -4.1487   -8.6616   -2.1246 C.3       1 <0>        -0.1228
     22 C17        -4.6348   -7.3317   -1.5449 C.3       1 <0>        -0.1167
     23 C18        -3.5521   -6.2672   -1.7332 C.3       1 <0>        -0.1264
     24 H2         -0.9658    1.8697    0.0259 H         1 <0>         0.1281
     25 H3          1.1183    3.1768    0.0084 H         1 <0>         0.1354
     26 H4          3.2945    2.0106   -0.0195 H         1 <0>         0.1327
     27 H5         -0.9292   -0.5510    0.0080 H         1 <0>         0.1241
     28 H6          3.5057   -4.3032   -1.0413 H         1 <0>         0.0607
     29 H7          3.9573   -4.1722    0.6785 H         1 <0>         0.1054
     30 H8          2.2246   -5.8585    0.2141 H         1 <0>         0.3608
     31 H9         -0.1304   -3.2456    0.9892 H         1 <0>         0.0922
     32 H10        -0.5001   -2.8264   -0.7040 H         1 <0>         0.0841
     33 H11        -1.2687   -5.0938   -1.9588 H         1 <0>         0.3996
     34 H12        -2.4857   -6.8250    0.0536 H         1 <0>         0.0895
     35 H13        -1.5816   -7.9116   -2.6518 H         1 <0>         0.0630
     36 H14        -0.8820   -8.3440   -1.0732 H         1 <0>         0.0667
     37 H15        -2.5271  -10.0452   -1.8136 H         1 <0>         0.0656
     38 H16        -3.0823   -9.2194   -0.3378 H         1 <0>         0.0651
     39 H17        -3.9397   -8.5400   -3.1874 H         1 <0>         0.0626
     40 H18        -4.9201   -9.4200   -1.9904 H         1 <0>         0.0650
     41 H19        -5.5434   -7.0210   -2.0606 H         1 <0>         0.0681
     42 H20        -4.8438   -7.4533   -0.4821 H         1 <0>         0.0659
     43 H21        -3.8983   -5.3197   -1.3202 H         1 <0>         0.0691
     44 H22        -3.3431   -6.1455   -2.7960 H         1 <0>         0.0680
@<TRIPOS>BOND
     1    1    6 ar
     2    1    2 ar
     3    1   24 1
     4    2    3 ar
     5    2   25 1
     6    3    4 ar
     7    3   26 1
     8    4    9 1
     9    4    5 ar
    10    5    6 ar
    11    5    7 1
    12    6   27 1
    13    7   14 1
    14    7    8 2
    15    8    9 1
    16    8   10 1
    17   10   11 1
    18   10   28 1
    19   10   29 1
    20   11   12 1
    21   11   30 1
    22   12   13 1
    23   12   14 1
    24   12   15 1
    25   14   31 1
    26   14   32 1
    27   15   16 2
    28   15   17 am
    29   17   18 1
    30   17   33 1
    31   18   23 1
    32   18   19 1
    33   18   34 1
    34   19   20 1
    35   19   35 1
    36   19   36 1
    37   20   21 1
    38   20   37 1
    39   20   38 1
    40   21   22 1
    41   21   39 1
    42   21   40 1
    43   22   23 1
    44   22   41 1
    45   22   42 1
    46   23   43 1
    47   23   44 1
@<TRIPOS>MOLECULE
ZINC53151260
   56    58     0     0     0
SMALL
USER_CHARGES

@<TRIPOS>ATOM
      1 C1         -0.0173    1.4248    0.0099 C.3       1 <0>         0.0253
      2 O1          0.0021   -0.0041    0.0020 O.3       1 <0>        -0.3058
      3 C2          0.6063   -0.6076   -1.0566 C.ar      1 <0>         0.1176
      4 C3          1.1727    0.1584   -2.0619 C.ar      1 <0>        -0.2068
      5 C4          1.7862   -0.4565   -3.1379 C.ar      1 <0>        -0.0839
      6 C5          1.8369   -1.8361   -3.2138 C.ar      1 <0>        -0.1510
      7 C6          1.2745   -2.6077   -2.2144 C.ar      1 <0>        -0.0867
      8 C7          0.6620   -1.9977   -1.1294 C.ar      1 <0>         0.1387
      9 N1          0.0968   -2.7768   -0.1132 N.pl3     1 <0>        -0.6690
     10 C8         -1.3056   -3.2137   -0.1884 C.3       1 <0>         0.1538
     11 C9         -2.0009   -2.8467    1.1270 C.3       1 <0>         0.0435
     12 N2         -1.2370   -3.4016    2.2523 N.3       1 <0>        -0.5302
     13 C10         0.1078   -2.8148    2.3243 C.3       1 <0>         0.0369
     14 C11         0.8913   -3.1855    1.0551 C.3       1 <0>         0.1539
     15 C12        -1.9589   -3.2205    3.5188 C.3       1 <0>         0.0464
     16 C13        -1.2629   -4.0209    4.6215 C.3       1 <0>         0.1212
     17 N3         -1.9828   -3.8404    5.8846 N.am      1 <0>        -0.7324
     18 C14        -1.5480   -4.4558    7.0020 C.2       1 <0>         0.5174
     19 O2         -0.5608   -5.1591    6.9619 O.2       1 <0>        -0.5353
     20 C15        -2.2886   -4.2701    8.3013 C.3       1 <0>        -0.1055
     21 C16        -2.2972   -2.7866    8.6758 C.3       1 <0>        -0.1099
     22 C17        -3.0491   -2.5981    9.9949 C.3       1 <0>        -0.1184
     23 C18        -2.3531   -3.3985   11.0976 C.3       1 <0>        -0.1233
     24 C19        -2.3445   -4.8819   10.7230 C.3       1 <0>        -0.1206
     25 C20        -1.5926   -5.0705    9.4039 C.3       1 <0>        -0.0998
     26 H1          1.0053    1.8021    0.0021 H         1 <0>         0.0540
     27 H2         -0.5445    1.7859   -0.8732 H         1 <0>         0.0540
     28 H3         -0.5275    1.7763    0.9067 H         1 <0>         0.0967
     29 H4          1.1348    1.2363   -2.0057 H         1 <0>         0.1267
     30 H5          2.2267    0.1425   -3.9212 H         1 <0>         0.1244
     31 H6          2.3168   -2.3119   -4.0562 H         1 <0>         0.1248
     32 H7          1.3151   -3.6852   -2.2764 H         1 <0>         0.1292
     33 H8         -1.8021   -2.7100   -1.0179 H         1 <0>         0.0697
     34 H9         -1.3456   -4.2930   -0.3350 H         1 <0>         0.0578
     35 H10        -2.0515   -1.7620    1.2213 H         1 <0>         0.0407
     36 H11        -3.0095   -3.2602    1.1329 H         1 <0>         0.0779
     37 H12         0.0278   -1.7305    2.4020 H         1 <0>         0.0413
     38 H13         0.6286   -3.2051    3.1987 H         1 <0>         0.0802
     39 H14         1.0584   -4.2622    1.0257 H         1 <0>         0.0586
     40 H15         1.8480   -2.6633    1.0481 H         1 <0>         0.0695
     41 H16        -1.9650   -2.1637    3.7857 H         1 <0>         0.0385
     42 H17        -2.9842   -3.5728    3.4062 H         1 <0>         0.0803
     43 H18        -1.2568   -5.0777    4.3546 H         1 <0>         0.0771
     44 H19        -0.2376   -3.6687    4.7342 H         1 <0>         0.0675
     45 H20        -2.7724   -3.2779    5.9166 H         1 <0>         0.3991
     46 H21        -3.3140   -4.6223    8.1886 H         1 <0>         0.0972
     47 H22        -1.2719   -2.4344    8.7885 H         1 <0>         0.0682
     48 H23        -2.7931   -2.2164    7.8903 H         1 <0>         0.0649
     49 H24        -3.0552   -1.5413   10.2618 H         1 <0>         0.0660
     50 H25        -4.0744   -2.9503    9.8823 H         1 <0>         0.0647
     51 H26        -1.3278   -3.0462   11.2102 H         1 <0>         0.0630
     52 H27        -2.8888   -3.2641   12.0373 H         1 <0>         0.0635
     53 H28        -1.8487   -5.4521   11.5086 H         1 <0>         0.0665
     54 H29        -3.3699   -5.2341   10.6104 H         1 <0>         0.0627
     55 H30        -1.5865   -6.1273    9.1371 H         1 <0>         0.0697
     56 H31        -0.5673   -4.7182    9.5166 H         1 <0>         0.0698
@<TRIPOS>BOND
     1    1    2 1
     2    1   26 1
     3    1   27 1
     4    1   28 1
     5    2    3 1
     6    3    8 ar
     7    3    4 ar
     8    4    5 ar
     9    4   29 1
    10    5    6 ar
    11    5   30 1
    12    6    7 ar
    13    6   31 1
    14    7    8 ar
    15    7   32 1
    16    8    9 1
    17    9   14 1
    18    9   10 1
    19   10   11 1
    20   10   33 1
    21   10   34 1
    22   11   12 1
    23   11   35 1
    24   11   36 1
    25   12   13 1
    26   12   15 1
    27   13   14 1
    28   13   37 1
    29   13   38 1
    30   14   39 1
    31   14   40 1
    32   15   16 1
    33   15   41 1
    34   15   42 1
    35   16   17 1
    36   16   43 1
    37   16   44 1
    38   17   18 am
    39   17   45 1
    40   18   19 2
    41   18   20 1
    42   20   25 1
    43   20   21 1
    44   20   46 1
    45   21   22 1
    46   21   47 1
    47   21   48 1
    48   22   23 1
    49   22   49 1
    50   22   50 1
    51   23   24 1
    52   23   51 1
    53   23   52 1
    54   24   25 1
    55   24   53 1
    56   24   54 1
    57   25   55 1
    58   25   56 1
@<TRIPOS>MOLECULE
ZINC00020245
   46    48     0     0     0
SMALL
USER_CHARGES

@<TRIPOS>ATOM
      1 C1         -5.6836    1.3838    0.0162 C.3       1 <0>        -0.0473
      2 N1         -5.6620   -0.0833   -0.0564 N.4       1 <0>        -0.3868
      3 C2         -6.3713   -0.5242   -1.2649 C.3       1 <0>        -0.0522
      4 C3         -4.2702   -0.5505   -0.1076 C.3       1 <0>        -0.0086
      5 C4         -4.2434   -2.0795   -0.0575 C.3       1 <0>        -0.1781
      6 C5         -2.7938   -2.5661   -0.1108 C.3       1 <0>         0.1490
      7 N2         -2.7704   -4.0309   -0.1190 N.pl3     1 <0>        -0.6108
      8 C6         -2.7295   -4.7451   -1.3212 C.ar      1 <0>         0.1758
      9 C7         -1.6865   -4.4783   -2.2022 C.ar      1 <0>        -0.1411
     10 C8         -1.5734   -5.1772   -3.3856 C.ar      1 <0>        -0.1022
     11 C9         -2.5089   -6.1508   -3.6854 C.ar      1 <0>        -0.1266
     12 C10        -3.5489   -6.4041   -2.8209 C.ar      1 <0>        -0.1101
     13 C11        -3.6933   -5.6947   -1.6266 C.ar      1 <0>        -0.0998
     14 C12        -4.9357   -6.0340   -0.8354 C.3       1 <0>        -0.0687
     15 C13        -5.1005   -5.1892    0.4158 C.3       1 <0>        -0.0773
     16 C14        -3.9592   -5.4030    1.3779 C.ar      1 <0>        -0.0996
     17 C15        -2.7824   -4.7590    1.0748 C.ar      1 <0>         0.1523
     18 C16        -1.6837   -4.8488    1.9126 C.ar      1 <0>        -0.1184
     19 C17        -1.7825   -5.6251    3.0560 C.ar      1 <0>        -0.1094
     20 C18        -2.9565   -6.2950    3.3488 C.ar      1 <0>        -0.1165
     21 C19        -4.0679   -6.1865    2.5030 C.ar      1 <0>        -0.1028
     22 H1         -6.7163    1.7305    0.0542 H         1 <0>         0.1245
     23 H2         -5.1573    1.7109    0.9129 H         1 <0>         0.1235
     24 H3         -5.1933    1.7984   -0.8646 H         1 <0>         0.1221
     25 H4         -6.3552   -1.6128   -1.3188 H         1 <0>         0.1231
     26 H5         -7.4040   -0.1775   -1.2269 H         1 <0>         0.1246
     27 H6         -5.8810   -0.1096   -2.1457 H         1 <0>         0.1227
     28 H7         -3.8061   -0.2091   -1.0329 H         1 <0>         0.1308
     29 H8         -3.7207   -0.1494    0.7440 H         1 <0>         0.1320
     30 H9         -4.7075   -2.4209    0.8678 H         1 <0>         0.0908
     31 H10        -4.7929   -2.4806   -0.9091 H         1 <0>         0.0915
     32 H11        -2.3174   -2.1901   -1.0161 H         1 <0>         0.0824
     33 H12        -2.2550   -2.1990    0.7627 H         1 <0>         0.0801
     34 H13        -0.9599   -3.7176   -1.9576 H         1 <0>         0.1215
     35 H14        -0.7646   -4.9667   -4.0697 H         1 <0>         0.1276
     36 H15        -2.4229   -6.7145   -4.6025 H         1 <0>         0.1250
     37 H16        -4.2693   -7.1687   -3.0712 H         1 <0>         0.1222
     38 H17        -5.8074   -5.8880   -1.4734 H         1 <0>         0.0793
     39 H18        -4.8898   -7.0837   -0.5452 H         1 <0>         0.0765
     40 H19        -5.1365   -4.1371    0.1334 H         1 <0>         0.0724
     41 H20        -6.0358   -5.4578    0.9068 H         1 <0>         0.0709
     42 H21        -0.7686   -4.3248    1.6795 H         1 <0>         0.1257
     43 H22        -0.9372   -5.7074    3.7231 H         1 <0>         0.1275
     44 H23        -3.0178   -6.9071    4.2365 H         1 <0>         0.1269
     45 H24        -4.9880   -6.7067    2.7249 H         1 <0>         0.1290
     46 H25        -6.1159   -0.4671    0.7589 H         1 <0>         0.4268
@<TRIPOS>BOND
     1    1    2 1
     2    1   22 1
     3    1   23 1
     4    1   24 1
     5    2    3 1
     6    2    4 1
     7    2   46 1
     8    3   25 1
     9    3   26 1
    10    3   27 1
    11    4    5 1
    12    4   28 1
    13    4   29 1
    14    5    6 1
    15    5   30 1
    16    5   31 1
    17    6    7 1
    18    6   32 1
    19    6   33 1
    20    7   17 1
    21    7    8 1
    22    8   13 ar
    23    8    9 ar
    24    9   10 ar
    25    9   34 1
    26   10   11 ar
    27   10   35 1
    28   11   12 ar
    29   11   36 1
    30   12   13 ar
    31   12   37 1
    32   13   14 1
    33   14   15 1
    34   14   38 1
    35   14   39 1
    36   15   16 1
    37   15   40 1
    38   15   41 1
    39   16   21 ar
    40   16   17 ar
    41   17   18 ar
    42   18   19 ar
    43   18   42 1
    44   19   20 ar
    45   19   43 1
    46   20   21 ar
    47   20   44 1
    48   21   45 1
@<TRIPOS>MOLECULE
ZINC01851149
   58    61     0     0     0
SMALL
USER_CHARGES

@<TRIPOS>ATOM
      1 C1         -0.0167    1.3781    0.0096 C.ar      1 <0>        -0.0896
      2 C2          1.1690    2.0873    0.0021 C.ar      1 <0>        -0.1006
      3 C3          2.3816    1.4109   -0.0131 C.ar      1 <0>         0.1668
      4 C4          2.3986    0.0211   -0.0208 C.ar      1 <0>        -0.0379
      5 C5          1.2084   -0.6828   -0.0132 C.ar      1 <0>        -0.0271
      6 C6          0.0021   -0.0041    0.0020 C.ar      1 <0>        -0.0892
      7 Cl1         1.2271   -2.4187   -0.0233 Cl        1 <0>        -0.0322
      8 Cl2         3.9117   -0.8297   -0.0404 Cl        1 <0>        -0.0503
      9 N1          3.5822    2.1260   -0.0212 N.pl3     1 <0>        -0.6733
     10 C7          4.2166    2.5248   -1.2872 C.3       1 <0>         0.1212
     11 C8          5.6874    2.0967   -1.2494 C.3       1 <0>        -0.0255
     12 N2          6.3270    2.6517   -0.0498 N.4       1 <0>        -0.3792
     13 C9          5.7166    2.0749    1.1547 C.3       1 <0>        -0.0318
     14 C10         4.2444    2.5067    1.2361 C.3       1 <0>         0.1223
     15 C11         7.7610    2.3338   -0.0701 C.3       1 <0>        -0.0093
     16 C12         8.4515    3.0158    1.1127 C.3       1 <0>        -0.1453
     17 C13         9.9450    2.6847    1.0915 C.3       1 <0>        -0.1184
     18 C14        10.6355    3.3667    2.2743 C.3       1 <0>         0.0595
     19 O1         12.0305    3.0574    2.2545 O.3       1 <0>        -0.3124
     20 C15        12.7944    3.5890    3.2448 C.ar      1 <0>         0.1559
     21 C16        12.2111    4.3876    4.2189 C.ar      1 <0>        -0.2294
     22 C17        12.9865    4.9295    5.2261 C.ar      1 <0>        -0.0411
     23 C18        14.3441    4.6777    5.2669 C.ar      1 <0>        -0.1551
     24 C19        14.9331    3.8788    4.2952 C.ar      1 <0>         0.2059
     25 C20        14.1552    3.3295    3.2858 C.ar      1 <0>        -0.1852
     26 N3         16.3074    3.6248    4.3397 N.am      1 <0>        -0.6651
     27 C21        17.0003    3.8176    5.4770 C.2       1 <0>         0.5216
     28 O2         18.1945    3.6066    5.4945 O.2       1 <0>        -0.5157
     29 C22        16.3105    4.2925    6.7275 C.3       1 <0>        -0.1402
     30 C23        15.1900    5.2680    6.3653 C.3       1 <0>        -0.0752
     31 H1         -0.9596    1.9044    0.0260 H         1 <0>         0.1477
     32 H2          1.1527    3.1672    0.0077 H         1 <0>         0.1420
     33 H3         -0.9265   -0.5556    0.0083 H         1 <0>         0.1502
     34 H4          3.7134    2.0333   -2.1198 H         1 <0>         0.1171
     35 H5          4.1529    3.6066   -1.4040 H         1 <0>         0.0851
     36 H6          5.7487    1.0088   -1.2236 H         1 <0>         0.1293
     37 H7          6.1971    2.4687   -2.1381 H         1 <0>         0.1401
     38 H8          5.7771    0.9876    1.1077 H         1 <0>         0.1300
     39 H9          6.2479    2.4307    2.0374 H         1 <0>         0.1398
     40 H10         4.1834    3.5868    1.3697 H         1 <0>         0.0853
     41 H11         3.7595    2.0032    2.0724 H         1 <0>         0.1165
     42 H12         7.8950    1.2546    0.0040 H         1 <0>         0.1305
     43 H13         8.1993    2.6912   -1.0020 H         1 <0>         0.1352
     44 H14         8.3175    4.0950    1.0386 H         1 <0>         0.0923
     45 H15         8.0132    2.6584    2.0445 H         1 <0>         0.0907
     46 H16        10.0790    1.6055    1.1656 H         1 <0>         0.0866
     47 H17        10.3833    3.0420    0.1597 H         1 <0>         0.0875
     48 H18        10.5015    4.4459    2.2002 H         1 <0>         0.0675
     49 H19        10.1972    3.0093    3.2062 H         1 <0>         0.0669
     50 H20        11.1499    4.5859    4.1893 H         1 <0>         0.1286
     51 H21        12.5305    5.5511    5.9824 H         1 <0>         0.1354
     52 H22        14.6099    2.7045    2.5314 H         1 <0>         0.1380
     53 H23        16.7645    3.3072    3.5453 H         1 <0>         0.4136
     54 H24        15.8894    3.4371    7.2558 H         1 <0>         0.1060
     55 H25        17.0331    4.7940    7.3713 H         1 <0>         0.1134
     56 H26        15.6229    6.2086    6.0246 H         1 <0>         0.0845
     57 H27        14.5699    5.4506    7.2429 H         1 <0>         0.0936
     58 H28         6.2073    3.6535   -0.0392 H         1 <0>         0.4226
@<TRIPOS>BOND
     1    1    6 ar
     2    1    2 ar
     3    1   31 1
     4    2    3 ar
     5    2   32 1
     6    3    4 ar
     7    3    9 1
     8    4    5 ar
     9    4    8 1
    10    5    6 ar
    11    5    7 1
    12    6   33 1
    13    9   14 1
    14    9   10 1
    15   10   11 1
    16   10   34 1
    17   10   35 1
    18   11   12 1
    19   11   36 1
    20   11   37 1
    21   12   13 1
    22   12   15 1
    23   12   58 1
    24   13   14 1
    25   13   38 1
    26   13   39 1
    27   14   40 1
    28   14   41 1
    29   15   16 1
    30   15   42 1
    31   15   43 1
    32   16   17 1
    33   16   44 1
    34   16   45 1
    35   17   18 1
    36   17   46 1
    37   17   47 1
    38   18   19 1
    39   18   48 1
    40   18   49 1
    41   19   20 1
    42   20   25 ar
    43   20   21 ar
    44   21   22 ar
    45   21   50 1
    46   22   23 ar
    47   22   51 1
    48   23   30 1
    49   23   24 ar
    50   24   25 ar
    51   24   26 1
    52   25   52 1
    53   26   27 am
    54   26   53 1
    55   27   28 2
    56   27   29 1
    57   29   30 1
    58   29   54 1
    59   29   55 1
    60   30   56 1
    61   30   57 1
@<TRIPOS>MOLECULE
ZINC01851149
   57    60     0     0     0
SMALL
USER_CHARGES

@<TRIPOS>ATOM
      1 C1         -0.0167    1.3781    0.0096 C.ar      1 <0>        -0.0962
      2 C2          1.1690    2.0873    0.0021 C.ar      1 <0>        -0.1094
      3 C3          2.3816    1.4109   -0.0131 C.ar      1 <0>         0.1932
      4 C4          2.3986    0.0211   -0.0208 C.ar      1 <0>        -0.0428
      5 C5          1.2084   -0.6828   -0.0132 C.ar      1 <0>        -0.0286
      6 C6          0.0021   -0.0041    0.0020 C.ar      1 <0>        -0.1045
      7 Cl1         1.2271   -2.4187   -0.0233 Cl        1 <0>        -0.0488
      8 Cl2         3.9117   -0.8297   -0.0404 Cl        1 <0>        -0.0433
      9 N1          3.5822    2.1260   -0.0212 N.pl3     1 <0>        -0.6753
     10 C7          4.2154    2.5239   -1.2877 C.3       1 <0>         0.1522
     11 C8          5.6814    2.0786   -1.2601 C.3       1 <0>         0.0390
     12 N2          6.3271    2.6054   -0.0504 N.3       1 <0>        -0.5335
     13 C9          5.7110    2.0562    1.1648 C.3       1 <0>         0.0352
     14 C10         4.2431    2.5059    1.2366 C.3       1 <0>         0.1520
     15 C11         7.7731    2.3471   -0.0705 C.3       1 <0>         0.0570
     16 C12         8.4448    3.1181    1.0676 C.3       1 <0>        -0.1122
     17 C13         9.9508    2.8491    1.0467 C.3       1 <0>        -0.1185
     18 C14        10.6225    3.6201    2.1847 C.3       1 <0>         0.0609
     19 O1         12.0291    3.3688    2.1652 O.3       1 <0>        -0.3131
     20 C15        12.7788    3.9828    3.1179 C.ar      1 <0>         0.1632
     21 C16        12.1712    4.8060    4.0560 C.ar      1 <0>        -0.2281
     22 C17        12.9321    5.4316    5.0250 C.ar      1 <0>        -0.0412
     23 C18        14.2995    5.2392    5.0634 C.ar      1 <0>        -0.1625
     24 C19        14.9129    4.4161    4.1277 C.ar      1 <0>         0.2001
     25 C20        14.1497    3.7829    3.1569 C.ar      1 <0>        -0.1880
     26 N3         16.2971    4.2225    4.1697 N.am      1 <0>        -0.6633
     27 C21        16.9915    4.5031    5.2876 C.2       1 <0>         0.5225
     28 O2         18.1937    4.3433    5.3024 O.2       1 <0>        -0.5237
     29 C22        16.2937    5.0132    6.5196 C.3       1 <0>        -0.1395
     30 C23        15.1296    5.9209    6.1201 C.3       1 <0>        -0.0723
     31 H1         -0.9596    1.9044    0.0260 H         1 <0>         0.1404
     32 H2          1.1527    3.1672    0.0077 H         1 <0>         0.1387
     33 H3         -0.9265   -0.5556    0.0083 H         1 <0>         0.1426
     34 H4          3.7022    2.0431   -2.1205 H         1 <0>         0.0715
     35 H5          4.1638    3.6071   -1.3984 H         1 <0>         0.0629
     36 H6          5.7306    0.9897   -1.2538 H         1 <0>         0.0403
     37 H7          6.1944    2.4613   -2.1423 H         1 <0>         0.0804
     38 H8          5.7599    0.9676    1.1373 H         1 <0>         0.0406
     39 H9          6.2457    2.4226    2.0412 H         1 <0>         0.0819
     40 H10         4.1941    3.5874    1.3639 H         1 <0>         0.0629
     41 H11         3.7483    2.0131    2.0736 H         1 <0>         0.0709
     42 H12         7.9533    1.2798    0.0578 H         1 <0>         0.0339
     43 H13         8.1873    2.6734   -1.0245 H         1 <0>         0.0769
     44 H14         8.2646    4.1855    0.9393 H         1 <0>         0.0762
     45 H15         8.0306    2.7918    2.0216 H         1 <0>         0.0660
     46 H16        10.1310    1.7817    1.1750 H         1 <0>         0.0732
     47 H17        10.3650    3.1754    0.0927 H         1 <0>         0.0761
     48 H18        10.4423    4.6874    2.0565 H         1 <0>         0.0659
     49 H19        10.2083    3.2938    3.1387 H         1 <0>         0.0641
     50 H20        11.1023    4.9580    4.0282 H         1 <0>         0.1320
     51 H21        12.4571    6.0722    5.7533 H         1 <0>         0.1337
     52 H22        14.6236    3.1389    2.4308 H         1 <0>         0.1367
     53 H23        16.7599    3.8832    3.3877 H         1 <0>         0.4126
     54 H24        15.9140    4.1697    7.0961 H         1 <0>         0.1050
     55 H25        17.0002    5.5774    7.1284 H         1 <0>         0.1106
     56 H26        15.5192    6.8597    5.7264 H         1 <0>         0.0818
     57 H27        14.5104    6.1229    6.9941 H         1 <0>         0.0917
@<TRIPOS>BOND
     1    1    6 ar
     2    1    2 ar
     3    1   31 1
     4    2    3 ar
     5    2   32 1
     6    3    4 ar
     7    3    9 1
     8    4    5 ar
     9    4    8 1
    10    5    6 ar
    11    5    7 1
    12    6   33 1
    13    9   14 1
    14    9   10 1
    15   10   11 1
    16   10   34 1
    17   10   35 1
    18   11   12 1
    19   11   36 1
    20   11   37 1
    21   12   13 1
    22   12   15 1
    23   13   14 1
    24   13   38 1
    25   13   39 1
    26   14   40 1
    27   14   41 1
    28   15   16 1
    29   15   42 1
    30   15   43 1
    31   16   17 1
    32   16   44 1
    33   16   45 1
    34   17   18 1
    35   17   46 1
    36   17   47 1
    37   18   19 1
    38   18   48 1
    39   18   49 1
    40   19   20 1
    41   20   25 ar
    42   20   21 ar
    43   21   22 ar
    44   21   50 1
    45   22   23 ar
    46   22   51 1
    47   23   30 1
    48   23   24 ar
    49   24   25 ar
    50   24   26 1
    51   25   52 1
    52   26   27 am
    53   26   53 1
    54   27   28 2
    55   27   29 1
    56   29   30 1
    57   29   54 1
    58   29   55 1
    59   30   56 1
    60   30   57 1
@<TRIPOS>MOLECULE
ZINC02568290
   29    31     0     0     0
SMALL
USER_CHARGES

@<TRIPOS>ATOM
      1 C1          2.6263   -1.6012    3.5769 C.ar      1 <0>        -0.1186
      2 C2          3.6377   -0.6760    3.3483 C.ar      1 <0>        -0.0679
      3 C3          3.9136   -0.2683    2.0698 C.ar      1 <0>        -0.0725
      4 C4          3.1814   -0.7831    1.0209 C.ar      1 <0>        -0.1318
      5 C5          2.1473   -1.7252    1.2248 C.ar      1 <0>        -0.1456
      6 C6          1.8930   -2.1204    2.5550 C.ar      1 <0>        -0.0447
      7 C7          1.5160   -2.1252   -0.0237 C.2       1 <0>         0.3631
      8 N1          1.9319   -1.6135   -1.1449 N.2       1 <0>        -0.4438
      9 S1          3.1728   -0.5662   -0.7370 S.3       1 <0>         0.2493
     10 N2          0.4719   -3.0515   -0.0182 N.pl3     1 <0>        -0.6557
     11 C8         -0.9273   -2.6134    0.1017 C.3       1 <0>         0.1215
     12 C9         -1.7410   -3.2754   -1.0152 C.3       1 <0>        -0.0239
     13 N3         -1.5546   -4.7307   -0.9586 N.4       1 <0>        -0.5018
     14 C10        -0.1529   -5.0667   -1.2386 C.3       1 <0>        -0.0236
     15 C11         0.7391   -4.4931   -0.1384 C.3       1 <0>         0.1209
     16 H1          2.4206   -1.9188    4.5884 H         1 <0>         0.1367
     17 H2          4.2049   -0.2788    4.1770 H         1 <0>         0.1440
     18 H3          4.6980    0.4507    1.8851 H         1 <0>         0.1424
     19 H4          1.1130   -2.8379    2.7631 H         1 <0>         0.1273
     20 H5         -1.3236   -2.9146    1.0714 H         1 <0>         0.0884
     21 H6         -0.9816   -1.5294    0.0013 H         1 <0>         0.1158
     22 H7         -2.7970   -3.0388   -0.8847 H         1 <0>         0.1432
     23 H8         -1.4017   -2.9028   -1.9818 H         1 <0>         0.1345
     24 H9         -1.8020   -5.0647   -0.0391 H         1 <0>         0.4276
     25 H10        -0.0387   -6.1502   -1.2728 H         1 <0>         0.1435
     26 H11         0.1383   -4.6400   -2.1984 H         1 <0>         0.1343
     27 H12         1.7859   -4.6512   -0.3976 H         1 <0>         0.1159
     28 H13         0.5139   -4.9874    0.8066 H         1 <0>         0.0880
     29 H14        -2.1485   -5.1716   -1.6449 H         1 <0>         0.4333
@<TRIPOS>BOND
     1    1    6 ar
     2    1    2 ar
     3    1   16 1
     4    2    3 ar
     5    2   17 1
     6    3    4 ar
     7    3   18 1
     8    4    9 1
     9    4    5 ar
    10    5    6 ar
    11    5    7 1
    12    6   19 1
    13    7    8 2
    14    7   10 1
    15    8    9 1
    16   10   15 1
    17   10   11 1
    18   11   12 1
    19   11   20 1
    20   11   21 1
    21   12   13 1
    22   12   22 1
    23   12   23 1
    24   13   14 1
    25   13   24 1
    26   13   29 1
    27   14   15 1
    28   14   25 1
    29   14   26 1
    30   15   27 1
    31   15   28 1
@<TRIPOS>MOLECULE
ZINC03650259
   47    48     0     0     0
SMALL
USER_CHARGES
8-methoxy-N,N-dipropyl-tetralin-2-amine
@<TRIPOS>ATOM
      1 C1         -7.6637    2.4009    2.4950 C.3       1 <0>        -0.1552
      2 C2         -6.2948    2.9595    2.1015 C.3       1 <0>        -0.1477
      3 C3         -6.2805    3.2652    0.6024 C.3       1 <0>        -0.0145
      4 C4         -4.8308    5.1864    0.8676 C.3       1 <0>        -0.0157
      5 C5         -5.9233    6.1304    0.3614 C.3       1 <0>        -0.1486
      6 C6         -5.6791    7.5360    0.9143 C.3       1 <0>        -0.1560
      7 C7         -3.8762    2.9790    0.5867 C.3       1 <0>         0.0265
      8 H1         -3.8807    2.7880    1.6598 H         1 <0>         0.1435
      9 C8         -4.0142    1.6554   -0.1748 C.3       1 <0>        -0.1402
     10 C9         -2.9878    0.6705    0.3813 C.3       1 <0>        -0.0757
     11 C10        -1.6156    1.2920    0.4000 C.ar      1 <0>        -0.0465
     12 C11        -0.5227    0.4426    0.5223 C.ar      1 <0>        -0.1520
     13 C12         0.7602    0.9482    0.5639 C.ar      1 <0>        -0.0641
     14 C13         0.9640    2.3127    0.4879 C.ar      1 <0>        -0.2046
     15 C14        -0.1218    3.1630    0.3675 C.ar      1 <0>         0.1378
     16 C15        -1.4178    2.6513    0.3249 C.ar      1 <0>        -0.1229
     17 C16        -2.5541    3.6301    0.1855 C.3       1 <0>        -0.0810
     18 O1          0.0770    4.5052    0.2909 O.3       1 <0>        -0.3200
     19 C17         1.4292    4.9646    0.3408 C.3       1 <0>         0.0242
     20 H2         -7.6739    2.1832    3.5630 H         1 <0>         0.0765
     21 H3         -8.4354    3.1361    2.2667 H         1 <0>         0.0662
     22 H4         -7.8571    1.4856    1.9357 H         1 <0>         0.0669
     23 H5         -5.5231    2.2244    2.3298 H         1 <0>         0.0855
     24 H6         -6.1015    3.8749    2.6608 H         1 <0>         0.0843
     25 H7         -7.0868    3.9593    0.3654 H         1 <0>         0.1314
     26 H8         -6.4202    2.3409    0.0418 H         1 <0>         0.1301
     27 H9         -4.9118    5.0842    1.9498 H         1 <0>         0.1315
     28 H10        -3.8523    5.5935    0.6133 H         1 <0>         0.1316
     29 H11        -5.9020    6.1597   -0.7280 H         1 <0>         0.0842
     30 H12        -6.8968    5.7723    0.6962 H         1 <0>         0.0860
     31 H13        -4.7056    7.8941    0.5794 H         1 <0>         0.0669
     32 H14        -6.4573    8.2085    0.5536 H         1 <0>         0.0768
     33 H15        -5.7004    7.5067    2.0037 H         1 <0>         0.0665
     34 H16        -5.0188    1.2556   -0.0370 H         1 <0>         0.0935
     35 H17        -3.8268    1.8210   -1.2357 H         1 <0>         0.0927
     36 H18        -3.2727    0.3885    1.3949 H         1 <0>         0.0911
     37 H19        -2.9670   -0.2199   -0.2470 H         1 <0>         0.0995
     38 H20        -0.6789   -0.6244    0.5810 H         1 <0>         0.1301
     39 H21         1.6030    0.2792    0.6561 H         1 <0>         0.1334
     40 H22         1.9661    2.7141    0.5219 H         1 <0>         0.1355
     41 H23        -2.3679    4.4908    0.8279 H         1 <0>         0.0989
     42 H24        -2.6171    3.9626   -0.8506 H         1 <0>         0.0917
     43 H25         1.9890    4.5377   -0.4913 H         1 <0>         0.0610
     44 H26         1.4463    6.0522    0.2702 H         1 <0>         0.1061
     45 H27         1.8839    4.6545    1.2817 H         1 <0>         0.0607
     46 N1         -4.9915    3.8726    0.2095 N.4       1 <0>        -0.3920
     47 H28        -4.9823    4.0062   -0.8084 H         1 <0>         0.4261
@<TRIPOS>BOND
     1    1    2 1
     2    1   20 1
     3    1   21 1
     4    1   22 1
     5    2    3 1
     6    2   23 1
     7    2   24 1
     8    3   25 1
     9    3   26 1
    10    3   46 1
    11    4    5 1
    12    4   27 1
    13    4   28 1
    14    4   46 1
    15    5    6 1
    16    5   29 1
    17    5   30 1
    18    6   31 1
    19    6   32 1
    20    6   33 1
    21    7    8 1
    22    7   17 1
    23    7    9 1
    24    7   46 1
    25    9   10 1
    26    9   34 1
    27    9   35 1
    28   10   11 1
    29   10   36 1
    30   10   37 1
    31   11   16 ar
    32   11   12 ar
    33   12   13 ar
    34   12   38 1
    35   13   14 ar
    36   13   39 1
    37   14   15 ar
    38   14   40 1
    39   15   16 ar
    40   15   18 1
    41   16   17 1
    42   17   41 1
    43   17   42 1
    44   18   19 1
    45   19   43 1
    46   19   44 1
    47   19   45 1
    48   46   47 1
@<TRIPOS>MOLECULE
ZINC03650260
   47    48     0     0     0
SMALL
USER_CHARGES
8-methoxy-N,N-dipropyl-tetralin-2-amine
@<TRIPOS>ATOM
      1 C1         -3.3141    1.9397    0.8841 C.3       1 <0>        -0.1553
      2 C2         -2.3652    1.3885    1.9503 C.3       1 <0>        -0.1489
      3 C3         -0.9173    1.6088    1.5075 C.3       1 <0>        -0.0129
      4 C4         -0.0425   -0.3234    2.6753 C.3       1 <0>        -0.0166
      5 C5          0.7353   -0.9451    1.5135 C.3       1 <0>        -0.1487
      6 C6          0.6323   -2.4697    1.5888 C.3       1 <0>        -0.1556
      7 C7         -0.3183    1.7772    3.8475 C.3       1 <0>         0.0267
      8 H1         -1.2951    1.4417    4.1959 H         1 <0>         0.1434
      9 C8         -0.3246    3.3014    3.6815 C.3       1 <0>        -0.1415
     10 C9         -0.8803    3.9230    4.9610 C.3       1 <0>        -0.0758
     11 C10        -0.1632    3.3801    6.1694 C.ar      1 <0>        -0.0463
     12 C11        -0.2747    4.0883    7.3597 C.ar      1 <0>        -0.1520
     13 C12         0.3473    3.6395    8.5064 C.ar      1 <0>        -0.0640
     14 C13         1.0898    2.4747    8.4747 C.ar      1 <0>        -0.2046
     15 C14         1.2060    1.7672    7.2905 C.ar      1 <0>         0.1379
     16 C15         0.5785    2.2220    6.1318 C.ar      1 <0>        -0.1229
     17 C16         0.7491    1.4083    4.8758 C.3       1 <0>        -0.0806
     18 O1          1.9362    0.6215    7.2574 O.3       1 <0>        -0.3201
     19 C17         2.5537    0.2102    8.4788 C.3       1 <0>         0.0243
     20 H2         -4.3455    1.7827    1.1995 H         1 <0>         0.0767
     21 H3         -3.1326    3.0064    0.7527 H         1 <0>         0.0666
     22 H4         -3.1400    1.4226   -0.0595 H         1 <0>         0.0666
     23 H5         -2.5393    1.9056    2.8939 H         1 <0>         0.0862
     24 H6         -2.5466    0.3218    2.0817 H         1 <0>         0.0846
     25 H7         -0.7291    1.0512    0.5901 H         1 <0>         0.1302
     26 H8         -0.7499    2.6708    1.3280 H         1 <0>         0.1305
     27 H9          0.4114   -0.6253    3.6192 H         1 <0>         0.1314
     28 H10        -1.0771   -0.6650    2.6439 H         1 <0>         0.1317
     29 H11         0.3159   -0.5987    0.5689 H         1 <0>         0.0838
     30 H12         1.7821   -0.6480    1.5769 H         1 <0>         0.0860
     31 H13         1.1863   -2.9126    0.7611 H         1 <0>         0.0769
     32 H14         1.0516   -2.8161    2.5334 H         1 <0>         0.0673
     33 H15        -0.4146   -2.7667    1.5254 H         1 <0>         0.0661
     34 H16         0.6920    3.6566    3.5131 H         1 <0>         0.0926
     35 H17        -0.9549    3.5760    2.8357 H         1 <0>         0.0951
     36 H18        -1.9427    3.6926    5.0398 H         1 <0>         0.0906
     37 H19        -0.7491    5.0044    4.9210 H         1 <0>         0.0998
     38 H20        -0.8541    4.9993    7.3874 H         1 <0>         0.1301
     39 H21         0.2544    4.1974    9.4265 H         1 <0>         0.1334
     40 H22         1.5777    2.1179    9.3697 H         1 <0>         0.1355
     41 H23         0.6630    0.3494    5.1192 H         1 <0>         0.0983
     42 H24         1.7358    1.6005    4.4544 H         1 <0>         0.0920
     43 H25         3.1041   -0.7160    8.3137 H         1 <0>         0.1061
     44 H26         3.2406    0.9857    8.8177 H         1 <0>         0.0610
     45 H27         1.7872    0.0473    9.2365 H         1 <0>         0.0608
     46 N1          0.0201    1.1483    2.5534 N.4       1 <0>        -0.3924
     47 H28         0.9742    1.4208    2.2895 H         1 <0>         0.4260
@<TRIPOS>BOND
     1    1    2 1
     2    1   20 1
     3    1   21 1
     4    1   22 1
     5    2    3 1
     6    2   23 1
     7    2   24 1
     8    3   25 1
     9    3   26 1
    10    3   46 1
    11    4    5 1
    12    4   27 1
    13    4   28 1
    14    4   46 1
    15    5    6 1
    16    5   29 1
    17    5   30 1
    18    6   31 1
    19    6   32 1
    20    6   33 1
    21    7    8 1
    22    7   17 1
    23    7    9 1
    24    7   46 1
    25    9   10 1
    26    9   34 1
    27    9   35 1
    28   10   11 1
    29   10   36 1
    30   10   37 1
    31   11   16 ar
    32   11   12 ar
    33   12   13 ar
    34   12   38 1
    35   13   14 ar
    36   13   39 1
    37   14   15 ar
    38   14   40 1
    39   15   16 ar
    40   15   18 1
    41   16   17 1
    42   17   41 1
    43   17   42 1
    44   18   19 1
    45   19   43 1
    46   19   44 1
    47   19   45 1
    48   46   47 1
@<TRIPOS>MOLECULE
ZINC01530571
   60    63     0     0     0
SMALL
USER_CHARGES

@<TRIPOS>ATOM
      1 C1         -0.0167    1.3818    0.0096 C.ar      1 <0>        -0.2679
      2 C2          1.1915    2.0609    0.0018 C.ar      1 <0>         0.1958
      3 N1          2.3197    1.3705   -0.0127 N.ar      1 <0>        -0.5666
      4 C3          2.3029    0.0457   -0.0197 C.ar      1 <0>         0.5562
      5 N2          1.1654   -0.6335   -0.0129 N.ar      1 <0>        -0.5663
      6 C4          0.0021   -0.0041    0.0020 C.ar      1 <0>         0.1960
      7 N3          3.5022   -0.6451   -0.0348 N.pl3     1 <0>        -0.6064
      8 C5          4.7874    0.0707   -0.0371 C.3       1 <0>         0.1080
      9 C6          5.6545   -0.4916   -1.1683 C.3       1 <0>        -0.0202
     10 N4          5.7718   -1.9473   -1.0165 N.4       1 <0>        -0.3840
     11 C7          4.4544   -2.5749   -1.1794 C.3       1 <0>        -0.0262
     12 C8          3.5278   -2.1159   -0.0430 C.3       1 <0>         0.1092
     13 C9          6.6913   -2.4716   -2.0352 C.3       1 <0>        -0.0085
     14 C10         6.9121   -3.9674   -1.8016 C.3       1 <0>        -0.1445
     15 C11         7.8697   -4.5135   -2.8626 C.3       1 <0>        -0.1292
     16 C12         8.0905   -6.0093   -2.6289 C.3       1 <0>         0.0911
     17 N5          9.0074   -6.5321   -3.6449 N.am      1 <0>        -0.5675
     18 C13         8.4943   -7.0005   -4.7921 C.2       1 <0>         0.5274
     19 O1          7.2949   -6.9658   -4.9647 O.2       1 <0>        -0.4991
     20 C14         9.3797   -7.5686   -5.8706 C.3       1 <0>        -0.1339
     21 C15        10.7544   -6.9065   -5.7927 C.3       1 <0>        -0.0666
     22 C16        11.7066   -7.5412   -6.8156 C.3       1 <0>        -0.1146
     23 C17        12.1410   -6.4083   -7.7700 C.3       1 <0>        -0.1265
     24 C18        11.9376   -5.1147   -6.9422 C.3       1 <0>        -0.1244
     25 C19        10.6393   -5.4143   -6.1507 C.3       1 <0>        -0.1220
     26 C20        11.3191   -7.0612   -4.3813 C.3       1 <0>        -0.1329
     27 C21        10.3239   -6.5167   -3.3897 C.2       1 <0>         0.5271
     28 O2         10.7205   -6.0600   -2.3391 O.2       1 <0>        -0.4986
     29 H1         -0.9525    1.9208    0.0259 H         1 <0>         0.1543
     30 H2          1.2116    3.1407    0.0070 H         1 <0>         0.1759
     31 H3         -0.9219   -0.5632    0.0082 H         1 <0>         0.1760
     32 H4          4.6141    1.1341   -0.2023 H         1 <0>         0.1406
     33 H5          5.2907   -0.0773    0.9184 H         1 <0>         0.0917
     34 H6          5.1926   -0.2623   -2.1286 H         1 <0>         0.1320
     35 H7          6.6459   -0.0406   -1.1249 H         1 <0>         0.1443
     36 H8          4.0288   -2.2827   -2.1393 H         1 <0>         0.1328
     37 H9          4.5614   -3.6591   -1.1441 H         1 <0>         0.1450
     38 H10         3.9061   -2.4809    0.9119 H         1 <0>         0.0920
     39 H11         2.5214   -2.4989   -0.2121 H         1 <0>         0.1403
     40 H12         6.2623   -2.3179   -3.0254 H         1 <0>         0.1301
     41 H13         7.6452   -1.9486   -1.9674 H         1 <0>         0.1337
     42 H14         7.3410   -4.1211   -0.8114 H         1 <0>         0.0926
     43 H15         5.9581   -4.4905   -1.8694 H         1 <0>         0.0914
     44 H16         7.4407   -4.3598   -3.8528 H         1 <0>         0.0793
     45 H17         8.8236   -3.9904   -2.7947 H         1 <0>         0.0796
     46 H18         8.5194   -6.1630   -1.6388 H         1 <0>         0.0991
     47 H19         7.1365   -6.5323   -2.6968 H         1 <0>         0.0987
     48 H20         9.4847   -8.6439   -5.7267 H         1 <0>         0.1160
     49 H21         8.9360   -7.3726   -6.8468 H         1 <0>         0.1186
     50 H22        12.5771   -7.9571   -6.3083 H         1 <0>         0.0770
     51 H23        11.1896   -8.3222   -7.3732 H         1 <0>         0.0769
     52 H24        13.1891   -6.5234   -8.0465 H         1 <0>         0.0725
     53 H25        11.5103   -6.3955   -8.6589 H         1 <0>         0.0700
     54 H26        12.7754   -4.9549   -6.2634 H         1 <0>         0.0706
     55 H27        11.8006   -4.2545   -7.5974 H         1 <0>         0.0710
     56 H28         9.7628   -5.2377   -6.7741 H         1 <0>         0.0740
     57 H29        10.5946   -4.8071   -5.2466 H         1 <0>         0.0611
     58 H30        11.5032   -8.1158   -4.1763 H         1 <0>         0.1163
     59 H31        12.2530   -6.5051   -4.2998 H         1 <0>         0.1183
     60 H32         6.1334   -2.1605   -0.0990 H         1 <0>         0.4234
@<TRIPOS>BOND
     1    1    6 ar
     2    1    2 ar
     3    1   29 1
     4    2    3 ar
     5    2   30 1
     6    3    4 ar
     7    4    5 ar
     8    4    7 1
     9    5    6 ar
    10    6   31 1
    11    7   12 1
    12    7    8 1
    13    8    9 1
    14    8   32 1
    15    8   33 1
    16    9   10 1
    17    9   34 1
    18    9   35 1
    19   10   11 1
    20   10   13 1
    21   10   60 1
    22   11   12 1
    23   11   36 1
    24   11   37 1
    25   12   38 1
    26   12   39 1
    27   13   14 1
    28   13   40 1
    29   13   41 1
    30   14   15 1
    31   14   42 1
    32   14   43 1
    33   15   16 1
    34   15   44 1
    35   15   45 1
    36   16   17 1
    37   16   46 1
    38   16   47 1
    39   17   27 am
    40   17   18 am
    41   18   19 2
    42   18   20 1
    43   20   21 1
    44   20   48 1
    45   20   49 1
    46   21   25 1
    47   21   22 1
    48   21   26 1
    49   22   23 1
    50   22   50 1
    51   22   51 1
    52   23   24 1
    53   23   52 1
    54   23   53 1
    55   24   25 1
    56   24   54 1
    57   24   55 1
    58   25   56 1
    59   25   57 1
    60   26   27 1
    61   26   58 1
    62   26   59 1
    63   27   28 2
@<TRIPOS>MOLECULE
ZINC01530571
   59    62     0     0     0
SMALL
USER_CHARGES

@<TRIPOS>ATOM
      1 C1         -0.0167    1.3818    0.0096 C.ar      1 <0>        -0.2969
      2 C2          1.1915    2.0609    0.0018 C.ar      1 <0>         0.1938
      3 N1          2.3197    1.3705   -0.0127 N.ar      1 <0>        -0.5732
      4 C3          2.3029    0.0457   -0.0197 C.ar      1 <0>         0.5658
      5 N2          1.1654   -0.6335   -0.0129 N.ar      1 <0>        -0.5730
      6 C4          0.0021   -0.0041    0.0020 C.ar      1 <0>         0.1940
      7 N3          3.5022   -0.6451   -0.0348 N.pl3     1 <0>        -0.5851
      8 C5          4.7864    0.0719   -0.0371 C.3       1 <0>         0.1324
      9 C6          5.6472   -0.4751   -1.1808 C.3       1 <0>         0.0415
     10 N4          5.7512   -1.9351   -1.0561 N.3       1 <0>        -0.5378
     11 C7          4.4367   -2.5765   -1.1923 C.3       1 <0>         0.0378
     12 C8          3.5262   -2.1156   -0.0430 C.3       1 <0>         0.1322
     13 C9          6.7063   -2.4799   -2.0301 C.3       1 <0>         0.0580
     14 C10         6.9763   -3.9518   -1.7112 C.3       1 <0>        -0.1114
     15 C11         7.9711   -4.5193   -2.7257 C.3       1 <0>        -0.1277
     16 C12         8.2411   -5.9911   -2.4068 C.3       1 <0>         0.0925
     17 N5          9.1937   -6.5345   -3.3782 N.am      1 <0>        -0.5656
     18 C13         8.7176   -7.0831   -4.5056 C.2       1 <0>         0.5235
     19 O1          7.5209   -7.1017   -4.6983 O.2       1 <0>        -0.4979
     20 C14         9.6414   -7.6762   -5.5375 C.3       1 <0>        -0.1320
     21 C15        10.9900   -6.9610   -5.4750 C.3       1 <0>        -0.0665
     22 C16        11.9819   -7.6151   -6.4466 C.3       1 <0>        -0.1128
     23 C17        12.3921   -6.5206   -7.4551 C.3       1 <0>        -0.1254
     24 C18        12.1282   -5.1922   -6.7029 C.3       1 <0>        -0.1237
     25 C19        10.8279   -5.4956   -5.9162 C.3       1 <0>        -0.1241
     26 C20        11.5352   -7.0178   -4.0487 C.3       1 <0>        -0.1310
     27 C21        10.5042   -6.4570   -3.1040 C.2       1 <0>         0.5230
     28 O2         10.8659   -5.9296   -2.0741 O.2       1 <0>        -0.4965
     29 H1         -0.9525    1.9208    0.0259 H         1 <0>         0.1437
     30 H2          1.2116    3.1407    0.0070 H         1 <0>         0.1666
     31 H3         -0.9219   -0.5632    0.0082 H         1 <0>         0.1667
     32 H4          4.6108    1.1370   -0.1881 H         1 <0>         0.1016
     33 H5          5.2961   -0.0869    0.9132 H         1 <0>         0.0738
     34 H6          5.1859   -0.2235   -2.1357 H         1 <0>         0.0373
     35 H7          6.6426   -0.0339   -1.1299 H         1 <0>         0.0892
     36 H8          3.9922   -2.2957   -2.1471 H         1 <0>         0.0376
     37 H9          4.5541   -3.6593   -1.1498 H         1 <0>         0.0919
     38 H10         3.9172   -2.4807    0.9068 H         1 <0>         0.0739
     39 H11         2.5171   -2.4975   -0.1978 H         1 <0>         0.1013
     40 H12         6.2894   -2.3962   -3.0337 H         1 <0>         0.0338
     41 H13         7.6396   -1.9194   -1.9765 H         1 <0>         0.0768
     42 H14         7.3933   -4.0355   -0.7076 H         1 <0>         0.0768
     43 H15         6.0430   -4.5123   -1.7648 H         1 <0>         0.0665
     44 H16         7.5542   -4.4355   -3.7293 H         1 <0>         0.0656
     45 H17         8.9044   -3.9587   -2.6720 H         1 <0>         0.0680
     46 H18         8.6581   -6.0748   -1.4031 H         1 <0>         0.0965
     47 H19         7.3078   -6.5516   -2.4604 H         1 <0>         0.0949
     48 H20         9.7822   -8.7375   -5.3331 H         1 <0>         0.1123
     49 H21         9.2080   -7.5500   -6.5297 H         1 <0>         0.1155
     50 H22        12.8577   -7.9706   -5.9039 H         1 <0>         0.0751
     51 H23        11.5029   -8.4436   -6.9683 H         1 <0>         0.0748
     52 H24        13.4482   -6.6121   -7.7087 H         1 <0>         0.0699
     53 H25        11.7768   -6.5793   -8.3530 H         1 <0>         0.0686
     54 H26        12.9479   -4.9651   -6.0212 H         1 <0>         0.0700
     55 H27        11.9720   -4.3745   -7.4065 H         1 <0>         0.0701
     56 H28         9.9566   -5.3855   -6.5618 H         1 <0>         0.0744
     57 H29        10.7458   -4.8422   -5.0477 H         1 <0>         0.0652
     58 H30        11.7534   -8.0522   -3.7832 H         1 <0>         0.1126
     59 H31        12.4471   -6.4242   -3.9835 H         1 <0>         0.1155
@<TRIPOS>BOND
     1    1    6 ar
     2    1    2 ar
     3    1   29 1
     4    2    3 ar
     5    2   30 1
     6    3    4 ar
     7    4    5 ar
     8    4    7 1
     9    5    6 ar
    10    6   31 1
    11    7   12 1
    12    7    8 1
    13    8    9 1
    14    8   32 1
    15    8   33 1
    16    9   10 1
    17    9   34 1
    18    9   35 1
    19   10   11 1
    20   10   13 1
    21   11   12 1
    22   11   36 1
    23   11   37 1
    24   12   38 1
    25   12   39 1
    26   13   14 1
    27   13   40 1
    28   13   41 1
    29   14   15 1
    30   14   42 1
    31   14   43 1
    32   15   16 1
    33   15   44 1
    34   15   45 1
    35   16   17 1
    36   16   46 1
    37   16   47 1
    38   17   27 am
    39   17   18 am
    40   18   19 2
    41   18   20 1
    42   20   21 1
    43   20   48 1
    44   20   49 1
    45   21   25 1
    46   21   22 1
    47   21   26 1
    48   22   23 1
    49   22   50 1
    50   22   51 1
    51   23   24 1
    52   23   52 1
    53   23   53 1
    54   24   25 1
    55   24   54 1
    56   24   55 1
    57   25   56 1
    58   25   57 1
    59   26   27 1
    60   26   58 1
    61   26   59 1
    62   27   28 2
@<TRIPOS>MOLECULE
ZINC13766152
   36    39     0     0     0
SMALL
USER_CHARGES
7-fluoro-4-piperazin-1-yl-pyrrolo[1,2-a]quinoxaline
@<TRIPOS>ATOM
      1 C1         -3.4022    2.8245    0.0468 C.2       1 <0>        -0.1668
      2 C2         -2.6061    1.6744    0.0344 C.2       1 <0>        -0.1324
      3 C3         -1.2930    2.0919    0.0195 C.2       1 <0>        -0.0406
      4 C4         -0.0167    1.3776    0.0096 C.2       1 <0>         0.4056
      5 N1          1.1129    2.0507    0.0024 N.2       1 <0>        -0.5189
      6 C5          1.1262    3.4098    0.0091 C.ar      1 <0>         0.1313
      7 C6          2.3480    4.0939    0.0011 C.ar      1 <0>        -0.1113
      8 C7          2.3643    5.4724    0.0055 C.ar      1 <0>         0.1177
      9 C8          1.1751    6.1888    0.0202 C.ar      1 <0>        -0.1214
     10 C9         -0.0365    5.5283    0.0291 C.ar      1 <0>        -0.0882
     11 C10        -0.0716    4.1407    0.0235 C.ar      1 <0>         0.0731
     12 N2         -1.2927    3.4714    0.0316 N.pl3     1 <0>        -0.3537
     13 C11        -2.5792    3.9015    0.0448 C.2       1 <0>         0.0174
     14 F1          3.5444    6.1301   -0.0036 F         1 <0>        -0.1229
     15 N3          0.0021   -0.0041    0.0020 N.pl3     1 <0>        -0.4663
     16 C12        -0.7648   -0.5349   -1.1337 C.3       1 <0>         0.0199
     17 C13        -0.7862   -2.0636   -1.0614 C.3       1 <0>         0.0028
     18 C14         1.3596   -2.0406    0.0584 C.3       1 <0>        -0.0008
     19 C15         1.3810   -0.5120   -0.0139 C.3       1 <0>         0.0345
     20 H1         -4.4819    2.8498    0.0559 H         1 <0>         0.1606
     21 H2         -2.9547    0.6522    0.0329 H         1 <0>         0.1534
     22 H3          3.2764    3.5422   -0.0096 H         1 <0>         0.1565
     23 H4          1.1983    7.2685    0.0242 H         1 <0>         0.1560
     24 H5         -0.9580    6.0913    0.0402 H         1 <0>         0.1487
     25 H6         -2.8961    4.9339    0.0528 H         1 <0>         0.1799
     26 H7         -1.7855   -0.1546   -1.0928 H         1 <0>         0.1396
     27 H8         -0.2967   -0.2215   -2.0668 H         1 <0>         0.0773
     28 H9         -1.3298   -2.4606   -1.9186 H         1 <0>         0.1467
     29 H10        -1.2786   -2.3772   -0.1409 H         1 <0>         0.1444
     30 H11         2.3803   -2.4209    0.0176 H         1 <0>         0.1451
     31 H12         0.8918   -2.3540    0.9917 H         1 <0>         0.1417
     32 H13         1.8735   -0.1983   -0.9343 H         1 <0>         0.0817
     33 H14         1.9247   -0.1149    0.8434 H         1 <0>         0.1356
     34 N4          0.5964   -2.5777   -1.0840 N.4       1 <0>        -0.5203
     35 H15         1.0502   -2.2914   -1.9594 H         1 <0>         0.4325
     36 H16         0.5779   -3.6027   -1.0275 H         1 <0>         0.4416
@<TRIPOS>BOND
     1    1   13 2
     2    1    2 1
     3    1   20 1
     4    2    3 2
     5    2   21 1
     6    3   12 1
     7    3    4 1
     8    4    5 2
     9    4   15 1
    10    5    6 1
    11    6   11 ar
    12    6    7 ar
    13    7    8 ar
    14    7   22 1
    15    8    9 ar
    16    8   14 1
    17    9   10 ar
    18    9   23 1
    19   10   11 ar
    20   10   24 1
    21   11   12 1
    22   12   13 1
    23   13   25 1
    24   15   19 1
    25   15   16 1
    26   16   17 1
    27   16   26 1
    28   16   27 1
    29   17   28 1
    30   17   29 1
    31   17   34 1
    32   18   19 1
    33   18   30 1
    34   18   31 1
    35   18   34 1
    36   19   32 1
    37   19   33 1
    38   34   35 1
    39   34   36 1
@<TRIPOS>MOLECULE
ZINC27108894
   46    49     0     0     0
SMALL
USER_CHARGES
(3R)-N-[(1S,2S)-2-hydroxycyclohexyl]-1,2,3,4-tetrahydrobenzothiopheno[3,2-d]pyridine-3-carboxamide
@<TRIPOS>ATOM
      1 C1          4.3636   -0.6001    4.3844 C.ar      1 <0>        -0.1177
      2 C2          4.0760   -1.9454    4.5488 C.ar      1 <0>        -0.0746
      3 C3          3.0839   -2.5636    3.7988 C.ar      1 <0>        -0.0726
      4 C4          2.4169   -1.7635    2.8964 C.ar      1 <0>        -0.1120
      5 C5          2.6887   -0.3842    2.7060 C.ar      1 <0>        -0.1021
      6 C6          3.7104    0.2051    3.4933 C.ar      1 <0>        -0.0659
      7 C7          1.8748    0.2858    1.7046 C.2       1 <0>        -0.0739
      8 C8          0.9505   -0.4677    1.0634 C.2       1 <0>        -0.2352
      9 S1          1.1144   -2.0936    1.7525 S.3       1 <0>         0.1279
     10 C9          0.0021   -0.0041    0.0020 C.3       1 <0>         0.1009
     11 N1         -0.0179    1.4705    0.0101 N.4       1 <0>        -0.5232
     12 C10         1.3506    2.0061   -0.0001 C.3       1 <0>         0.0216
     13 H1          1.8993    1.4877   -0.8003 H         1 <0>         0.1582
     14 C11         2.0186    1.7654    1.3558 C.3       1 <0>        -0.0773
     15 C12         1.3061    3.4863   -0.2797 C.2       1 <0>         0.5066
     16 O1          0.2806    4.1074   -0.0969 O.2       1 <0>        -0.5291
     17 N2          2.4060    4.1199   -0.7328 N.am      1 <0>        -0.7018
     18 C13         2.3627    5.5588   -1.0046 C.3       1 <0>         0.1583
     19 H2          1.3579    5.7858   -1.3904 H         1 <0>         0.1010
     20 C14         2.6303    6.3305    0.2892 C.3       1 <0>        -0.1269
     21 C15         2.5851    7.8332    0.0053 C.3       1 <0>        -0.1227
     22 C16         3.6532    8.1889   -1.0308 C.3       1 <0>        -0.1248
     23 C17         3.3856    7.4172   -2.3246 C.3       1 <0>        -0.1500
     24 C18         3.4308    5.9145   -2.0407 C.3       1 <0>         0.1118
     25 H3          4.4309    5.6018   -1.7060 H         1 <0>         0.0598
     26 O2          3.1809    5.1937   -3.2491 O.3       1 <0>        -0.6048
     27 H4          5.1441   -0.1652    4.9912 H         1 <0>         0.1324
     28 H5          4.6323   -2.5228    5.2724 H         1 <0>         0.1410
     29 H6          2.8488   -3.6112    3.9158 H         1 <0>         0.1495
     30 H7          3.9627    1.2504    3.3930 H         1 <0>         0.1365
     31 H8          0.3408   -0.3712   -0.9781 H         1 <0>         0.1489
     32 H9         -1.0039   -0.3959    0.2126 H         1 <0>         0.1553
     33 H10        -0.5499    1.8349   -0.8811 H         1 <0>         0.4656
     34 H11         1.5296    2.3740    2.1307 H         1 <0>         0.1144
     35 H12         3.0856    2.0276    1.3027 H         1 <0>         0.1276
     36 H13         3.3362    3.5566   -0.8985 H         1 <0>         0.4317
     37 H14         1.8624    6.0748    1.0341 H         1 <0>         0.0747
     38 H15         3.6231    6.0606    0.6785 H         1 <0>         0.0714
     39 H16         1.5923    8.1031   -0.3840 H         1 <0>         0.0693
     40 H17         2.7774    8.3881    0.9354 H         1 <0>         0.0756
     41 H18         3.6207    9.2693   -1.2348 H         1 <0>         0.0749
     42 H19         4.6460    7.9190   -0.6415 H         1 <0>         0.0674
     43 H20         2.3928    7.6871   -2.7139 H         1 <0>         0.0761
     44 H21         4.1535    7.6729   -3.0696 H         1 <0>         0.0760
     45 H22         3.8490    5.3210   -4.1137 H         1 <0>         0.4192
     46 H23        -0.5328    1.8253    0.9151 H         1 <0>         0.4612
@<TRIPOS>BOND
     1    1    6 ar
     2    1    2 ar
     3    1   27 1
     4    2    3 ar
     5    2   28 1
     6    3    4 ar
     7    3   29 1
     8    4    9 1
     9    4    5 ar
    10    5    6 ar
    11    5    7 1
    12    6   30 1
    13    7   14 1
    14    7    8 2
    15    8    9 1
    16    8   10 1
    17   10   11 1
    18   10   31 1
    19   10   32 1
    20   11   12 1
    21   11   33 1
    22   11   46 1
    23   12   13 1
    24   12   14 1
    25   12   15 1
    26   14   34 1
    27   14   35 1
    28   15   16 2
    29   15   17 am
    30   17   18 1
    31   17   36 1
    32   18   19 1
    33   18   24 1
    34   18   20 1
    35   20   21 1
    36   20   37 1
    37   20   38 1
    38   21   22 1
    39   21   39 1
    40   21   40 1
    41   22   23 1
    42   22   41 1
    43   22   42 1
    44   23   24 1
    45   23   43 1
    46   23   44 1
    47   24   25 1
    48   24   26 1
    49   26   45 1
@<TRIPOS>MOLECULE
ZINC27108897
   46    49     0     0     0
SMALL
USER_CHARGES
(3R)-N-[(1R,2S)-2-hydroxycyclohexyl]-1,2,3,4-tetrahydrobenzothiopheno[3,2-d]pyridine-3-carboxamide
@<TRIPOS>ATOM
      1 C1          4.3642   -0.6004    4.3837 C.ar      1 <0>        -0.1181
      2 C2          4.0761   -1.9455    4.5487 C.ar      1 <0>        -0.0743
      3 C3          3.0832   -2.5634    3.7994 C.ar      1 <0>        -0.0733
      4 C4          2.4165   -1.7634    2.8967 C.ar      1 <0>        -0.1115
      5 C5          2.6891   -0.3844    2.7055 C.ar      1 <0>        -0.1025
      6 C6          3.7112    0.2047    3.4924 C.ar      1 <0>        -0.0648
      7 C7          1.8752    0.2856    1.7042 C.2       1 <0>        -0.0721
      8 C8          0.9504   -0.4677    1.0634 C.2       1 <0>        -0.2371
      9 S1          1.1134   -2.0933    1.7535 S.3       1 <0>         0.1264
     10 C9          0.0021   -0.0041    0.0020 C.3       1 <0>         0.1014
     11 N1         -0.0179    1.4705    0.0101 N.4       1 <0>        -0.5232
     12 C10         1.3506    2.0062   -0.0001 C.3       1 <0>         0.0215
     13 H1          1.8993    1.4880   -0.8004 H         1 <0>         0.1564
     14 C11         2.0187    1.7653    1.3557 C.3       1 <0>        -0.0768
     15 C12         1.3060    3.4864   -0.2794 C.2       1 <0>         0.5054
     16 O1          0.2804    4.1074   -0.0965 O.2       1 <0>        -0.5297
     17 N2          2.4058    4.1201   -0.7325 N.am      1 <0>        -0.6959
     18 C13         2.3624    5.5591   -1.0041 C.3       1 <0>         0.1597
     19 H2          1.6959    6.0106   -0.2545 H         1 <0>         0.1006
     20 C14         1.8234    5.7956   -2.4163 C.3       1 <0>        -0.1312
     21 C15         2.7399    5.1121   -3.4331 C.3       1 <0>        -0.1204
     22 C16         4.1501    5.6949   -3.3212 C.3       1 <0>        -0.1261
     23 C17         4.6891    5.4585   -1.9089 C.3       1 <0>        -0.1497
     24 C18         3.7726    6.1420   -0.8922 C.3       1 <0>         0.1069
     25 H3          3.7655    7.2331   -1.0319 H         1 <0>         0.0739
     26 O2          4.2760    5.9211    0.4269 O.3       1 <0>        -0.6026
     27 H4          5.1450   -0.1656    4.9901 H         1 <0>         0.1325
     28 H5          4.6325   -2.5230    5.2721 H         1 <0>         0.1409
     29 H6          2.8475   -3.6108    3.9171 H         1 <0>         0.1494
     30 H7          3.9641    1.2498    3.3915 H         1 <0>         0.1373
     31 H8          0.3408   -0.3712   -0.9781 H         1 <0>         0.1482
     32 H9         -1.0039   -0.3959    0.2125 H         1 <0>         0.1551
     33 H10        -0.5499    1.8349   -0.8811 H         1 <0>         0.4644
     34 H11         1.5296    2.3736    2.1308 H         1 <0>         0.1148
     35 H12         3.0856    2.0277    1.3026 H         1 <0>         0.1286
     36 H13         3.3360    3.5569   -0.8984 H         1 <0>         0.4291
     37 H14         0.8095    5.3766   -2.4967 H         1 <0>         0.0752
     38 H15         1.7908    6.8760   -2.6202 H         1 <0>         0.0853
     39 H16         2.7724    4.0316   -3.2292 H         1 <0>         0.0583
     40 H17         2.3524    5.2821   -4.4484 H         1 <0>         0.0726
     41 H18         4.8090    5.2034   -4.0522 H         1 <0>         0.0724
     42 H19         4.1176    6.7753   -3.5252 H         1 <0>         0.0716
     43 H20         4.7217    4.3781   -1.7050 H         1 <0>         0.0641
     44 H21         5.7030    5.8775   -1.8284 H         1 <0>         0.0765
     45 H22         5.2824    6.2731    0.6976 H         1 <0>         0.4189
     46 H23        -0.5328    1.8253    0.9151 H         1 <0>         0.4619
@<TRIPOS>BOND
     1    1    6 ar
     2    1    2 ar
     3    1   27 1
     4    2    3 ar
     5    2   28 1
     6    3    4 ar
     7    3   29 1
     8    4    9 1
     9    4    5 ar
    10    5    6 ar
    11    5    7 1
    12    6   30 1
    13    7   14 1
    14    7    8 2
    15    8    9 1
    16    8   10 1
    17   10   11 1
    18   10   31 1
    19   10   32 1
    20   11   12 1
    21   11   33 1
    22   11   46 1
    23   12   13 1
    24   12   14 1
    25   12   15 1
    26   14   34 1
    27   14   35 1
    28   15   16 2
    29   15   17 am
    30   17   18 1
    31   17   36 1
    32   18   19 1
    33   18   24 1
    34   18   20 1
    35   20   21 1
    36   20   37 1
    37   20   38 1
    38   21   22 1
    39   21   39 1
    40   21   40 1
    41   22   23 1
    42   22   41 1
    43   22   42 1
    44   23   24 1
    45   23   43 1
    46   23   44 1
    47   24   25 1
    48   24   26 1
    49   26   45 1
@<TRIPOS>MOLECULE
ZINC02021499
   56    58     0     0     0
SMALL
USER_CHARGES
4,4-dimethyl-1-[4-(4-pyrimidin-2-ylpiperazin-1-yl)butyl]piperidine-2,6-dione
@<TRIPOS>ATOM
      1 C1         -2.4128    2.7254   -7.4483 C.3       1 <0>        -0.1434
      2 C2         -1.6026    2.1703   -6.2751 C.3       1 <0>        -0.0679
      3 C3         -1.0877    3.3272   -5.4122 C.3       1 <0>        -0.1367
      4 C4         -0.3906    2.7678   -4.2003 C.2       1 <0>         0.5272
      5 O1          0.5087    3.3987   -3.6878 O.2       1 <0>        -0.4989
      6 N1         -0.7451    1.5845   -3.6772 N.am      1 <0>        -0.5688
      7 C5         -1.7192    0.8257   -4.2012 C.2       1 <0>         0.5272
      8 O2         -1.9817   -0.2415   -3.6894 O.2       1 <0>        -0.4987
      9 C6         -2.4969    1.2764   -5.4095 C.3       1 <0>        -0.1365
     10 C7         -0.0366    1.0992   -2.4903 C.3       1 <0>         0.0906
     11 C8         -0.7527    1.5927   -1.2315 C.3       1 <0>        -0.1292
     12 C9         -0.0127    1.0858    0.0080 C.3       1 <0>        -0.1458
     13 C10        -0.7288    1.5792    1.2668 C.3       1 <0>        -0.0022
     14 C11        -0.1049   -0.3708    2.5603 C.3       1 <0>         0.0002
     15 C12         0.7121   -0.8436    3.7650 C.3       1 <0>         0.0374
     16 N2          0.1999   -0.2013    4.9835 N.pl3     1 <0>        -0.4630
     17 C13         0.2864    1.2621    4.8801 C.3       1 <0>         0.0416
     18 C14        -0.5306    1.7349    3.6754 C.3       1 <0>         0.0013
     19 C15         0.8693   -0.6598    6.1048 C.ar      1 <0>         0.4747
     20 N3          1.4743    0.2119    6.8983 N.ar      1 <0>        -0.5508
     21 C16         2.1180   -0.1926    7.9808 C.ar      1 <0>         0.1778
     22 C17         2.1641   -1.5466    8.2736 C.ar      1 <0>        -0.2368
     23 C18         1.5253   -2.4315    7.4192 C.ar      1 <0>         0.1795
     24 N4          0.8945   -1.9604    6.3562 N.ar      1 <0>        -0.5241
     25 C19        -0.4190    1.3592   -6.8063 C.3       1 <0>        -0.1546
     26 H1         -1.7788    3.3738   -8.0531 H         1 <0>         0.0687
     27 H2         -2.7778    1.9006   -8.0604 H         1 <0>         0.0688
     28 H3         -3.2589    3.2973   -7.0673 H         1 <0>         0.0647
     29 H4         -1.9266    3.9473   -5.0961 H         1 <0>         0.1148
     30 H5         -0.3864    3.9289   -5.9905 H         1 <0>         0.1187
     31 H6         -3.3761    1.8377   -5.0932 H         1 <0>         0.1152
     32 H7         -2.8079    0.4050   -5.9857 H         1 <0>         0.1185
     33 H8          0.9860    1.4765   -2.4981 H         1 <0>         0.0987
     34 H9         -0.0218    0.0093   -2.4963 H         1 <0>         0.0990
     35 H10        -1.7753    1.2154   -1.2238 H         1 <0>         0.0798
     36 H11        -0.7675    2.6825   -1.2255 H         1 <0>         0.0797
     37 H12         0.0021   -0.0041    0.0020 H         1 <0>         0.0913
     38 H13         1.0099    1.4631    0.0003 H         1 <0>         0.0912
     39 H14        -0.7436    2.6691    1.2728 H         1 <0>         0.1323
     40 H15        -1.7514    1.2020    1.2746 H         1 <0>         0.1342
     41 H16        -1.1464   -0.6653    2.6890 H         1 <0>         0.1443
     42 H17         0.2918   -0.8236    1.6516 H         1 <0>         0.1419
     43 H18         1.7585   -0.5730    3.6236 H         1 <0>         0.0691
     44 H19         0.6262   -1.9260    3.8608 H         1 <0>         0.1395
     45 H20         1.3280    1.5566    4.7514 H         1 <0>         0.0786
     46 H21        -0.1102    1.7149    5.7888 H         1 <0>         0.1342
     47 H22        -0.4443    2.8173    3.5797 H         1 <0>         0.1416
     48 H23        -1.5770    1.4646    3.8166 H         1 <0>         0.1412
     49 H24         2.6058    0.5230    8.6260 H         1 <0>         0.1778
     50 H25         2.6862   -1.9044    9.1488 H         1 <0>         0.1582
     51 H26         1.5421   -3.4927    7.6190 H         1 <0>         0.1800
     52 H27         0.1526    0.9595   -5.9687 H         1 <0>         0.0492
     53 H28        -0.7880    0.5371   -7.4196 H         1 <0>         0.0715
     54 H29         0.2215    2.0031   -7.4090 H         1 <0>         0.0714
     55 N5          0.0087    1.0990    2.4548 N.4       1 <0>        -0.3999
     56 H30         0.9993    1.3510    2.3569 H         1 <0>         0.4258
@<TRIPOS>BOND
     1    1    2 1
     2    1   26 1
     3    1   27 1
     4    1   28 1
     5    2    9 1
     6    2    3 1
     7    2   25 1
     8    3    4 1
     9    3   29 1
    10    3   30 1
    11    4    5 2
    12    4    6 am
    13    6    7 am
    14    6   10 1
    15    7    8 2
    16    7    9 1
    17    9   31 1
    18    9   32 1
    19   10   11 1
    20   10   33 1
    21   10   34 1
    22   11   12 1
    23   11   35 1
    24   11   36 1
    25   12   13 1
    26   12   37 1
    27   12   38 1
    28   13   39 1
    29   13   40 1
    30   13   55 1
    31   14   15 1
    32   14   41 1
    33   14   42 1
    34   14   55 1
    35   15   16 1
    36   15   43 1
    37   15   44 1
    38   16   17 1
    39   16   19 1
    40   17   18 1
    41   17   45 1
    42   17   46 1
    43   18   47 1
    44   18   48 1
    45   18   55 1
    46   19   24 ar
    47   19   20 ar
    48   20   21 ar
    49   21   22 ar
    50   21   49 1
    51   22   23 ar
    52   22   50 1
    53   23   24 ar
    54   23   51 1
    55   25   52 1
    56   25   53 1
    57   25   54 1
    58   55   56 1
@<TRIPOS>MOLECULE
ZINC01915508
   64    68     0     0     0
SMALL
USER_CHARGES
8-[4-[4-(9-thia-8-azabicyclo[4.3.0]nona-2,4,7,10-tetraen-7-yl)piperazin-1-yl]butyl]-8-azaspiro[4.5]decane-7,9-dione
@<TRIPOS>ATOM
      1 C1         -0.1854    3.0363    3.0585 C.ar      1 <0>        -0.1227
      2 C2          0.9702    2.2871    2.8731 C.ar      1 <0>        -0.0631
      3 C3          1.7797    2.5384    1.7969 C.ar      1 <0>        -0.0775
      4 C4          1.4398    3.5390    0.9109 C.ar      1 <0>        -0.1195
      5 C5          0.2738    4.3208    1.0775 C.ar      1 <0>        -0.1259
      6 C6         -0.5340    4.0311    2.1987 C.ar      1 <0>        -0.0351
      7 C7          0.1089    5.3174    0.0302 C.2       1 <0>         0.2965
      8 N1          0.9929    5.4074   -0.9213 N.2       1 <0>        -0.4531
      9 S1          2.1517    4.2026   -0.5700 S.3       1 <0>         0.2239
     10 N2         -0.9928    6.1742    0.0458 N.pl3     1 <0>        -0.4740
     11 C8         -1.8260    5.9826   -1.1494 C.3       1 <0>         0.0288
     12 C9         -3.0618    6.8807   -1.0559 C.3       1 <0>         0.0019
     13 C10        -1.8041    8.4738    0.2628 C.3       1 <0>         0.0063
     14 C11        -0.5684    7.5757    0.1693 C.3       1 <0>         0.0281
     15 C12        -3.7969    9.1840   -0.9159 C.3       1 <0>        -0.0018
     16 C13        -4.4982    9.1379   -2.2750 C.3       1 <0>        -0.1459
     17 C14        -5.7059   10.0771   -2.2578 C.3       1 <0>        -0.1286
     18 C15        -6.4072   10.0310   -3.6168 C.3       1 <0>         0.0907
     19 N3         -7.5636   10.9302   -3.6003 N.am      1 <0>        -0.5674
     20 C16        -8.7518   10.4404   -3.2171 C.2       1 <0>         0.5275
     21 O1         -8.8357    9.2783   -2.8824 O.2       1 <0>        -0.4991
     22 C17        -9.9833   11.3079   -3.1892 C.3       1 <0>        -0.1340
     23 C18        -9.5725   12.7603   -2.9521 C.3       1 <0>        -0.0662
     24 C19       -10.8015   13.6767   -3.0258 C.3       1 <0>        -0.1145
     25 C20       -10.9201   14.3606   -1.6469 C.3       1 <0>        -0.1263
     26 C21        -9.4840   14.3020   -1.0687 C.3       1 <0>        -0.1244
     27 C22        -8.9806   12.9141   -1.5400 C.3       1 <0>        -0.1218
     28 C23        -8.5400   13.1786   -3.9978 C.3       1 <0>        -0.1329
     29 C24        -7.3893   12.2063   -3.9743 C.2       1 <0>         0.5269
     30 O2         -6.2846   12.5847   -4.3000 O.2       1 <0>        -0.4987
     31 H1         -0.8189    2.8271    3.9078 H         1 <0>         0.1379
     32 H2          1.2271    1.5059    3.5731 H         1 <0>         0.1446
     33 H3          2.6772    1.9577    1.6438 H         1 <0>         0.1426
     34 H4         -1.4362    4.5989    2.3719 H         1 <0>         0.1355
     35 H5         -1.2524    6.2448   -2.0384 H         1 <0>         0.0752
     36 H6         -2.1380    4.9401   -1.2119 H         1 <0>         0.1258
     37 H7         -3.6497    6.6005   -0.1819 H         1 <0>         0.1430
     38 H8         -3.6669    6.7619   -1.9547 H         1 <0>         0.1398
     39 H9         -2.3778    8.2117    1.1518 H         1 <0>         0.1425
     40 H10        -1.4921    9.5163    0.3257 H         1 <0>         0.1394
     41 H11         0.0365    7.6946    1.0683 H         1 <0>         0.1260
     42 H12         0.0195    7.8560   -0.7047 H         1 <0>         0.0753
     43 H13        -4.4917    8.8682   -0.1377 H         1 <0>         0.1343
     44 H14        -3.4629   10.2016   -0.7137 H         1 <0>         0.1317
     45 H15        -3.8034    9.4537   -3.0532 H         1 <0>         0.0910
     46 H16        -4.8321    8.1202   -2.4772 H         1 <0>         0.0910
     47 H17        -6.4007    9.7613   -1.4795 H         1 <0>         0.0800
     48 H18        -5.3719   11.0947   -2.0556 H         1 <0>         0.0795
     49 H19        -5.7124   10.3468   -4.3951 H         1 <0>         0.0985
     50 H20        -6.7411    9.0133   -3.8190 H         1 <0>         0.0987
     51 H21       -10.6438   10.9805   -2.3863 H         1 <0>         0.1190
     52 H22       -10.5031   11.2276   -4.1439 H         1 <0>         0.1155
     53 H23       -10.6624   14.4268   -3.8044 H         1 <0>         0.0769
     54 H24       -11.6956   13.0875   -3.2291 H         1 <0>         0.0769
     55 H25       -11.6116   13.8121   -1.0073 H         1 <0>         0.0700
     56 H26       -11.2444   15.3952   -1.7587 H         1 <0>         0.0725
     57 H27        -9.5035   14.3564    0.0198 H         1 <0>         0.0709
     58 H28        -8.8653   15.0981   -1.4826 H         1 <0>         0.0705
     59 H29        -9.3535   12.1291   -0.8821 H         1 <0>         0.0742
     60 H30        -7.8914   12.8959   -1.5784 H         1 <0>         0.0612
     61 H31        -8.1754   14.1800   -3.7693 H         1 <0>         0.1185
     62 H32        -9.0001   13.1744   -4.9859 H         1 <0>         0.1158
     63 N4         -2.6214    8.2879   -0.9547 N.4       1 <0>        -0.3991
     64 H33        -2.0524    8.5196   -1.7774 H         1 <0>         0.4266
@<TRIPOS>BOND
     1    1    6 ar
     2    1    2 ar
     3    1   31 1
     4    2    3 ar
     5    2   32 1
     6    3    4 ar
     7    3   33 1
     8    4    9 1
     9    4    5 ar
    10    5    6 ar
    11    5    7 1
    12    6   34 1
    13    7    8 2
    14    7   10 1
    15    8    9 1
    16   10   14 1
    17   10   11 1
    18   11   12 1
    19   11   35 1
    20   11   36 1
    21   12   37 1
    22   12   38 1
    23   12   63 1
    24   13   14 1
    25   13   39 1
    26   13   40 1
    27   13   63 1
    28   14   41 1
    29   14   42 1
    30   15   16 1
    31   15   43 1
    32   15   44 1
    33   15   63 1
    34   16   17 1
    35   16   45 1
    36   16   46 1
    37   17   18 1
    38   17   47 1
    39   17   48 1
    40   18   19 1
    41   18   49 1
    42   18   50 1
    43   19   29 am
    44   19   20 am
    45   20   21 2
    46   20   22 1
    47   22   23 1
    48   22   51 1
    49   22   52 1
    50   23   27 1
    51   23   24 1
    52   23   28 1
    53   24   25 1
    54   24   53 1
    55   24   54 1
    56   25   26 1
    57   25   55 1
    58   25   56 1
    59   26   27 1
    60   26   57 1
    61   26   58 1
    62   27   59 1
    63   27   60 1
    64   28   29 1
    65   28   61 1
    66   28   62 1
    67   29   30 2
    68   63   64 1
@<TRIPOS>MOLECULE
ZINC02183396
   65    68     0     0     0
SMALL
USER_CHARGES
7-[3-[4-(2-butoxyphenyl)piperazin-1-yl]propyl]-5,7-diazabicyclo[3.3.0]octane-6,8-dione
@<TRIPOS>ATOM
      1 C1        -10.6565   11.7054    1.2158 C.3       1 <0>        -0.1535
      2 C2         -9.4672   12.3705    0.5200 C.3       1 <0>        -0.1236
      3 C3         -8.4905   11.2950    0.0399 C.3       1 <0>        -0.1152
      4 C4         -7.3012   11.9601   -0.6559 C.3       1 <0>         0.0530
      5 O1         -6.3891   10.9557   -1.1043 O.3       1 <0>        -0.2970
      6 C5         -5.2693   11.3816   -1.7482 C.ar      1 <0>         0.1687
      7 C6         -5.0533   12.7357   -1.9434 C.ar      1 <0>        -0.2038
      8 C7         -3.9139   13.1673   -2.5973 C.ar      1 <0>        -0.0618
      9 C8         -2.9875   12.2504   -3.0581 C.ar      1 <0>        -0.1468
     10 C9         -3.1932   10.8975   -2.8631 C.ar      1 <0>        -0.1057
     11 C10        -4.3365   10.4569   -2.2126 C.ar      1 <0>         0.0234
     12 N1         -4.5495    9.0872   -2.0182 N.pl3     1 <0>        -0.4804
     13 C11        -4.6128    8.3766   -3.3030 C.3       1 <0>         0.0295
     14 C12        -4.9251    6.8996   -3.0511 C.3       1 <0>         0.0045
     15 C13        -3.8247    7.0338   -0.8994 C.3       1 <0>         0.0002
     16 C14        -3.5123    8.5108   -1.1513 C.3       1 <0>         0.0311
     17 C15        -4.1115    4.8857   -1.9802 C.3       1 <0>         0.0015
     18 C16        -2.8919    4.2729   -1.2888 C.3       1 <0>        -0.1705
     19 C17        -3.1247    2.7757   -1.0764 C.3       1 <0>         0.1254
     20 N2         -1.9569    2.1890   -0.4143 N.am      1 <0>        -0.5887
     21 C18        -0.8874    1.6592   -1.0777 C.2       1 <0>         0.5323
     22 O2         -0.6724    1.6615   -2.2708 O.2       1 <0>        -0.4535
     23 C19        -0.0127    1.0858    0.0080 C.3       1 <0>         0.0405
     24 H1          0.0021   -0.0041    0.0020 H         1 <0>         0.1440
     25 C20         1.4024    1.6977   -0.0022 C.3       1 <0>        -0.1117
     26 C21         1.8038    1.6209    1.4940 C.3       1 <0>        -0.1382
     27 C22         0.4651    1.5362    2.2605 C.3       1 <0>         0.1555
     28 N3         -0.5966    1.6513    1.2541 N.am      1 <0>        -0.6322
     29 C23        -1.8094    2.0981    0.9167 C.2       1 <0>         0.7355
     30 O3         -2.6753    2.3878    1.7187 O.2       1 <0>        -0.5324
     31 H2        -11.3522   12.4715    1.5579 H         1 <0>         0.0605
     32 H3        -11.1627   11.0416    0.5149 H         1 <0>         0.0561
     33 H4        -10.3017   11.1291    2.0703 H         1 <0>         0.0561
     34 H5         -8.9609   13.0342    1.2209 H         1 <0>         0.0660
     35 H6         -9.8219   12.9467   -0.3345 H         1 <0>         0.0661
     36 H7         -8.9968   10.6313   -0.6610 H         1 <0>         0.0732
     37 H8         -8.1358   10.7188    0.8944 H         1 <0>         0.0731
     38 H9         -6.7950   12.6239    0.0450 H         1 <0>         0.0645
     39 H10        -7.6560   12.5364   -1.5104 H         1 <0>         0.0647
     40 H11        -5.7749   13.4547   -1.5844 H         1 <0>         0.1371
     41 H12        -3.7472   14.2236   -2.7483 H         1 <0>         0.1336
     42 H13        -2.0989   12.5921   -3.5680 H         1 <0>         0.1304
     43 H14        -2.4659   10.1835   -3.2204 H         1 <0>         0.1236
     44 H15        -3.6540    8.4634   -3.8142 H         1 <0>         0.0620
     45 H16        -5.3961    8.8135   -3.9224 H         1 <0>         0.1240
     46 H17        -4.9439    6.3648   -4.0007 H         1 <0>         0.1361
     47 H18        -5.8964    6.8112   -2.5643 H         1 <0>         0.1418
     48 H19        -4.7834    6.9469   -0.3882 H         1 <0>         0.1426
     49 H20        -3.0411    6.5968   -0.2804 H         1 <0>         0.1331
     50 H21        -2.5410    8.5992   -1.6381 H         1 <0>         0.0614
     51 H22        -3.4935    9.0456   -0.2017 H         1 <0>         0.1230
     52 H23        -4.2639    4.4012   -2.9447 H         1 <0>         0.1355
     53 H24        -4.9938    4.7400   -1.3570 H         1 <0>         0.1386
     54 H25        -2.7395    4.7574   -0.3243 H         1 <0>         0.0943
     55 H26        -2.0096    4.4186   -1.9120 H         1 <0>         0.0923
     56 H27        -3.2771    2.2913   -2.0408 H         1 <0>         0.1055
     57 H28        -4.0070    2.6301   -0.4531 H         1 <0>         0.1094
     58 H29         2.0782    1.1025   -0.6163 H         1 <0>         0.1002
     59 H30         1.3758    2.7312   -0.3475 H         1 <0>         0.0788
     60 H31         2.4043    0.7305    1.6802 H         1 <0>         0.0948
     61 H32         2.3518    2.5167    1.7860 H         1 <0>         0.0894
     62 H33         0.3893    0.5789    2.7763 H         1 <0>         0.0867
     63 H34         0.3923    2.3539    2.9775 H         1 <0>         0.0882
     64 N4         -3.8635    6.3270   -2.1971 N.4       1 <0>        -0.3966
     65 H35        -2.9581    6.4426   -2.6674 H         1 <0>         0.4239
@<TRIPOS>BOND
     1    1    2 1
     2    1   31 1
     3    1   32 1
     4    1   33 1
     5    2    3 1
     6    2   34 1
     7    2   35 1
     8    3    4 1
     9    3   36 1
    10    3   37 1
    11    4    5 1
    12    4   38 1
    13    4   39 1
    14    5    6 1
    15    6   11 ar
    16    6    7 ar
    17    7    8 ar
    18    7   40 1
    19    8    9 ar
    20    8   41 1
    21    9   10 ar
    22    9   42 1
    23   10   11 ar
    24   10   43 1
    25   11   12 1
    26   12   16 1
    27   12   13 1
    28   13   14 1
    29   13   44 1
    30   13   45 1
    31   14   46 1
    32   14   47 1
    33   14   64 1
    34   15   16 1
    35   15   48 1
    36   15   49 1
    37   15   64 1
    38   16   50 1
    39   16   51 1
    40   17   18 1
    41   17   52 1
    42   17   53 1
    43   17   64 1
    44   18   19 1
    45   18   54 1
    46   18   55 1
    47   19   20 1
    48   19   56 1
    49   19   57 1
    50   20   29 am
    51   20   21 am
    52   21   22 2
    53   21   23 1
    54   23   24 1
    55   23   28 1
    56   23   25 1
    57   25   26 1
    58   25   58 1
    59   25   59 1
    60   26   27 1
    61   26   60 1
    62   26   61 1
    63   27   28 1
    64   27   62 1
    65   27   63 1
    66   28   29 am
    67   29   30 2
    68   64   65 1
@<TRIPOS>MOLECULE
ZINC02183397
   65    68     0     0     0
SMALL
USER_CHARGES
7-[3-[4-(2-butoxyphenyl)piperazin-1-yl]propyl]-5,7-diazabicyclo[3.3.0]octane-6,8-dione
@<TRIPOS>ATOM
      1 C1         -7.3674   14.9456   -5.5593 C.3       1 <0>        -0.1535
      2 C2         -8.5369   14.2742   -4.8365 C.3       1 <0>        -0.1236
      3 C3         -8.0011   13.1995   -3.8883 C.3       1 <0>        -0.1151
      4 C4         -9.1706   12.5282   -3.1655 C.3       1 <0>         0.0530
      5 O1         -8.6703   11.5244   -2.2800 O.3       1 <0>        -0.2970
      6 C5         -9.5866   10.8277   -1.5556 C.ar      1 <0>         0.1687
      7 C6        -10.9368   11.1037   -1.6945 C.ar      1 <0>        -0.2039
      8 C7        -11.8674   10.3939   -0.9581 C.ar      1 <0>        -0.0619
      9 C8        -11.4543    9.4076   -0.0817 C.ar      1 <0>        -0.1468
     10 C9        -10.1091    9.1227    0.0592 C.ar      1 <0>        -0.1056
     11 C10        -9.1695    9.8342   -0.6724 C.ar      1 <0>         0.0235
     12 N1         -7.8064    9.5510   -0.5279 N.pl3     1 <0>        -0.4804
     13 C11        -7.3682    9.7648    0.8584 C.3       1 <0>         0.0295
     14 C12        -5.8603    9.5220    0.9572 C.3       1 <0>         0.0047
     15 C13        -5.9956    7.9391   -0.8690 C.3       1 <0>        -0.0001
     16 C14        -7.5035    8.1819   -0.9677 C.3       1 <0>         0.0310
     17 C15        -4.1268    7.8556    0.6690 C.3       1 <0>         0.0018
     18 C16        -3.8896    6.3612    0.4422 C.3       1 <0>        -0.1716
     19 C17        -2.3996    6.0516    0.6002 C.3       1 <0>         0.1271
     20 N2         -2.1725    4.6207    0.3830 N.am      1 <0>        -0.5852
     21 C18        -2.2101    3.6860    1.3587 C.2       1 <0>         0.5272
     22 O2         -2.3877    3.8670    2.5442 O.2       1 <0>        -0.4589
     23 C19        -1.9843    2.3682    0.6571 C.3       1 <0>         0.0430
     24 H1         -2.8886    1.7615    0.6111 H         1 <0>         0.1404
     25 C20        -0.7818    1.6070    1.2445 C.3       1 <0>        -0.1145
     26 C21        -0.0127    1.0858    0.0080 C.3       1 <0>        -0.1399
     27 C22        -0.8061    1.6208   -1.2092 C.3       1 <0>         0.1588
     28 N3         -1.5126    2.7993   -0.6885 N.am      1 <0>        -0.6358
     29 C23        -1.9005    4.0691   -0.8117 C.2       1 <0>         0.7381
     30 O3         -1.9965    4.6545   -1.8725 O.2       1 <0>        -0.5312
     31 H2         -6.7034   15.4052   -4.8272 H         1 <0>         0.0561
     32 H3         -6.8165   14.1986   -6.1309 H         1 <0>         0.0561
     33 H4         -7.7490   15.7112   -6.2347 H         1 <0>         0.0605
     34 H5         -9.2008   13.8146   -5.5686 H         1 <0>         0.0661
     35 H6         -9.0877   15.0212   -4.2649 H         1 <0>         0.0661
     36 H7         -7.3371   13.6591   -3.1562 H         1 <0>         0.0732
     37 H8         -7.4503   12.4526   -4.4599 H         1 <0>         0.0731
     38 H9         -9.8346   12.0686   -3.8976 H         1 <0>         0.0645
     39 H10        -9.7215   13.2752   -2.5939 H         1 <0>         0.0646
     40 H11       -11.2628   11.8733   -2.3785 H         1 <0>         0.1371
     41 H12       -12.9197   10.6104   -1.0680 H         1 <0>         0.1335
     42 H13       -12.1847    8.8555    0.4911 H         1 <0>         0.1304
     43 H14        -9.7894    8.3488    0.7414 H         1 <0>         0.1236
     44 H15        -7.8921    9.0715    1.5164 H         1 <0>         0.0620
     45 H16        -7.5919   10.7890    1.1570 H         1 <0>         0.1239
     46 H17        -5.5380    9.6518    1.9903 H         1 <0>         0.1359
     47 H18        -5.3346   10.2333    0.3201 H         1 <0>         0.1416
     48 H19        -5.4718    8.6324   -1.5270 H         1 <0>         0.1426
     49 H20        -5.7719    6.9148   -1.1672 H         1 <0>         0.1340
     50 H21        -8.0289    7.4706   -0.3304 H         1 <0>         0.0614
     51 H22        -7.8262    8.0520   -2.0007 H         1 <0>         0.1231
     52 H23        -3.8041    8.1263    1.6744 H         1 <0>         0.1351
     53 H24        -3.5570    8.4290   -0.0622 H         1 <0>         0.1383
     54 H25        -4.2124    6.0906   -0.5631 H         1 <0>         0.0974
     55 H26        -4.4594    5.7878    1.1734 H         1 <0>         0.0919
     56 H27        -2.0769    6.3223    1.6055 H         1 <0>         0.1070
     57 H28        -1.8299    6.6250   -0.1310 H         1 <0>         0.1065
     58 H29        -1.1220    0.7739    1.8595 H         1 <0>         0.0977
     59 H30        -0.1527    2.2793    1.8279 H         1 <0>         0.0821
     60 H31         0.0021   -0.0041    0.0020 H         1 <0>         0.0977
     61 H32         1.0041    1.4784    0.0004 H         1 <0>         0.0840
     62 H33        -0.1263    1.9071   -2.0118 H         1 <0>         0.0942
     63 H34        -1.5178    0.8731   -1.5593 H         1 <0>         0.0896
     64 N4         -5.5722    8.1355    0.5333 N.4       1 <0>        -0.3966
     65 H35        -6.0953    7.4873    1.1338 H         1 <0>         0.4239
@<TRIPOS>BOND
     1    1    2 1
     2    1   31 1
     3    1   32 1
     4    1   33 1
     5    2    3 1
     6    2   34 1
     7    2   35 1
     8    3    4 1
     9    3   36 1
    10    3   37 1
    11    4    5 1
    12    4   38 1
    13    4   39 1
    14    5    6 1
    15    6   11 ar
    16    6    7 ar
    17    7    8 ar
    18    7   40 1
    19    8    9 ar
    20    8   41 1
    21    9   10 ar
    22    9   42 1
    23   10   11 ar
    24   10   43 1
    25   11   12 1
    26   12   16 1
    27   12   13 1
    28   13   14 1
    29   13   44 1
    30   13   45 1
    31   14   46 1
    32   14   47 1
    33   14   64 1
    34   15   16 1
    35   15   48 1
    36   15   49 1
    37   15   64 1
    38   16   50 1
    39   16   51 1
    40   17   18 1
    41   17   52 1
    42   17   53 1
    43   17   64 1
    44   18   19 1
    45   18   54 1
    46   18   55 1
    47   19   20 1
    48   19   56 1
    49   19   57 1
    50   20   29 am
    51   20   21 am
    52   21   22 2
    53   21   23 1
    54   23   24 1
    55   23   28 1
    56   23   25 1
    57   25   26 1
    58   25   58 1
    59   25   59 1
    60   26   27 1
    61   26   60 1
    62   26   61 1
    63   27   28 1
    64   27   62 1
    65   27   63 1
    66   28   29 am
    67   29   30 2
    68   64   65 1
@<TRIPOS>MOLECULE
ZINC02183398
   58    61     0     0     0
SMALL
USER_CHARGES

@<TRIPOS>ATOM
      1 C1         -0.0184    1.5028    0.0103 C.3       1 <0>        -0.1097
      2 C2          0.0021   -0.0041    0.0020 C.ar      1 <0>        -0.0900
      3 C3          0.0057   -0.6889   -1.1975 C.ar      1 <0>        -0.1124
      4 C4          0.0240   -2.0714   -1.2060 C.ar      1 <0>        -0.1043
      5 C5          0.0391   -2.7733   -0.0143 C.ar      1 <0>        -0.1142
      6 C6          0.0360   -2.0949    1.1884 C.ar      1 <0>        -0.1134
      7 C7          0.0230   -0.7057    1.2005 C.ar      1 <0>         0.1417
      8 N1          0.0251   -0.0163    2.4152 N.pl3     1 <0>        -0.6736
      9 C8         -1.2352    0.3345    3.0881 C.3       1 <0>         0.1197
     10 C9         -1.1978    1.8246    3.4432 C.3       1 <0>        -0.0264
     11 N2          0.0089    2.1092    4.2300 N.4       1 <0>        -0.3797
     12 C10         1.2060    1.8672    3.4148 C.3       1 <0>        -0.0310
     13 C11         1.2878    0.3743    3.0611 C.3       1 <0>         0.1217
     14 C12        -0.0109    3.5127    4.6631 C.3       1 <0>        -0.0088
     15 C13         1.1804    3.7785    5.5856 C.3       1 <0>        -0.1446
     16 C14         1.1598    5.2404    6.0368 C.3       1 <0>        -0.1348
     17 C15         2.3511    5.5062    6.9593 C.3       1 <0>         0.1203
     18 N3          2.3314    6.9059    7.3913 N.am      1 <0>        -0.5839
     19 C16         2.9387    7.9156    6.7285 C.2       1 <0>         0.5280
     20 O1          3.5134    7.8549    5.6628 O.2       1 <0>        -0.4624
     21 C17         2.7486    9.1336    7.5967 C.3       1 <0>         0.0406
     22 H1          3.6775    9.4439    8.0752 H         1 <0>         0.1401
     23 C18         2.0741   10.2904    6.8440 C.3       1 <0>        -0.1134
     24 C19         1.0402   10.8538    7.8481 C.3       1 <0>        -0.1400
     25 C20         1.1632    9.9439    9.0958 C.3       1 <0>         0.1588
     26 N4          1.7316    8.6772    8.5818 N.am      1 <0>        -0.6354
     27 C21         1.7031    7.3485    8.4924 C.2       1 <0>         0.7366
     28 O2          1.1737    6.6233    9.3116 O.2       1 <0>        -0.5345
     29 H2          1.0042    1.8801    0.0026 H         1 <0>         0.0685
     30 H3         -0.5455    1.8639   -0.8728 H         1 <0>         0.0706
     31 H4         -0.5286    1.8543    0.9071 H         1 <0>         0.0559
     32 H5         -0.0060   -0.1439   -2.1298 H         1 <0>         0.1275
     33 H6          0.0261   -2.6044   -2.1453 H         1 <0>         0.1292
     34 H7          0.0529   -3.8531   -0.0245 H         1 <0>         0.1287
     35 H8          0.0474   -2.6436    2.1185 H         1 <0>         0.1237
     36 H9         -2.0739    0.1380    2.4203 H         1 <0>         0.1157
     37 H10        -1.3414   -0.2563    3.9979 H         1 <0>         0.0792
     38 H11        -1.1827    2.4161    2.5278 H         1 <0>         0.1304
     39 H12        -2.0815    2.0813    4.0274 H         1 <0>         0.1372
     40 H13         1.1483    2.4574    2.5003 H         1 <0>         0.1304
     41 H14         2.0936    2.1552    3.9781 H         1 <0>         0.1380
     42 H15         1.4320   -0.2126    3.9683 H         1 <0>         0.0792
     43 H16         2.1179    0.2041    2.3755 H         1 <0>         0.1152
     44 H17         0.0529    4.1631    3.7908 H         1 <0>         0.1293
     45 H18        -0.9380    3.7143    5.1997 H         1 <0>         0.1326
     46 H19         1.1167    3.1281    6.4580 H         1 <0>         0.0936
     47 H20         2.1075    3.5769    5.0491 H         1 <0>         0.0918
     48 H21         1.2236    5.8908    5.1644 H         1 <0>         0.0804
     49 H22         0.2327    5.4420    6.5734 H         1 <0>         0.0820
     50 H23         2.2874    4.8558    7.8317 H         1 <0>         0.1024
     51 H24         3.2783    5.3046    6.4227 H         1 <0>         0.0982
     52 H25         2.8072   11.0539    6.5838 H         1 <0>         0.0982
     53 H26         1.5734    9.9214    5.9488 H         1 <0>         0.0791
     54 H27         1.2836   11.8848    8.1049 H         1 <0>         0.0981
     55 H28         0.0347   10.7928    7.4317 H         1 <0>         0.0821
     56 H29         1.8471   10.3820    9.8227 H         1 <0>         0.0915
     57 H30         0.1840    9.7751    9.5440 H         1 <0>         0.0937
     58 H31         0.0291    1.5096    5.0413 H         1 <0>         0.4227
@<TRIPOS>BOND
     1    1    2 1
     2    1   29 1
     3    1   30 1
     4    1   31 1
     5    2    7 ar
     6    2    3 ar
     7    3    4 ar
     8    3   32 1
     9    4    5 ar
    10    4   33 1
    11    5    6 ar
    12    5   34 1
    13    6    7 ar
    14    6   35 1
    15    7    8 1
    16    8   13 1
    17    8    9 1
    18    9   10 1
    19    9   36 1
    20    9   37 1
    21   10   11 1
    22   10   38 1
    23   10   39 1
    24   11   12 1
    25   11   14 1
    26   11   58 1
    27   12   13 1
    28   12   40 1
    29   12   41 1
    30   13   42 1
    31   13   43 1
    32   14   15 1
    33   14   44 1
    34   14   45 1
    35   15   16 1
    36   15   46 1
    37   15   47 1
    38   16   17 1
    39   16   48 1
    40   16   49 1
    41   17   18 1
    42   17   50 1
    43   17   51 1
    44   18   27 am
    45   18   19 am
    46   19   20 2
    47   19   21 1
    48   21   22 1
    49   21   26 1
    50   21   23 1
    51   23   24 1
    52   23   52 1
    53   23   53 1
    54   24   25 1
    55   24   54 1
    56   24   55 1
    57   25   26 1
    58   25   56 1
    59   25   57 1
    60   26   27 am
    61   27   28 2
@<TRIPOS>MOLECULE
ZINC02183608
   58    61     0     0     0
SMALL
USER_CHARGES

@<TRIPOS>ATOM
      1 C1         -0.0184    1.5028    0.0103 C.3       1 <0>        -0.1097
      2 C2          0.0021   -0.0041    0.0020 C.ar      1 <0>        -0.0900
      3 C3          0.0057   -0.6889   -1.1975 C.ar      1 <0>        -0.1124
      4 C4          0.0240   -2.0714   -1.2060 C.ar      1 <0>        -0.1043
      5 C5          0.0391   -2.7733   -0.0143 C.ar      1 <0>        -0.1143
      6 C6          0.0360   -2.0949    1.1884 C.ar      1 <0>        -0.1134
      7 C7          0.0230   -0.7057    1.2005 C.ar      1 <0>         0.1418
      8 N1          0.0251   -0.0163    2.4152 N.pl3     1 <0>        -0.6736
      9 C8         -1.2352    0.3345    3.0881 C.3       1 <0>         0.1196
     10 C9         -1.1978    1.8246    3.4432 C.3       1 <0>        -0.0264
     11 N2          0.0089    2.1092    4.2300 N.4       1 <0>        -0.3797
     12 C10         1.2060    1.8672    3.4148 C.3       1 <0>        -0.0310
     13 C11         1.2878    0.3743    3.0611 C.3       1 <0>         0.1217
     14 C12        -0.0109    3.5127    4.6631 C.3       1 <0>        -0.0089
     15 C13         1.1804    3.7785    5.5856 C.3       1 <0>        -0.1444
     16 C14         1.1598    5.2404    6.0368 C.3       1 <0>        -0.1356
     17 C15         2.3511    5.5062    6.9593 C.3       1 <0>         0.1208
     18 N3          2.3314    6.9059    7.3913 N.am      1 <0>        -0.5835
     19 C16         2.9386    7.9153    6.7285 C.2       1 <0>         0.5280
     20 O1          3.6459    7.8305    5.7475 O.2       1 <0>        -0.4614
     21 C17         2.5485    9.1692    7.4689 C.3       1 <0>         0.0417
     22 H1          1.8517    9.7891    6.9048 H         1 <0>         0.1411
     23 C18         3.7774    9.9583    7.9631 C.3       1 <0>        -0.1132
     24 C19         3.2393   10.6288    9.2540 C.3       1 <0>        -0.1382
     25 C20         2.0358    9.7595    9.6810 C.3       1 <0>         0.1566
     26 N4          1.9628    8.6374    8.7290 N.am      1 <0>        -0.6356
     27 C21         1.7033    7.3482    8.4919 C.2       1 <0>         0.7359
     28 O2          0.9874    6.6579    9.1906 O.2       1 <0>        -0.5337
     29 H2          1.0042    1.8801    0.0026 H         1 <0>         0.0685
     30 H3         -0.5455    1.8639   -0.8728 H         1 <0>         0.0706
     31 H4         -0.5286    1.8543    0.9071 H         1 <0>         0.0560
     32 H5         -0.0060   -0.1439   -2.1298 H         1 <0>         0.1275
     33 H6          0.0261   -2.6044   -2.1453 H         1 <0>         0.1291
     34 H7          0.0529   -3.8531   -0.0245 H         1 <0>         0.1287
     35 H8          0.0474   -2.6436    2.1185 H         1 <0>         0.1237
     36 H9         -2.0739    0.1380    2.4203 H         1 <0>         0.1157
     37 H10        -1.3414   -0.2563    3.9979 H         1 <0>         0.0792
     38 H11        -1.1827    2.4161    2.5278 H         1 <0>         0.1305
     39 H12        -2.0815    2.0813    4.0274 H         1 <0>         0.1374
     40 H13         1.1483    2.4574    2.5003 H         1 <0>         0.1304
     41 H14         2.0936    2.1552    3.9781 H         1 <0>         0.1380
     42 H15         1.4320   -0.2126    3.9683 H         1 <0>         0.0791
     43 H16         2.1179    0.2041    2.3755 H         1 <0>         0.1151
     44 H17         0.0529    4.1631    3.7908 H         1 <0>         0.1294
     45 H18        -0.9380    3.7143    5.1997 H         1 <0>         0.1330
     46 H19         1.1167    3.1281    6.4580 H         1 <0>         0.0934
     47 H20         2.1075    3.5769    5.0491 H         1 <0>         0.0914
     48 H21         1.2236    5.8908    5.1644 H         1 <0>         0.0796
     49 H22         0.2327    5.4420    6.5734 H         1 <0>         0.0848
     50 H23         2.2874    4.8558    7.8317 H         1 <0>         0.0997
     51 H24         3.2783    5.3046    6.4227 H         1 <0>         0.0995
     52 H25         4.6045    9.2858    8.1909 H         1 <0>         0.0818
     53 H26         4.0764   10.7090    7.2315 H         1 <0>         0.1000
     54 H27         4.0043   10.6250   10.0304 H         1 <0>         0.0904
     55 H28         2.9153   11.6484    9.0449 H         1 <0>         0.0937
     56 H29         2.1840    9.3875   10.6948 H         1 <0>         0.0887
     57 H30         1.1158   10.3415    9.6265 H         1 <0>         0.0849
     58 H31         0.0291    1.5096    5.0413 H         1 <0>         0.4226
@<TRIPOS>BOND
     1    1    2 1
     2    1   29 1
     3    1   30 1
     4    1   31 1
     5    2    7 ar
     6    2    3 ar
     7    3    4 ar
     8    3   32 1
     9    4    5 ar
    10    4   33 1
    11    5    6 ar
    12    5   34 1
    13    6    7 ar
    14    6   35 1
    15    7    8 1
    16    8   13 1
    17    8    9 1
    18    9   10 1
    19    9   36 1
    20    9   37 1
    21   10   11 1
    22   10   38 1
    23   10   39 1
    24   11   12 1
    25   11   14 1
    26   11   58 1
    27   12   13 1
    28   12   40 1
    29   12   41 1
    30   13   42 1
    31   13   43 1
    32   14   15 1
    33   14   44 1
    34   14   45 1
    35   15   16 1
    36   15   46 1
    37   15   47 1
    38   16   17 1
    39   16   48 1
    40   16   49 1
    41   17   18 1
    42   17   50 1
    43   17   51 1
    44   18   27 am
    45   18   19 am
    46   19   20 2
    47   19   21 1
    48   21   22 1
    49   21   26 1
    50   21   23 1
    51   23   24 1
    52   23   52 1
    53   23   53 1
    54   24   25 1
    55   24   54 1
    56   24   55 1
    57   25   26 1
    58   25   56 1
    59   25   57 1
    60   26   27 am
    61   27   28 2
@<TRIPOS>MOLECULE
ZINC13861501
   64    67     0     0     0
SMALL
USER_CHARGES
(9aR)-2-[4-[4-(o-tolyl)piperazin-1-yl]butyl]-3,6,7,8,9,9a-hexahydropyrido[2,1-c]pyrazine-1,4-dione
@<TRIPOS>ATOM
      1 C1         -5.9216    1.8450  -13.9587 C.3       1 <0>        -0.1104
      2 C2         -6.8149    0.6583  -13.7044 C.ar      1 <0>        -0.0476
      3 C3         -7.4285    0.0155  -14.7619 C.ar      1 <0>        -0.1134
      4 C4         -8.2475   -1.0739  -14.5295 C.ar      1 <0>        -0.0996
      5 C5         -8.4558   -1.5235  -13.2382 C.ar      1 <0>        -0.1139
      6 C6         -7.8417   -0.8886  -12.1769 C.ar      1 <0>        -0.1412
      7 C7         -7.0219    0.2094  -12.4064 C.ar      1 <0>         0.0558
      8 N1         -6.4026    0.8567  -11.3348 N.pl3     1 <0>        -0.4912
      9 C8         -7.3985    1.3863  -10.3928 C.3       1 <0>         0.0273
     10 C9         -6.6844    2.1546   -9.2782 C.3       1 <0>         0.0042
     11 C10        -4.7460    0.7283   -9.5368 C.3       1 <0>         0.0004
     12 C11        -5.4601   -0.0401  -10.6514 C.3       1 <0>         0.0291
     13 C12        -5.0906    1.9387   -7.4677 C.3       1 <0>        -0.0023
     14 C13        -4.3138    0.9171   -6.6348 C.3       1 <0>        -0.1474
     15 C14        -3.6354    1.6261   -5.4609 C.3       1 <0>        -0.1352
     16 C15        -2.8586    0.6045   -4.6280 C.3       1 <0>         0.1209
     17 N2         -2.2090    1.2835   -3.5040 N.am      1 <0>        -0.6219
     18 C16        -0.8485    1.8384   -3.6218 C.3       1 <0>         0.0938
     19 C17        -0.0635    1.4430   -2.3882 C.2       1 <0>         0.4998
     20 O1          1.0782    1.0410   -2.4647 O.2       1 <0>        -0.5024
     21 N3         -0.7017    1.5605   -1.1832 N.am      1 <0>        -0.6011
     22 C18        -0.0127    1.0858    0.0080 C.3       1 <0>         0.1184
     23 C19        -0.7119    1.5706    1.2774 C.3       1 <0>        -0.1337
     24 C20        -2.2062    1.2468    1.1384 C.3       1 <0>        -0.1206
     25 C21        -2.7876    2.1900    0.0869 C.3       1 <0>        -0.1201
     26 C22        -2.0414    2.1168   -1.2169 C.3       1 <0>         0.1333
     27 H1         -1.9278    3.1505   -1.5435 H         1 <0>         0.0889
     28 C23        -2.8364    1.4310   -2.3016 C.2       1 <0>         0.5117
     29 O2         -3.9671    1.0338   -2.1149 O.2       1 <0>        -0.5036
     30 H2         -4.8973    1.5033  -14.1082 H         1 <0>         0.0714
     31 H3         -6.2625    2.3721  -14.8498 H         1 <0>         0.0668
     32 H4         -5.9587    2.5180  -13.1021 H         1 <0>         0.0742
     33 H5         -7.2680    0.3641  -15.7714 H         1 <0>         0.1325
     34 H6         -8.7255   -1.5751  -15.3582 H         1 <0>         0.1308
     35 H7         -9.0959   -2.3750  -13.0602 H         1 <0>         0.1277
     36 H8         -8.0012   -1.2429  -11.1692 H         1 <0>         0.1163
     37 H9         -7.9650    0.5614   -9.9606 H         1 <0>         0.0636
     38 H10        -8.0772    2.0570  -10.9196 H         1 <0>         0.1244
     39 H11        -7.4191    2.5237   -8.5626 H         1 <0>         0.1354
     40 H12        -6.1400    2.9957   -9.7074 H         1 <0>         0.1400
     41 H13        -4.1795    1.5531   -9.9689 H         1 <0>         0.1403
     42 H14        -4.0675    0.0575   -9.0097 H         1 <0>         0.1355
     43 H15        -6.0045   -0.8811  -10.2221 H         1 <0>         0.0633
     44 H16        -4.7256   -0.4095  -11.3670 H         1 <0>         0.1239
     45 H17        -5.8474    2.4153   -6.8447 H         1 <0>         0.1306
     46 H18        -4.4039    2.6950   -7.8478 H         1 <0>         0.1331
     47 H19        -3.5569    0.4405   -7.2578 H         1 <0>         0.0895
     48 H20        -5.0004    0.1607   -6.2546 H         1 <0>         0.0897
     49 H21        -4.3922    2.1028   -4.8379 H         1 <0>         0.0806
     50 H22        -2.9487    2.3825   -5.8411 H         1 <0>         0.0788
     51 H23        -2.1017    0.1279   -5.2510 H         1 <0>         0.0860
     52 H24        -3.5452   -0.1518   -4.2479 H         1 <0>         0.0893
     53 H25        -0.3632    1.4353   -4.5106 H         1 <0>         0.1232
     54 H26        -0.8999    2.9249   -3.6923 H         1 <0>         0.1052
     55 H27         0.0021   -0.0041    0.0020 H         1 <0>         0.0656
     56 H28         1.0121    1.4572    0.0002 H         1 <0>         0.0837
     57 H29        -0.3020    1.0545    2.1455 H         1 <0>         0.0878
     58 H30        -0.5752    2.6464    1.3871 H         1 <0>         0.0755
     59 H31        -2.7088    1.4025    2.0930 H         1 <0>         0.0808
     60 H32        -2.3321    0.2128    0.8176 H         1 <0>         0.0684
     61 H33        -2.7415    3.2117    0.4639 H         1 <0>         0.0840
     62 H34        -3.8306    1.9257   -0.0872 H         1 <0>         0.0976
     63 N4         -5.7565    1.2361   -8.5852 N.4       1 <0>        -0.3981
     64 H35        -6.2900    0.4430   -8.2101 H         1 <0>         0.4245
@<TRIPOS>BOND
     1    1    2 1
     2    1   30 1
     3    1   31 1
     4    1   32 1
     5    2    7 ar
     6    2    3 ar
     7    3    4 ar
     8    3   33 1
     9    4    5 ar
    10    4   34 1
    11    5    6 ar
    12    5   35 1
    13    6    7 ar
    14    6   36 1
    15    7    8 1
    16    8   12 1
    17    8    9 1
    18    9   10 1
    19    9   37 1
    20    9   38 1
    21   10   39 1
    22   10   40 1
    23   10   63 1
    24   11   12 1
    25   11   41 1
    26   11   42 1
    27   11   63 1
    28   12   43 1
    29   12   44 1
    30   13   14 1
    31   13   45 1
    32   13   46 1
    33   13   63 1
    34   14   15 1
    35   14   47 1
    36   14   48 1
    37   15   16 1
    38   15   49 1
    39   15   50 1
    40   16   17 1
    41   16   51 1
    42   16   52 1
    43   17   28 am
    44   17   18 1
    45   18   19 1
    46   18   53 1
    47   18   54 1
    48   19   20 2
    49   19   21 am
    50   21   26 1
    51   21   22 1
    52   22   23 1
    53   22   55 1
    54   22   56 1
    55   23   24 1
    56   23   57 1
    57   23   58 1
    58   24   25 1
    59   24   59 1
    60   24   60 1
    61   25   26 1
    62   25   61 1
    63   25   62 1
    64   26   27 1
    65   26   28 1
    66   28   29 2
    67   63   64 1
@<TRIPOS>MOLECULE
ZINC13861502
   64    67     0     0     0
SMALL
USER_CHARGES
(9aS)-2-[4-[4-(o-tolyl)piperazin-1-yl]butyl]-3,6,7,8,9,9a-hexahydropyrido[2,1-c]pyrazine-1,4-dione
@<TRIPOS>ATOM
      1 C1         -6.5540    7.1544   -9.6857 C.3       1 <0>        -0.1105
      2 C2         -5.4734    8.1050  -10.1324 C.ar      1 <0>        -0.0475
      3 C3         -5.7458    9.0595  -11.0929 C.ar      1 <0>        -0.1134
      4 C4         -4.7551    9.9327  -11.5026 C.ar      1 <0>        -0.0997
      5 C5         -3.4884    9.8534  -10.9529 C.ar      1 <0>        -0.1140
      6 C6         -3.2106    8.9048   -9.9887 C.ar      1 <0>        -0.1412
      7 C7         -4.2024    8.0227   -9.5783 C.ar      1 <0>         0.0560
      8 N1         -3.9237    7.0590   -8.6064 N.pl3     1 <0>        -0.4914
      9 C8         -2.8512    6.1579   -9.0507 C.3       1 <0>         0.0277
     10 C9         -2.6312    5.0717   -7.9950 C.3       1 <0>         0.0039
     11 C10        -3.3609    6.6025   -6.2679 C.3       1 <0>         0.0002
     12 C11        -3.5809    7.6886   -7.3235 C.3       1 <0>         0.0294
     13 C12        -1.9952    4.6879   -5.6900 C.3       1 <0>        -0.0030
     14 C13        -1.4058    5.3674   -4.4524 C.3       1 <0>        -0.1457
     15 C14        -1.1004    4.3118   -3.3878 C.3       1 <0>        -0.1372
     16 C15        -0.5109    4.9913   -2.1502 C.3       1 <0>         0.1214
     17 N2         -0.2186    3.9805   -1.1308 N.am      1 <0>        -0.6223
     18 C16        -1.2208    3.5918   -0.1223 C.3       1 <0>         0.0923
     19 C17        -1.2327    2.0808   -0.0190 C.2       1 <0>         0.5008
     20 O1         -2.2714    1.4570    0.0352 O.2       1 <0>        -0.5056
     21 N3         -0.0177    1.4516    0.0100 N.am      1 <0>        -0.6000
     22 C18         0.0021   -0.0041    0.0020 C.3       1 <0>         0.1196
     23 C19         1.3898   -0.5376    0.3557 C.3       1 <0>        -0.1345
     24 C20         2.4084    0.1964   -0.5301 C.3       1 <0>        -0.1191
     25 C21         2.4970    1.6391   -0.0361 C.3       1 <0>        -0.1201
     26 C22         1.1518    2.3103    0.0035 C.3       1 <0>         0.1321
     27 H1          1.1200    2.8647    0.9414 H         1 <0>         0.0899
     28 C23         0.9936    3.3573   -1.0723 C.2       1 <0>         0.5114
     29 O2          1.8923    3.6291   -1.8401 O.2       1 <0>        -0.5037
     30 H2         -7.0925    7.5868   -8.8424 H         1 <0>         0.0714
     31 H3         -7.2473    6.9800  -10.5085 H         1 <0>         0.0668
     32 H4         -6.1040    6.2089   -9.3832 H         1 <0>         0.0743
     33 H5         -6.7338    9.1241  -11.5242 H         1 <0>         0.1325
     34 H6         -4.9709   10.6785  -12.2533 H         1 <0>         0.1307
     35 H7         -2.7170   10.5372  -11.2749 H         1 <0>         0.1277
     36 H8         -2.2225    8.8463   -9.5567 H         1 <0>         0.1163
     37 H9         -1.9309    6.7263   -9.1849 H         1 <0>         0.0636
     38 H10        -3.1335    5.6944   -9.9960 H         1 <0>         0.1244
     39 H11        -1.8165    4.4192   -8.3090 H         1 <0>         0.1353
     40 H12        -3.5432    4.4859   -7.8804 H         1 <0>         0.1401
     41 H13        -4.2812    6.0341   -6.1337 H         1 <0>         0.1403
     42 H14        -3.0782    7.0660   -5.3227 H         1 <0>         0.1356
     43 H15        -2.6689    8.2745   -7.4381 H         1 <0>         0.0633
     44 H16        -4.3956    8.3412   -7.0096 H         1 <0>         0.1239
     45 H17        -1.2779    3.9692   -6.0863 H         1 <0>         0.1302
     46 H18        -2.9149    4.1704   -5.4171 H         1 <0>         0.1332
     47 H19        -2.1231    6.0861   -4.0562 H         1 <0>         0.0898
     48 H20        -0.4860    5.8848   -4.7253 H         1 <0>         0.0899
     49 H21        -0.3830    3.5931   -3.7840 H         1 <0>         0.0783
     50 H22        -2.0201    3.7943   -3.1149 H         1 <0>         0.0780
     51 H23        -1.2283    5.7100   -1.7540 H         1 <0>         0.0870
     52 H24         0.4088    5.5087   -2.4231 H         1 <0>         0.0921
     53 H25        -0.9568    4.0238    0.8431 H         1 <0>         0.1078
     54 H26        -2.2051    3.9474   -0.4268 H         1 <0>         0.1228
     55 H27        -0.7199   -0.3755    0.7293 H         1 <0>         0.0833
     56 H28        -0.2757   -0.3600   -0.9901 H         1 <0>         0.0638
     57 H29         1.6045   -0.3421    1.4063 H         1 <0>         0.0764
     58 H30         1.4347   -1.6091    0.1612 H         1 <0>         0.0876
     59 H31         3.3836   -0.2833   -0.4471 H         1 <0>         0.0808
     60 H32         2.0749    0.1807   -1.5677 H         1 <0>         0.0667
     61 H33         2.9243    1.6440    0.9666 H         1 <0>         0.0852
     62 H34         3.1518    2.2012   -0.7020 H         1 <0>         0.0985
     63 N4         -2.2657    5.7171   -6.7164 N.4       1 <0>        -0.3977
     64 H35        -1.4181    6.2794   -6.8565 H         1 <0>         0.4243
@<TRIPOS>BOND
     1    1    2 1
     2    1   30 1
     3    1   31 1
     4    1   32 1
     5    2    7 ar
     6    2    3 ar
     7    3    4 ar
     8    3   33 1
     9    4    5 ar
    10    4   34 1
    11    5    6 ar
    12    5   35 1
    13    6    7 ar
    14    6   36 1
    15    7    8 1
    16    8   12 1
    17    8    9 1
    18    9   10 1
    19    9   37 1
    20    9   38 1
    21   10   39 1
    22   10   40 1
    23   10   63 1
    24   11   12 1
    25   11   41 1
    26   11   42 1
    27   11   63 1
    28   12   43 1
    29   12   44 1
    30   13   14 1
    31   13   45 1
    32   13   46 1
    33   13   63 1
    34   14   15 1
    35   14   47 1
    36   14   48 1
    37   15   16 1
    38   15   49 1
    39   15   50 1
    40   16   17 1
    41   16   51 1
    42   16   52 1
    43   17   28 am
    44   17   18 1
    45   18   19 1
    46   18   53 1
    47   18   54 1
    48   19   20 2
    49   19   21 am
    50   21   26 1
    51   21   22 1
    52   22   23 1
    53   22   55 1
    54   22   56 1
    55   23   24 1
    56   23   57 1
    57   23   58 1
    58   24   25 1
    59   24   59 1
    60   24   60 1
    61   25   26 1
    62   25   61 1
    63   25   62 1
    64   26   27 1
    65   26   28 1
    66   28   29 2
    67   63   64 1
@<TRIPOS>MOLECULE
ZINC02183613
   61    64     0     0     0
SMALL
USER_CHARGES
(8aS)-2-[4-[4-[3-(trifluoromethyl)phenyl]piperazin-1-yl]butyl]-6,7,8,8a-tetrahydro-3H-pyrrolo[2,1-c]pyrazine-1,4-dione
@<TRIPOS>ATOM
      1 C1          1.1766    1.7820    0.0004 C.ar      1 <0>        -0.0881
      2 C2         -0.0126    1.0758    0.0080 C.ar      1 <0>        -0.0800
      3 C3         -1.2201    1.7492    0.0174 C.ar      1 <0>        -0.1517
      4 C4         -1.2424    3.1302    0.0307 C.ar      1 <0>        -0.0809
      5 C5         -0.0501    3.8425    0.0232 C.ar      1 <0>         0.0883
      6 C6          1.1615    3.1627    0.0080 C.ar      1 <0>        -0.1326
      7 N1         -0.0690    5.2391    0.0313 N.pl3     1 <0>        -0.4858
      8 C7         -0.8499    5.7618   -1.0985 C.3       1 <0>         0.0236
      9 C8         -0.9128    7.2884   -1.0089 C.3       1 <0>        -0.0014
     10 C9          1.2328    7.3110    0.1113 C.3       1 <0>         0.0031
     11 C10         1.2956    5.7844    0.0217 C.3       1 <0>         0.0191
     12 C11         0.4320    9.3025   -1.0100 C.3       1 <0>        -0.0027
     13 C12        -0.1693    9.8121   -2.3214 C.3       1 <0>        -0.1473
     14 C13        -0.1901   11.3419   -2.3125 C.3       1 <0>        -0.1337
     15 C14        -0.7914   11.8514   -3.6239 C.3       1 <0>         0.1106
     16 N2         -0.8112   13.3163   -3.6153 N.am      1 <0>        -0.6110
     17 C15         0.3448   14.0423   -4.1383 C.3       1 <0>         0.0996
     18 C16        -0.1098   15.3268   -4.7920 C.2       1 <0>         0.5238
     19 O1          0.4826   15.7848   -5.7461 O.2       1 <0>        -0.5134
     20 N3         -1.1907   15.9476   -4.2855 N.am      1 <0>        -0.6138
     21 C17        -1.8289   17.1848   -4.7402 C.3       1 <0>         0.1041
     22 C18        -3.3295   17.0287   -4.4290 C.3       1 <0>        -0.1350
     23 C19        -3.4191   15.8964   -3.3874 C.3       1 <0>        -0.1167
     24 C20        -1.9669   15.4560   -3.1309 C.3       1 <0>         0.1148
     25 H1         -1.5899   15.8767   -2.1987 H         1 <0>         0.1213
     26 C21        -1.8942   13.9492   -3.1319 C.2       1 <0>         0.5178
     27 O2         -2.8197   13.3029   -2.6884 O.2       1 <0>        -0.5169
     28 C22        -2.5133    0.9755    0.0193 C.3       1 <0>         0.5070
     29 F1         -2.2364   -0.3958    0.0105 F         1 <0>        -0.1708
     30 F2         -3.2467    1.2958    1.1668 F         1 <0>        -0.1720
     31 F3         -3.2575    1.3082   -1.1177 F         1 <0>        -0.1744
     32 H2          2.1181    1.2530   -0.0118 H         1 <0>         0.1442
     33 H3          0.0021   -0.0041    0.0020 H         1 <0>         0.1468
     34 H4         -2.1859    3.6556    0.0425 H         1 <0>         0.1395
     35 H5          2.0904    3.7136    0.0017 H         1 <0>         0.1374
     36 H6         -0.3735    5.4718   -2.0350 H         1 <0>         0.0725
     37 H7         -1.8599    5.3535   -1.0623 H         1 <0>         0.1290
     38 H8         -1.4136    7.5782   -0.0852 H         1 <0>         0.1427
     39 H9         -1.4671    7.6806   -1.8616 H         1 <0>         0.1404
     40 H10         0.7563    7.6010    1.0477 H         1 <0>         0.1418
     41 H11         2.2428    7.7192    0.0755 H         1 <0>         0.1395
     42 H12         1.8498    5.3925    0.8745 H         1 <0>         0.1315
     43 H13         1.7966    5.4943   -0.9019 H         1 <0>         0.0736
     44 H14        -0.1721    9.6528   -0.1731 H         1 <0>         0.1339
     45 H15         1.4496    9.6791   -0.9064 H         1 <0>         0.1317
     46 H16         0.4347    9.4618   -3.1584 H         1 <0>         0.0895
     47 H17        -1.1870    9.4355   -2.4250 H         1 <0>         0.0907
     48 H18        -0.7941   11.6922   -1.4755 H         1 <0>         0.0815
     49 H19         0.8275   11.7185   -2.2089 H         1 <0>         0.0779
     50 H20        -0.1873   11.5011   -4.4608 H         1 <0>         0.0859
     51 H21        -1.8090   11.4749   -3.7275 H         1 <0>         0.0931
     52 H22         1.0275   14.2737   -3.3207 H         1 <0>         0.1044
     53 H23         0.8587   13.4235   -4.8739 H         1 <0>         0.1223
     54 H24        -1.4204   18.0385   -4.1994 H         1 <0>         0.0787
     55 H25        -1.6793   17.3123   -5.8123 H         1 <0>         0.0884
     56 H26        -3.8753   16.7544   -5.3318 H         1 <0>         0.0802
     57 H27        -3.7283   17.9546   -4.0146 H         1 <0>         0.0906
     58 H28        -4.0008   15.0644   -3.7841 H         1 <0>         0.0869
     59 H29        -3.8690   16.2665   -2.4661 H         1 <0>         0.0940
     60 N4          0.4643    7.8247   -1.0419 N.4       1 <0>        -0.3986
     61 H30         0.9207    7.5196   -1.9096 H         1 <0>         0.4252
@<TRIPOS>BOND
     1    1    6 ar
     2    1    2 ar
     3    1   32 1
     4    2    3 ar
     5    2   33 1
     6    3    4 ar
     7    3   28 1
     8    4    5 ar
     9    4   34 1
    10    5    6 ar
    11    5    7 1
    12    6   35 1
    13    7   11 1
    14    7    8 1
    15    8    9 1
    16    8   36 1
    17    8   37 1
    18    9   38 1
    19    9   39 1
    20    9   60 1
    21   10   11 1
    22   10   40 1
    23   10   41 1
    24   10   60 1
    25   11   42 1
    26   11   43 1
    27   12   13 1
    28   12   44 1
    29   12   45 1
    30   12   60 1
    31   13   14 1
    32   13   46 1
    33   13   47 1
    34   14   15 1
    35   14   48 1
    36   14   49 1
    37   15   16 1
    38   15   50 1
    39   15   51 1
    40   16   26 am
    41   16   17 1
    42   17   18 1
    43   17   52 1
    44   17   53 1
    45   18   19 2
    46   18   20 am
    47   20   24 1
    48   20   21 1
    49   21   22 1
    50   21   54 1
    51   21   55 1
    52   22   23 1
    53   22   56 1
    54   22   57 1
    55   23   24 1
    56   23   58 1
    57   23   59 1
    58   24   25 1
    59   24   26 1
    60   26   27 2
    61   28   29 1
    62   28   30 1
    63   28   31 1
    64   60   61 1
@<TRIPOS>MOLECULE
ZINC02183614
   61    64     0     0     0
SMALL
USER_CHARGES
(8aR)-2-[4-[4-[3-(trifluoromethyl)phenyl]piperazin-1-yl]butyl]-6,7,8,8a-tetrahydro-3H-pyrrolo[2,1-c]pyrazine-1,4-dione
@<TRIPOS>ATOM
      1 C1          1.1766    1.7820    0.0004 C.ar      1 <0>        -0.0880
      2 C2         -0.0126    1.0758    0.0080 C.ar      1 <0>        -0.0800
      3 C3         -1.2201    1.7492    0.0174 C.ar      1 <0>        -0.1518
      4 C4         -1.2424    3.1302    0.0307 C.ar      1 <0>        -0.0810
      5 C5         -0.0501    3.8425    0.0232 C.ar      1 <0>         0.0881
      6 C6          1.1615    3.1627    0.0080 C.ar      1 <0>        -0.1325
      7 N1         -0.0690    5.2391    0.0313 N.pl3     1 <0>        -0.4857
      8 C7         -0.8499    5.7618   -1.0985 C.3       1 <0>         0.0233
      9 C8         -0.9128    7.2884   -1.0089 C.3       1 <0>        -0.0048
     10 C9          1.2328    7.3110    0.1113 C.3       1 <0>         0.0037
     11 C10         1.2956    5.7844    0.0217 C.3       1 <0>         0.0188
     12 C11         0.4320    9.3025   -1.0100 C.3       1 <0>        -0.0021
     13 C12        -0.5830    9.8048   -2.0389 C.3       1 <0>        -0.1490
     14 C13        -0.6037   11.3346   -2.0300 C.3       1 <0>        -0.1342
     15 C14        -1.6186   11.8369   -3.0588 C.3       1 <0>         0.1110
     16 N2         -1.6385   13.3018   -3.0503 N.am      1 <0>        -0.6111
     17 C15        -2.5667   13.9932   -2.1570 C.3       1 <0>         0.0993
     18 C16        -3.0425   15.2723   -2.7979 C.2       1 <0>         0.5227
     19 O1         -4.1594   15.6956   -2.5874 O.2       1 <0>        -0.5126
     20 N3         -2.1948   15.9299   -3.6137 N.am      1 <0>        -0.6132
     21 C17        -2.4372   17.1655   -4.3578 C.3       1 <0>         0.1050
     22 C18        -1.4135   17.2209   -5.5057 C.3       1 <0>        -0.1339
     23 C19        -0.5537   15.9501   -5.3540 C.3       1 <0>        -0.1132
     24 C20        -0.8216   15.4779   -3.9111 C.3       1 <0>         0.1141
     25 H1         -0.0949   15.8991   -3.2164 H         1 <0>         0.1217
     26 C21        -0.8064   13.9701   -3.8681 C.2       1 <0>         0.5174
     27 O2         -0.0379   13.3558   -4.5772 O.2       1 <0>        -0.5169
     28 C22        -2.5133    0.9755    0.0193 C.3       1 <0>         0.5070
     29 F1         -2.2364   -0.3958    0.0105 F         1 <0>        -0.1708
     30 F2         -3.2467    1.2958    1.1668 F         1 <0>        -0.1721
     31 F3         -3.2575    1.3082   -1.1177 F         1 <0>        -0.1744
     32 H2          2.1181    1.2530   -0.0118 H         1 <0>         0.1443
     33 H3          0.0021   -0.0041    0.0020 H         1 <0>         0.1468
     34 H4         -2.1859    3.6556    0.0425 H         1 <0>         0.1394
     35 H5          2.0904    3.7136    0.0017 H         1 <0>         0.1374
     36 H6         -0.3735    5.4718   -2.0350 H         1 <0>         0.0725
     37 H7         -1.8599    5.3535   -1.0623 H         1 <0>         0.1288
     38 H8         -1.4136    7.5782   -0.0852 H         1 <0>         0.1425
     39 H9         -1.4671    7.6806   -1.8616 H         1 <0>         0.1427
     40 H10         0.7563    7.6010    1.0477 H         1 <0>         0.1416
     41 H11         2.2428    7.7192    0.0755 H         1 <0>         0.1397
     42 H12         1.8498    5.3925    0.8745 H         1 <0>         0.1315
     43 H13         1.7966    5.4943   -0.9019 H         1 <0>         0.0738
     44 H14         0.1496    9.6563   -0.0185 H         1 <0>         0.1332
     45 H15         1.4226    9.6808   -1.2623 H         1 <0>         0.1313
     46 H16        -0.3006    9.4510   -3.0304 H         1 <0>         0.0909
     47 H17        -1.5736    9.4265   -1.7866 H         1 <0>         0.0922
     48 H18        -0.8861   11.6884   -1.0384 H         1 <0>         0.0780
     49 H19         0.3869   11.7129   -2.2822 H         1 <0>         0.0810
     50 H20        -1.3363   11.4832   -4.0504 H         1 <0>         0.0929
     51 H21        -2.6093   11.4587   -2.8065 H         1 <0>         0.0861
     52 H22        -3.4223   13.3490   -1.9545 H         1 <0>         0.1229
     53 H23        -2.0612   14.2275   -1.2202 H         1 <0>         0.1042
     54 H24        -2.3040   18.0253   -3.7011 H         1 <0>         0.0765
     55 H25        -3.4488   17.1631   -4.7636 H         1 <0>         0.0828
     56 H26        -0.7908   18.1107   -5.4129 H         1 <0>         0.0873
     57 H27        -1.9256   17.2169   -6.4680 H         1 <0>         0.0862
     58 H28         0.5020   16.1861   -5.4879 H         1 <0>         0.0964
     59 H29        -0.8686   15.1894   -6.0684 H         1 <0>         0.0838
     60 N4          0.4643    7.8247   -1.0419 N.4       1 <0>        -0.3986
     61 H30         0.9207    7.5196   -1.9096 H         1 <0>         0.4266
@<TRIPOS>BOND
     1    1    6 ar
     2    1    2 ar
     3    1   32 1
     4    2    3 ar
     5    2   33 1
     6    3    4 ar
     7    3   28 1
     8    4    5 ar
     9    4   34 1
    10    5    6 ar
    11    5    7 1
    12    6   35 1
    13    7   11 1
    14    7    8 1
    15    8    9 1
    16    8   36 1
    17    8   37 1
    18    9   38 1
    19    9   39 1
    20    9   60 1
    21   10   11 1
    22   10   40 1
    23   10   41 1
    24   10   60 1
    25   11   42 1
    26   11   43 1
    27   12   13 1
    28   12   44 1
    29   12   45 1
    30   12   60 1
    31   13   14 1
    32   13   46 1
    33   13   47 1
    34   14   15 1
    35   14   48 1
    36   14   49 1
    37   15   16 1
    38   15   50 1
    39   15   51 1
    40   16   26 am
    41   16   17 1
    42   17   18 1
    43   17   52 1
    44   17   53 1
    45   18   19 2
    46   18   20 am
    47   20   24 1
    48   20   21 1
    49   21   22 1
    50   21   54 1
    51   21   55 1
    52   22   23 1
    53   22   56 1
    54   22   57 1
    55   23   24 1
    56   23   58 1
    57   23   59 1
    58   24   25 1
    59   24   26 1
    60   26   27 2
    61   28   29 1
    62   28   30 1
    63   28   31 1
    64   60   61 1
@<TRIPOS>MOLECULE
ZINC08399027
   71    74     0     0     0
SMALL
USER_CHARGES
8-[3-[4-(2-butoxyphenyl)piperazin-1-yl]propyl]-1,8-diazabicyclo[4.4.0]decane-7,10-dione
@<TRIPOS>ATOM
      1 C1        -12.4926    0.5965  -11.0484 C.3       1 <0>        -0.1535
      2 C2        -12.9689    1.6056  -10.0016 C.3       1 <0>        -0.1237
      3 C3        -11.7687    2.1149   -9.2010 C.3       1 <0>        -0.1148
      4 C4        -12.2450    3.1240   -8.1542 C.3       1 <0>         0.0529
      5 O1        -11.1241    3.5996   -7.4064 O.3       1 <0>        -0.2972
      6 C5        -11.3760    4.5103   -6.4281 C.ar      1 <0>         0.1686
      7 C6        -12.6729    4.9359   -6.1931 C.ar      1 <0>        -0.2038
      8 C7        -12.9277    5.8612   -5.1975 C.ar      1 <0>        -0.0617
      9 C8        -11.8905    6.3641   -4.4341 C.ar      1 <0>        -0.1467
     10 C9        -10.5940    5.9409   -4.6591 C.ar      1 <0>        -0.1056
     11 C10       -10.3302    5.0169   -5.6596 C.ar      1 <0>         0.0232
     12 N1         -9.0176    4.5905   -5.8927 N.pl3     1 <0>        -0.4802
     13 C11        -8.1537    5.7214   -6.2592 C.3       1 <0>         0.0292
     14 C12        -6.7500    5.2039   -6.5824 C.3       1 <0>         0.0047
     15 C13        -7.0766    3.3603   -5.0483 C.3       1 <0>         0.0009
     16 C14        -8.4803    3.8778   -4.7252 C.3       1 <0>         0.0304
     17 C15        -4.8351    4.0437   -5.6595 C.3       1 <0>         0.0002
     18 C16        -4.2253    3.5327   -4.3526 C.3       1 <0>        -0.1687
     19 C17        -2.7904    3.0666   -4.6073 C.3       1 <0>         0.1159
     20 N2         -2.2065    2.5773   -3.3560 N.am      1 <0>        -0.6071
     21 C18        -2.3510    1.1664   -3.0093 C.3       1 <0>         0.0967
     22 C19        -1.2540    0.7417   -2.0731 C.2       1 <0>         0.5115
     23 O2         -0.8207   -0.3891   -2.1404 O.2       1 <0>        -0.5140
     24 N3         -0.7459    1.5841   -1.1687 N.am      1 <0>        -0.6091
     25 C20        -0.0127    1.0858    0.0080 C.3       1 <0>         0.1102
     26 C21        -0.7535    1.5920    1.2546 C.3       1 <0>        -0.1387
     27 C22        -0.8860    3.1143    1.1993 C.3       1 <0>        -0.1217
     28 C23        -1.6583    3.5389   -0.0553 C.3       1 <0>        -0.1178
     29 C24        -0.9034    3.0354   -1.2842 C.3       1 <0>         0.1253
     30 H1          0.0902    3.4828   -1.2580 H         1 <0>         0.1173
     31 C25        -1.5539    3.4374   -2.5614 C.2       1 <0>         0.5270
     32 O3         -1.4901    4.6002   -2.8998 O.2       1 <0>        -0.5200
     33 H2        -11.7846    1.0788  -11.7222 H         1 <0>         0.0561
     34 H3        -12.0062   -0.2420  -10.5498 H         1 <0>         0.0560
     35 H4        -13.3476    0.2336  -11.6187 H         1 <0>         0.0606
     36 H5        -13.6769    1.1232   -9.3277 H         1 <0>         0.0661
     37 H6        -13.4553    2.4440  -10.5001 H         1 <0>         0.0662
     38 H7        -11.0607    2.5972   -9.8748 H         1 <0>         0.0732
     39 H8        -11.2823    1.2764   -8.7024 H         1 <0>         0.0729
     40 H9        -12.9531    2.6416   -7.4803 H         1 <0>         0.0645
     41 H10       -12.7314    3.9624   -8.6527 H         1 <0>         0.0647
     42 H11       -13.4854    4.5448   -6.7873 H         1 <0>         0.1371
     43 H12       -13.9396    6.1916   -5.0155 H         1 <0>         0.1336
     44 H13       -12.0943    7.0863   -3.6574 H         1 <0>         0.1304
     45 H14        -9.7861    6.3323   -4.0586 H         1 <0>         0.1237
     46 H15        -8.0999    6.4228   -5.4266 H         1 <0>         0.0622
     47 H16        -8.5657    6.2253   -7.1335 H         1 <0>         0.1237
     48 H17        -6.0999    6.0441   -6.8264 H         1 <0>         0.1357
     49 H18        -6.7997    4.5236   -7.4325 H         1 <0>         0.1411
     50 H19        -7.1304    2.6589   -5.8810 H         1 <0>         0.1415
     51 H20        -6.6646    2.8564   -4.1740 H         1 <0>         0.1331
     52 H21        -8.4302    4.5583   -3.8751 H         1 <0>         0.0614
     53 H22        -9.1306    3.0379   -4.4809 H         1 <0>         0.1226
     54 H23        -4.2431    4.8784   -6.0347 H         1 <0>         0.1341
     55 H24        -4.8394    3.2408   -6.3967 H         1 <0>         0.1357
     56 H25        -4.8173    2.6979   -3.9773 H         1 <0>         0.0895
     57 H26        -4.2210    4.3355   -3.6153 H         1 <0>         0.0926
     58 H27        -2.1984    3.9013   -4.9826 H         1 <0>         0.1020
     59 H28        -2.7947    2.2637   -5.3446 H         1 <0>         0.0953
     60 H29        -2.3030    0.5652   -3.9172 H         1 <0>         0.1196
     61 H30        -3.3164    1.0105   -2.5277 H         1 <0>         0.1028
     62 H31         0.0021   -0.0041    0.0020 H         1 <0>         0.1008
     63 H32         1.0070    1.4707    0.0003 H         1 <0>         0.0802
     64 H33        -1.7467    1.1445    1.2922 H         1 <0>         0.0683
     65 H34        -0.1960    1.3082    2.1472 H         1 <0>         0.0857
     66 H35         0.1080    3.5612    1.1793 H         1 <0>         0.0723
     67 H36        -1.4173    3.4625    2.0850 H         1 <0>         0.0779
     68 H37        -1.7309    4.6259   -0.0901 H         1 <0>         0.0891
     69 H38        -2.6572    3.1031   -0.0352 H         1 <0>         0.0708
     70 N4         -6.2130    4.5092   -5.3935 N.4       1 <0>        -0.3970
     71 H39        -6.1970    5.1643   -4.6030 H         1 <0>         0.4243
@<TRIPOS>BOND
     1    1    2 1
     2    1   33 1
     3    1   34 1
     4    1   35 1
     5    2    3 1
     6    2   36 1
     7    2   37 1
     8    3    4 1
     9    3   38 1
    10    3   39 1
    11    4    5 1
    12    4   40 1
    13    4   41 1
    14    5    6 1
    15    6   11 ar
    16    6    7 ar
    17    7    8 ar
    18    7   42 1
    19    8    9 ar
    20    8   43 1
    21    9   10 ar
    22    9   44 1
    23   10   11 ar
    24   10   45 1
    25   11   12 1
    26   12   16 1
    27   12   13 1
    28   13   14 1
    29   13   46 1
    30   13   47 1
    31   14   48 1
    32   14   49 1
    33   14   70 1
    34   15   16 1
    35   15   50 1
    36   15   51 1
    37   15   70 1
    38   16   52 1
    39   16   53 1
    40   17   18 1
    41   17   54 1
    42   17   55 1
    43   17   70 1
    44   18   19 1
    45   18   56 1
    46   18   57 1
    47   19   20 1
    48   19   58 1
    49   19   59 1
    50   20   31 am
    51   20   21 1
    52   21   22 1
    53   21   60 1
    54   21   61 1
    55   22   23 2
    56   22   24 am
    57   24   29 1
    58   24   25 1
    59   25   26 1
    60   25   62 1
    61   25   63 1
    62   26   27 1
    63   26   64 1
    64   26   65 1
    65   27   28 1
    66   27   66 1
    67   27   67 1
    68   28   29 1
    69   28   68 1
    70   28   69 1
    71   29   30 1
    72   29   31 1
    73   31   32 2
    74   70   71 1
@<TRIPOS>MOLECULE
ZINC08399030
   71    74     0     0     0
SMALL
USER_CHARGES
8-[3-[4-(2-butoxyphenyl)piperazin-1-yl]propyl]-1,8-diazabicyclo[4.4.0]decane-7,10-dione
@<TRIPOS>ATOM
      1 C1          2.4768    6.7487  -13.5394 C.3       1 <0>        -0.1535
      2 C2          1.2703    5.8094  -13.5958 C.3       1 <0>        -0.1236
      3 C3          0.6999    5.6267  -12.1879 C.3       1 <0>        -0.1151
      4 C4         -0.5065    4.6875  -12.2444 C.3       1 <0>         0.0530
      5 O1         -1.0393    4.5168  -10.9294 O.3       1 <0>        -0.2972
      6 C5         -2.1233    3.7051  -10.8029 C.ar      1 <0>         0.1686
      7 C6         -2.6615    3.0867  -11.9192 C.ar      1 <0>        -0.2038
      8 C7         -3.7631    2.2610  -11.7890 C.ar      1 <0>        -0.0618
      9 C8         -4.3305    2.0500  -10.5460 C.ar      1 <0>        -0.1467
     10 C9         -3.7965    2.6596   -9.4263 C.ar      1 <0>        -0.1056
     11 C10        -2.6947    3.4934   -9.5501 C.ar      1 <0>         0.0233
     12 N1         -2.1550    4.1158   -8.4185 N.pl3     1 <0>        -0.4802
     13 C11        -3.1482    4.9842   -7.7711 C.3       1 <0>         0.0294
     14 C12        -2.4975    5.7053   -6.5883 C.3       1 <0>         0.0048
     15 C13        -0.9801    3.8436   -6.2880 C.3       1 <0>         0.0012
     16 C14        -1.6307    3.1225   -7.4708 C.3       1 <0>         0.0309
     17 C15        -1.4069    5.3652   -4.4529 C.3       1 <0>         0.0009
     18 C16        -1.1012    4.3103   -3.3877 C.3       1 <0>        -0.1731
     19 C17        -0.5113    4.9906   -2.1508 C.3       1 <0>         0.1263
     20 N2         -0.2186    3.9805   -1.1308 N.am      1 <0>        -0.6228
     21 C18        -1.2208    3.5918   -0.1223 C.3       1 <0>         0.0913
     22 C19        -1.2327    2.0808   -0.0190 C.2       1 <0>         0.4996
     23 O2         -2.2714    1.4570    0.0352 O.2       1 <0>        -0.5044
     24 N3         -0.0177    1.4516    0.0100 N.am      1 <0>        -0.5995
     25 C20         0.0021   -0.0041    0.0020 C.3       1 <0>         0.1196
     26 C21         1.3898   -0.5376    0.3557 C.3       1 <0>        -0.1351
     27 C22         2.4084    0.1964   -0.5301 C.3       1 <0>        -0.1188
     28 C23         2.4970    1.6391   -0.0361 C.3       1 <0>        -0.1206
     29 C24         1.1518    2.3103    0.0035 C.3       1 <0>         0.1321
     30 H1          1.1200    2.8647    0.9414 H         1 <0>         0.0914
     31 C25         0.9936    3.3573   -1.0723 C.2       1 <0>         0.5121
     32 O3          1.8923    3.6291   -1.8401 O.2       1 <0>        -0.5001
     33 H2          2.8831    6.8789  -14.5424 H         1 <0>         0.0605
     34 H3          2.1659    7.7161  -13.1449 H         1 <0>         0.0561
     35 H4          3.2407    6.3203  -12.8906 H         1 <0>         0.0561
     36 H5          1.5812    4.8420  -13.9903 H         1 <0>         0.0661
     37 H6          0.5064    6.2379  -14.2446 H         1 <0>         0.0661
     38 H7          0.3891    6.5941  -11.7935 H         1 <0>         0.0731
     39 H8          1.4639    5.1983  -11.5392 H         1 <0>         0.0730
     40 H9         -0.1957    3.7200  -12.6388 H         1 <0>         0.0645
     41 H10        -1.2705    5.1159  -12.8931 H         1 <0>         0.0647
     42 H11        -2.2205    3.2491  -12.8916 H         1 <0>         0.1371
     43 H12        -4.1812    1.7794  -12.6606 H         1 <0>         0.1336
     44 H13        -5.1906    1.4040  -10.4491 H         1 <0>         0.1305
     45 H14        -4.2391    2.4898   -8.4560 H         1 <0>         0.1236
     46 H15        -3.9822    4.3798   -7.4144 H         1 <0>         0.0620
     47 H16        -3.5121    5.7188   -8.4893 H         1 <0>         0.1238
     48 H17        -3.2399    6.3279   -6.0889 H         1 <0>         0.1356
     49 H18        -1.6808    6.3308   -6.9484 H         1 <0>         0.1411
     50 H19        -0.1461    4.4480   -6.6447 H         1 <0>         0.1417
     51 H20        -0.6161    3.1089   -5.5697 H         1 <0>         0.1327
     52 H21        -2.4475    2.4969   -7.1107 H         1 <0>         0.0614
     53 H22        -0.8887    2.4996   -7.9703 H         1 <0>         0.1227
     54 H23        -2.1240    6.0842   -4.0569 H         1 <0>         0.1335
     55 H24        -0.4872    5.8824   -4.7265 H         1 <0>         0.1362
     56 H25        -0.3840    3.5913   -3.7837 H         1 <0>         0.0909
     57 H26        -2.0208    3.7931   -3.1141 H         1 <0>         0.0894
     58 H27        -1.2285    5.7096   -1.7548 H         1 <0>         0.0952
     59 H28         0.4084    5.5078   -2.4244 H         1 <0>         0.0999
     60 H29        -0.9568    4.0238    0.8431 H         1 <0>         0.1103
     61 H30        -2.2051    3.9474   -0.4268 H         1 <0>         0.1235
     62 H31        -0.7199   -0.3755    0.7293 H         1 <0>         0.0838
     63 H32        -0.2757   -0.3600   -0.9901 H         1 <0>         0.0636
     64 H33         1.6045   -0.3421    1.4063 H         1 <0>         0.0771
     65 H34         1.4347   -1.6091    0.1612 H         1 <0>         0.0881
     66 H35         3.3836   -0.2833   -0.4471 H         1 <0>         0.0816
     67 H36         2.0749    0.1807   -1.5677 H         1 <0>         0.0661
     68 H37         2.9243    1.6440    0.9666 H         1 <0>         0.0862
     69 H38         3.1518    2.2012   -0.7020 H         1 <0>         0.0990
     70 N4         -1.9947    4.6959   -5.6330 N.4       1 <0>        -0.3968
     71 H39        -2.7780    4.1069   -5.3267 H         1 <0>         0.4236
@<TRIPOS>BOND
     1    1    2 1
     2    1   33 1
     3    1   34 1
     4    1   35 1
     5    2    3 1
     6    2   36 1
     7    2   37 1
     8    3    4 1
     9    3   38 1
    10    3   39 1
    11    4    5 1
    12    4   40 1
    13    4   41 1
    14    5    6 1
    15    6   11 ar
    16    6    7 ar
    17    7    8 ar
    18    7   42 1
    19    8    9 ar
    20    8   43 1
    21    9   10 ar
    22    9   44 1
    23   10   11 ar
    24   10   45 1
    25   11   12 1
    26   12   16 1
    27   12   13 1
    28   13   14 1
    29   13   46 1
    30   13   47 1
    31   14   48 1
    32   14   49 1
    33   14   70 1
    34   15   16 1
    35   15   50 1
    36   15   51 1
    37   15   70 1
    38   16   52 1
    39   16   53 1
    40   17   18 1
    41   17   54 1
    42   17   55 1
    43   17   70 1
    44   18   19 1
    45   18   56 1
    46   18   57 1
    47   19   20 1
    48   19   58 1
    49   19   59 1
    50   20   31 am
    51   20   21 1
    52   21   22 1
    53   21   60 1
    54   21   61 1
    55   22   23 2
    56   22   24 am
    57   24   29 1
    58   24   25 1
    59   25   26 1
    60   25   62 1
    61   25   63 1
    62   26   27 1
    63   26   64 1
    64   26   65 1
    65   27   28 1
    66   27   66 1
    67   27   67 1
    68   28   29 1
    69   28   68 1
    70   28   69 1
    71   29   30 1
    72   29   31 1
    73   31   32 2
    74   70   71 1
@<TRIPOS>MOLECULE
ZINC00633296
   52    55     0     0     0
SMALL
USER_CHARGES

@<TRIPOS>ATOM
      1 C1          1.2088   -0.6827   -0.0260 C.ar      1 <0>        -0.0624
      2 C2          2.3975    0.0207   -0.0345 C.ar      1 <0>        -0.1732
      3 C3          2.3815    1.4094   -0.0131 C.ar      1 <0>         0.2041
      4 C4          1.1691    2.0868    0.0169 C.ar      1 <0>        -0.1610
      5 C5         -0.0166    1.3774    0.0253 C.ar      1 <0>        -0.0443
      6 C6          0.0034   -0.0063    0.0039 C.ar      1 <0>        -0.1289
      7 Br1        -1.6680    2.2978    0.0662 Br        1 <0>        -0.0329
      8 N1          3.5820    2.1234   -0.0212 N.pl3     1 <0>        -0.6433
      9 C7          3.5884    3.5913   -0.1177 C.3       1 <0>         0.0985
     10 C8          4.5528    4.0003   -1.2359 C.3       1 <0>        -0.0215
     11 N2          5.8710    3.4035   -0.9867 N.4       1 <0>        -0.3815
     12 C9          5.7793    1.9398   -1.0599 C.3       1 <0>        -0.0284
     13 C10         4.8755    1.4291    0.0728 C.3       1 <0>         0.1014
     14 C11         6.8229    3.8838   -1.9973 C.3       1 <0>        -0.0049
     15 C12         8.2232    3.3629   -1.6673 C.3       1 <0>        -0.1698
     16 C13         9.2146    3.8631   -2.7198 C.3       1 <0>         0.1257
     17 N3         10.5553    3.3644   -2.4038 N.am      1 <0>        -0.5850
     18 C14        11.4439    4.0144   -1.6193 C.2       1 <0>         0.5280
     19 O1         11.2649    5.0416   -1.0007 O.2       1 <0>        -0.4587
     20 C15        12.7047    3.1896   -1.6771 C.3       1 <0>         0.0409
     21 H1         13.4878    3.6795   -2.2557 H         1 <0>         0.1420
     22 C16        13.1954    2.7708   -0.2829 C.3       1 <0>        -0.1134
     23 C17        13.6102    1.2892   -0.4486 C.3       1 <0>        -0.1400
     24 C18        13.2812    0.9481   -1.9235 C.3       1 <0>         0.1583
     25 N4         12.2404    1.9269   -2.3116 N.am      1 <0>        -0.6334
     26 C19        11.0544    2.2012   -2.8522 C.2       1 <0>         0.7357
     27 O2         10.4924    1.4851   -3.6576 O.2       1 <0>        -0.5333
     28 H2          1.2209   -1.7625   -0.0472 H         1 <0>         0.1389
     29 H3          3.3386   -0.5086   -0.0575 H         1 <0>         0.1296
     30 H4          1.1532    3.1665    0.0341 H         1 <0>         0.1333
     31 H5         -0.9245   -0.5588    0.0102 H         1 <0>         0.1376
     32 H6          2.5850    3.9474   -0.3509 H         1 <0>         0.1275
     33 H7          3.9215    4.0190    0.8279 H         1 <0>         0.0905
     34 H8          4.1694    3.6478   -2.1935 H         1 <0>         0.1350
     35 H9          4.6438    5.0862   -1.2583 H         1 <0>         0.1438
     36 H10         5.3588    1.6497   -2.0228 H         1 <0>         0.1361
     37 H11         6.7741    1.5075   -0.9525 H         1 <0>         0.1406
     38 H12         5.3364    1.6423    1.0373 H         1 <0>         0.0900
     39 H13         4.7235    0.3551   -0.0344 H         1 <0>         0.1279
     40 H14         6.5228    3.5213   -2.9805 H         1 <0>         0.1362
     41 H15         6.8318    4.9737   -1.9990 H         1 <0>         0.1387
     42 H16         8.5233    3.7254   -0.6841 H         1 <0>         0.0944
     43 H17         8.2143    2.2729   -1.6655 H         1 <0>         0.0945
     44 H18         8.9144    3.5006   -3.7029 H         1 <0>         0.1096
     45 H19         9.2234    4.9531   -2.7215 H         1 <0>         0.1064
     46 H20        14.0520    3.3747    0.0164 H         1 <0>         0.0994
     47 H21        12.3909    2.8615    0.4469 H         1 <0>         0.0789
     48 H22        14.6773    1.1706   -0.2607 H         1 <0>         0.0993
     49 H23        13.0328    0.6559    0.2251 H         1 <0>         0.0824
     50 H24        14.1612    1.0828   -2.5525 H         1 <0>         0.0929
     51 H25        12.9039   -0.0712   -2.0053 H         1 <0>         0.0946
     52 H26         6.1932    3.6736   -0.0695 H         1 <0>         0.4234
@<TRIPOS>BOND
     1    1    6 ar
     2    1    2 ar
     3    1   28 1
     4    2    3 ar
     5    2   29 1
     6    3    4 ar
     7    3    8 1
     8    4    5 ar
     9    4   30 1
    10    5    6 ar
    11    5    7 1
    12    6   31 1
    13    8   13 1
    14    8    9 1
    15    9   10 1
    16    9   32 1
    17    9   33 1
    18   10   11 1
    19   10   34 1
    20   10   35 1
    21   11   12 1
    22   11   14 1
    23   11   52 1
    24   12   13 1
    25   12   36 1
    26   12   37 1
    27   13   38 1
    28   13   39 1
    29   14   15 1
    30   14   40 1
    31   14   41 1
    32   15   16 1
    33   15   42 1
    34   15   43 1
    35   16   17 1
    36   16   44 1
    37   16   45 1
    38   17   26 am
    39   17   18 am
    40   18   19 2
    41   18   20 1
    42   20   21 1
    43   20   25 1
    44   20   22 1
    45   22   23 1
    46   22   46 1
    47   22   47 1
    48   23   24 1
    49   23   48 1
    50   23   49 1
    51   24   25 1
    52   24   50 1
    53   24   51 1
    54   25   26 am
    55   26   27 2
@<TRIPOS>MOLECULE
ZINC00633296
   51    54     0     0     0
SMALL
USER_CHARGES

@<TRIPOS>ATOM
      1 C1          1.2087   -0.6827   -0.0265 C.ar      1 <0>        -0.0627
      2 C2          2.3975    0.0207   -0.0350 C.ar      1 <0>        -0.1875
      3 C3          2.3815    1.4094   -0.0131 C.ar      1 <0>         0.2278
      4 C4          1.1691    2.0868    0.0174 C.ar      1 <0>        -0.1750
      5 C5         -0.0166    1.3773    0.0258 C.ar      1 <0>        -0.0384
      6 C6          0.0034   -0.0063    0.0039 C.ar      1 <0>        -0.1532
      7 Br1        -1.6679    2.2977    0.0673 Br        1 <0>        -0.0522
      8 N1          3.5820    2.1234   -0.0212 N.pl3     1 <0>        -0.6281
      9 C7          3.5868    3.5910   -0.1178 C.3       1 <0>         0.1246
     10 C8          4.5354    4.0011   -1.2493 C.3       1 <0>         0.0407
     11 N2          5.8520    3.3890   -1.0263 N.3       1 <0>        -0.5357
     12 C9          5.7726    1.9228   -1.0721 C.3       1 <0>         0.0361
     13 C10         4.8745    1.4279    0.0728 C.3       1 <0>         0.1259
     14 C11         6.8373    3.8932   -1.9921 C.3       1 <0>         0.0604
     15 C12         8.2370    3.4323   -1.5805 C.3       1 <0>        -0.1323
     16 C13         9.2633    3.9575   -2.5864 C.3       1 <0>         0.1207
     17 N3         10.6035    3.5162   -2.1922 N.am      1 <0>        -0.5800
     18 C14        11.4229    4.2111   -1.3716 C.2       1 <0>         0.5259
     19 O1         11.1714    5.2384   -0.7790 O.2       1 <0>        -0.4616
     20 C15        12.7160    3.4360   -1.3499 C.3       1 <0>         0.0416
     21 H1         13.5094    3.9488   -1.8936 H         1 <0>         0.1364
     22 C16        13.1471    3.0551    0.0744 C.3       1 <0>        -0.1139
     23 C17        13.6272    1.5890   -0.0465 C.3       1 <0>        -0.1396
     24 C18        13.3912    1.2160   -1.5314 C.3       1 <0>         0.1603
     25 N4         12.3356    2.1477   -1.9890 N.am      1 <0>        -0.6387
     26 C19        11.1705    2.3679   -2.5958 C.2       1 <0>         0.7377
     27 O2         10.6807    1.6197   -3.4189 O.2       1 <0>        -0.5346
     28 H2          1.2209   -1.7624   -0.0481 H         1 <0>         0.1309
     29 H3          3.3386   -0.5086   -0.0584 H         1 <0>         0.1281
     30 H4          1.1532    3.1665    0.0350 H         1 <0>         0.1318
     31 H5         -0.9245   -0.5588    0.0102 H         1 <0>         0.1290
     32 H6          2.5801    3.9468   -0.3368 H         1 <0>         0.0870
     33 H7          3.9328    4.0187    0.8232 H         1 <0>         0.0730
     34 H8          4.1326    3.6604   -2.2031 H         1 <0>         0.0404
     35 H9          4.6366    5.0863   -1.2636 H         1 <0>         0.0886
     36 H10         5.3525    1.6110   -2.0283 H         1 <0>         0.0411
     37 H11         6.7710    1.5007   -0.9579 H         1 <0>         0.0877
     38 H12         5.3419    1.6517    1.0318 H         1 <0>         0.0725
     39 H13         4.7195    0.3530   -0.0201 H         1 <0>         0.0875
     40 H14         6.6046    3.5063   -2.9842 H         1 <0>         0.0401
     41 H15         6.8041    4.9825   -2.0100 H         1 <0>         0.0819
     42 H16         8.4698    3.8192   -0.5884 H         1 <0>         0.0793
     43 H17         8.2702    2.3430   -1.5626 H         1 <0>         0.0700
     44 H18         9.0305    3.5706   -3.5785 H         1 <0>         0.0977
     45 H19         9.2300    5.0468   -2.6042 H         1 <0>         0.0969
     46 H20        13.9624    3.6962    0.4096 H         1 <0>         0.0956
     47 H21        12.3017    3.1236    0.7591 H         1 <0>         0.0807
     48 H22        14.6865    1.5152    0.1996 H         1 <0>         0.0947
     49 H23        13.0396    0.9424    0.6052 H         1 <0>         0.0815
     50 H24        14.2977    1.3771   -2.1148 H         1 <0>         0.0879
     51 H25        13.0586    0.1815   -1.6176 H         1 <0>         0.0915
@<TRIPOS>BOND
     1    1    6 ar
     2    1    2 ar
     3    1   28 1
     4    2    3 ar
     5    2   29 1
     6    3    4 ar
     7    3    8 1
     8    4    5 ar
     9    4   30 1
    10    5    6 ar
    11    5    7 1
    12    6   31 1
    13    8   13 1
    14    8    9 1
    15    9   10 1
    16    9   32 1
    17    9   33 1
    18   10   11 1
    19   10   34 1
    20   10   35 1
    21   11   12 1
    22   11   14 1
    23   12   13 1
    24   12   36 1
    25   12   37 1
    26   13   38 1
    27   13   39 1
    28   14   15 1
    29   14   40 1
    30   14   41 1
    31   15   16 1
    32   15   42 1
    33   15   43 1
    34   16   17 1
    35   16   44 1
    36   16   45 1
    37   17   26 am
    38   17   18 am
    39   18   19 2
    40   18   20 1
    41   20   21 1
    42   20   25 1
    43   20   22 1
    44   22   23 1
    45   22   46 1
    46   22   47 1
    47   23   24 1
    48   23   48 1
    49   23   49 1
    50   24   25 1
    51   24   50 1
    52   24   51 1
    53   25   26 am
    54   26   27 2
@<TRIPOS>MOLECULE
ZINC00633299
   52    55     0     0     0
SMALL
USER_CHARGES

@<TRIPOS>ATOM
      1 C1          1.2088   -0.6827   -0.0259 C.ar      1 <0>        -0.0623
      2 C2          2.3975    0.0207   -0.0344 C.ar      1 <0>        -0.1725
      3 C3          2.3815    1.4094   -0.0131 C.ar      1 <0>         0.2043
      4 C4          1.1691    2.0868    0.0168 C.ar      1 <0>        -0.1618
      5 C5         -0.0166    1.3774    0.0252 C.ar      1 <0>        -0.0443
      6 C6          0.0034   -0.0063    0.0039 C.ar      1 <0>        -0.1290
      7 Br1        -1.6680    2.2978    0.0658 Br        1 <0>        -0.0331
      8 N1          3.5820    2.1234   -0.0212 N.pl3     1 <0>        -0.6428
      9 C7          3.5884    3.5913   -0.1177 C.3       1 <0>         0.0978
     10 C8          4.4794    4.1475    0.9979 C.3       1 <0>        -0.0220
     11 N2          5.8085    3.5289    0.9158 N.4       1 <0>        -0.3817
     12 C9          5.7059    2.0870    1.1740 C.3       1 <0>        -0.0278
     13 C10         4.8755    1.4291    0.0728 C.3       1 <0>         0.1007
     14 C11         6.6944    4.1416    1.9147 C.3       1 <0>        -0.0046
     15 C12         8.1110    3.5879    1.7480 C.3       1 <0>        -0.1704
     16 C13         9.0337    4.2261    2.7883 C.3       1 <0>         0.1261
     17 N3         10.3900    3.6960    2.6287 N.am      1 <0>        -0.5845
     18 C14        10.8551    2.5938    3.2579 C.2       1 <0>         0.5278
     19 O1         10.2825    1.9270    4.0929 O.2       1 <0>        -0.4580
     20 C15        12.2373    2.3701    2.6994 C.3       1 <0>         0.0420
     21 H1         12.2898    1.4975    2.0483 H         1 <0>         0.1423
     22 C16        13.3138    2.3517    3.8030 C.3       1 <0>        -0.1136
     23 C17        14.5554    2.9097    3.0594 C.3       1 <0>        -0.1385
     24 C18        13.9799    3.7002    1.8633 C.3       1 <0>         0.1560
     25 N4         12.5126    3.6452    1.9840 N.am      1 <0>        -0.6334
     26 C19        11.3254    4.2404    1.8349 C.2       1 <0>         0.7352
     27 O2         11.1181    5.1656    1.0745 O.2       1 <0>        -0.5324
     28 H2          1.2209   -1.7625   -0.0470 H         1 <0>         0.1390
     29 H3          3.3386   -0.5086   -0.0573 H         1 <0>         0.1299
     30 H4          1.1532    3.1665    0.0338 H         1 <0>         0.1330
     31 H5         -0.9245   -0.5588    0.0102 H         1 <0>         0.1376
     32 H6          3.9844    3.8928   -1.0874 H         1 <0>         0.0912
     33 H7          2.5734    3.9706    0.0008 H         1 <0>         0.1277
     34 H8          4.5734    5.2274    0.8836 H         1 <0>         0.1440
     35 H9          4.0327    3.9219    1.9663 H         1 <0>         0.1348
     36 H10         6.7038    1.6486    1.1894 H         1 <0>         0.1414
     37 H11         5.2222    1.9238    2.1370 H         1 <0>         0.1354
     38 H12         4.7111    0.3796    0.3171 H         1 <0>         0.1277
     39 H13         5.4037    1.5086   -0.8774 H         1 <0>         0.0894
     40 H14         6.7079    5.2224    1.7741 H         1 <0>         0.1392
     41 H15         6.3291    3.9098    2.9151 H         1 <0>         0.1353
     42 H16         8.0975    2.5071    1.8885 H         1 <0>         0.0925
     43 H17         8.4763    3.8197    0.7475 H         1 <0>         0.0982
     44 H18         9.0471    5.3069    2.6478 H         1 <0>         0.1075
     45 H19         8.6684    3.9943    3.7888 H         1 <0>         0.1072
     46 H20        13.0322    3.0026    4.6307 H         1 <0>         0.0824
     47 H21        13.4948    1.3349    4.1516 H         1 <0>         0.1009
     48 H22        15.1232    3.5716    3.7133 H         1 <0>         0.0914
     49 H23        15.1848    2.0928    2.7064 H         1 <0>         0.0947
     50 H24        14.3247    4.7336    1.8973 H         1 <0>         0.0899
     51 H25        14.2842    3.2344    0.9260 H         1 <0>         0.0862
     52 H26         6.1911    3.6778   -0.0059 H         1 <0>         0.4241
@<TRIPOS>BOND
     1    1    6 ar
     2    1    2 ar
     3    1   28 1
     4    2    3 ar
     5    2   29 1
     6    3    4 ar
     7    3    8 1
     8    4    5 ar
     9    4   30 1
    10    5    6 ar
    11    5    7 1
    12    6   31 1
    13    8   13 1
    14    8    9 1
    15    9   10 1
    16    9   32 1
    17    9   33 1
    18   10   11 1
    19   10   34 1
    20   10   35 1
    21   11   12 1
    22   11   14 1
    23   11   52 1
    24   12   13 1
    25   12   36 1
    26   12   37 1
    27   13   38 1
    28   13   39 1
    29   14   15 1
    30   14   40 1
    31   14   41 1
    32   15   16 1
    33   15   42 1
    34   15   43 1
    35   16   17 1
    36   16   44 1
    37   16   45 1
    38   17   26 am
    39   17   18 am
    40   18   19 2
    41   18   20 1
    42   20   21 1
    43   20   25 1
    44   20   22 1
    45   22   23 1
    46   22   46 1
    47   22   47 1
    48   23   24 1
    49   23   48 1
    50   23   49 1
    51   24   25 1
    52   24   50 1
    53   24   51 1
    54   25   26 am
    55   26   27 2
@<TRIPOS>MOLECULE
ZINC00633299
   51    54     0     0     0
SMALL
USER_CHARGES

@<TRIPOS>ATOM
      1 C1          1.2087   -0.6827   -0.0264 C.ar      1 <0>        -0.0627
      2 C2          2.3975    0.0207   -0.0349 C.ar      1 <0>        -0.1870
      3 C3          2.3815    1.4094   -0.0131 C.ar      1 <0>         0.2280
      4 C4          1.1691    2.0868    0.0173 C.ar      1 <0>        -0.1754
      5 C5         -0.0166    1.3773    0.0257 C.ar      1 <0>        -0.0384
      6 C6          0.0034   -0.0063    0.0039 C.ar      1 <0>        -0.1533
      7 Br1        -1.6680    2.2977    0.0670 Br        1 <0>        -0.0523
      8 N1          3.5820    2.1234   -0.0212 N.pl3     1 <0>        -0.6277
      9 C7          3.5868    3.5910   -0.1178 C.3       1 <0>         0.1239
     10 C8          4.4621    4.1501    1.0089 C.3       1 <0>         0.0403
     11 N2          5.7877    3.5195    0.9537 N.3       1 <0>        -0.5354
     12 C9          5.6993    2.0717    1.1861 C.3       1 <0>         0.0362
     13 C10         4.8745    1.4279    0.0728 C.3       1 <0>         0.1260
     14 C11         6.7109    4.1503    1.9066 C.3       1 <0>         0.0608
     15 C12         8.1322    3.6454    1.6501 C.3       1 <0>        -0.1332
     16 C13         9.0936    4.3023    2.6425 C.3       1 <0>         0.1212
     17 N3         10.4546    3.8189    2.3969 N.am      1 <0>        -0.5792
     18 C14        10.9912    2.7259    2.9837 C.2       1 <0>         0.5266
     19 O1         10.4907    2.0317    3.8424 O.2       1 <0>        -0.4642
     20 C15        12.3446    2.5538    2.3424 C.3       1 <0>         0.0424
     21 H1         12.3866    1.6904    1.6784 H         1 <0>         0.1386
     22 C16        13.4844    2.5590    3.3806 C.3       1 <0>        -0.1125
     23 C17        14.6613    3.1654    2.5726 C.3       1 <0>        -0.1373
     24 C18        13.9910    3.9494    1.4224 C.3       1 <0>         0.1583
     25 N4         12.5359    3.8449    1.6282 N.am      1 <0>        -0.6393
     26 C19        11.3235    4.4023    1.5566 C.2       1 <0>         0.7364
     27 O2         11.0419    5.3282    0.8214 O.2       1 <0>        -0.5299
     28 H2          1.2209   -1.7625   -0.0479 H         1 <0>         0.1310
     29 H3          3.3386   -0.5086   -0.0582 H         1 <0>         0.1281
     30 H4          1.1532    3.1665    0.0347 H         1 <0>         0.1319
     31 H5         -0.9245   -0.5588    0.0102 H         1 <0>         0.1290
     32 H6          3.9946    3.8930   -1.0824 H         1 <0>         0.0738
     33 H7          2.5696    3.9682   -0.0127 H         1 <0>         0.0873
     34 H8          4.5668    5.2282    0.8873 H         1 <0>         0.0888
     35 H9          3.9972    3.9356    1.9712 H         1 <0>         0.0403
     36 H10         6.7012    1.6426    1.1930 H         1 <0>         0.0885
     37 H11         5.2171    1.8863    2.1459 H         1 <0>         0.0399
     38 H12         4.7082    0.3757    0.3038 H         1 <0>         0.0870
     39 H13         5.4085    1.5180   -0.8732 H         1 <0>         0.0720
     40 H14         6.6812    5.2324    1.7792 H         1 <0>         0.0825
     41 H15         6.4129    3.8959    2.9237 H         1 <0>         0.0392
     42 H16         8.1619    2.5633    1.7775 H         1 <0>         0.0683
     43 H17         8.4301    3.8998    0.6329 H         1 <0>         0.0830
     44 H18         9.0640    5.3844    2.5151 H         1 <0>         0.0977
     45 H19         8.7957    4.0479    3.6597 H         1 <0>         0.0958
     46 H20        13.2313    3.1913    4.2316 H         1 <0>         0.0810
     47 H21        13.7183    1.5450    3.7051 H         1 <0>         0.0976
     48 H22        15.2451    3.8386    3.2004 H         1 <0>         0.0876
     49 H23        15.2947    2.3735    2.1730 H         1 <0>         0.0910
     50 H24        14.3038    4.9932    1.4492 H         1 <0>         0.0862
     51 H25        14.2543    3.5040    0.4630 H         1 <0>         0.0820
@<TRIPOS>BOND
     1    1    6 ar
     2    1    2 ar
     3    1   28 1
     4    2    3 ar
     5    2   29 1
     6    3    4 ar
     7    3    8 1
     8    4    5 ar
     9    4   30 1
    10    5    6 ar
    11    5    7 1
    12    6   31 1
    13    8   13 1
    14    8    9 1
    15    9   10 1
    16    9   32 1
    17    9   33 1
    18   10   11 1
    19   10   34 1
    20   10   35 1
    21   11   12 1
    22   11   14 1
    23   12   13 1
    24   12   36 1
    25   12   37 1
    26   13   38 1
    27   13   39 1
    28   14   15 1
    29   14   40 1
    30   14   41 1
    31   15   16 1
    32   15   42 1
    33   15   43 1
    34   16   17 1
    35   16   44 1
    36   16   45 1
    37   17   26 am
    38   17   18 am
    39   18   19 2
    40   18   20 1
    41   20   21 1
    42   20   25 1
    43   20   22 1
    44   22   23 1
    45   22   46 1
    46   22   47 1
    47   23   24 1
    48   23   48 1
    49   23   49 1
    50   24   25 1
    51   24   50 1
    52   24   51 1
    53   25   26 am
    54   26   27 2
@<TRIPOS>MOLECULE
ZINC00633302
   58    61     0     0     0
SMALL
USER_CHARGES

@<TRIPOS>ATOM
      1 C1         -0.0184    1.5028    0.0103 C.3       1 <0>        -0.1100
      2 C2          0.0021   -0.0041    0.0020 C.ar      1 <0>        -0.0896
      3 C3          0.0057   -0.6889   -1.1975 C.ar      1 <0>        -0.1124
      4 C4          0.0240   -2.0714   -1.2060 C.ar      1 <0>        -0.1042
      5 C5          0.0391   -2.7733   -0.0143 C.ar      1 <0>        -0.1144
      6 C6          0.0360   -2.0949    1.1884 C.ar      1 <0>        -0.1134
      7 C7          0.0230   -0.7057    1.2005 C.ar      1 <0>         0.1415
      8 N1          0.0251   -0.0163    2.4152 N.pl3     1 <0>        -0.6733
      9 C8         -1.2352    0.3345    3.0881 C.3       1 <0>         0.1196
     10 C9         -1.1978    1.8246    3.4432 C.3       1 <0>        -0.0264
     11 N2          0.0089    2.1092    4.2300 N.4       1 <0>        -0.3789
     12 C10         1.2060    1.8672    3.4148 C.3       1 <0>        -0.0310
     13 C11         1.2878    0.3743    3.0611 C.3       1 <0>         0.1224
     14 C12        -0.0109    3.5127    4.6631 C.3       1 <0>        -0.0048
     15 C13         1.1804    3.7785    5.5856 C.3       1 <0>        -0.1689
     16 C14         1.1598    5.2404    6.0368 C.3       1 <0>         0.1250
     17 N3          2.3005    5.4949    6.9201 N.am      1 <0>        -0.5841
     18 C15         2.2709    5.3400    8.2609 C.2       1 <0>         0.5274
     19 O1          1.3450    4.9365    8.9316 O.2       1 <0>        -0.4588
     20 C16         3.6336    5.7743    8.7516 C.3       1 <0>         0.0850
     21 H1          3.5731    6.6847    9.3479 H         1 <0>         0.1382
     22 C17         4.3200    4.6433    9.5233 C.3       1 <0>        -0.1141
     23 C18         5.8079    4.9787    9.6663 C.3       1 <0>        -0.1230
     24 C19         6.4779    5.0389    8.2933 C.3       1 <0>        -0.1400
     25 C20         5.8441    6.1609    7.4564 C.3       1 <0>         0.1463
     26 N4          4.3847    5.9933    7.4965 N.am      1 <0>        -0.6144
     27 C21         3.5054    5.9053    6.4959 C.2       1 <0>         0.7037
     28 O2          3.7649    6.1689    5.3382 O.2       1 <0>        -0.5399
     29 H2          1.0042    1.8801    0.0026 H         1 <0>         0.0687
     30 H3         -0.5455    1.8639   -0.8728 H         1 <0>         0.0709
     31 H4         -0.5286    1.8543    0.9071 H         1 <0>         0.0561
     32 H5         -0.0060   -0.1439   -2.1298 H         1 <0>         0.1277
     33 H6          0.0261   -2.6044   -2.1453 H         1 <0>         0.1292
     34 H7          0.0529   -3.8531   -0.0245 H         1 <0>         0.1287
     35 H8          0.0474   -2.6436    2.1185 H         1 <0>         0.1235
     36 H9         -2.0739    0.1380    2.4203 H         1 <0>         0.1165
     37 H10        -1.3414   -0.2563    3.9979 H         1 <0>         0.0791
     38 H11        -1.1827    2.4161    2.5278 H         1 <0>         0.1318
     39 H12        -2.0815    2.0813    4.0274 H         1 <0>         0.1386
     40 H13         1.1483    2.4574    2.5003 H         1 <0>         0.1323
     41 H14         2.0936    2.1552    3.9781 H         1 <0>         0.1358
     42 H15         1.4320   -0.2126    3.9683 H         1 <0>         0.0784
     43 H16         2.1179    0.2041    2.3755 H         1 <0>         0.1154
     44 H17         0.0529    4.1631    3.7908 H         1 <0>         0.1344
     45 H18        -0.9380    3.7143    5.1997 H         1 <0>         0.1370
     46 H19         1.1167    3.1281    6.4580 H         1 <0>         0.0933
     47 H20         2.1075    3.5769    5.0491 H         1 <0>         0.0947
     48 H21         1.2236    5.8908    5.1644 H         1 <0>         0.1083
     49 H22         0.2327    5.4420    6.5734 H         1 <0>         0.1052
     50 H23         3.8699    4.5493   10.5116 H         1 <0>         0.0943
     51 H24         4.2072    3.7068    8.9770 H         1 <0>         0.0715
     52 H25         5.9130    5.9445   10.1605 H         1 <0>         0.0748
     53 H26         6.2931    4.2117   10.2699 H         1 <0>         0.0806
     54 H27         7.5426    5.2365    8.4177 H         1 <0>         0.0910
     55 H28         6.3440    4.0855    7.7823 H         1 <0>         0.0690
     56 H29         6.1022    7.1310    7.8811 H         1 <0>         0.0843
     57 H30         6.1973    6.1001    6.4270 H         1 <0>         0.0987
     58 H31         0.0291    1.5096    5.0413 H         1 <0>         0.4225
@<TRIPOS>BOND
     1    1    2 1
     2    1   29 1
     3    1   30 1
     4    1   31 1
     5    2    7 ar
     6    2    3 ar
     7    3    4 ar
     8    3   32 1
     9    4    5 ar
    10    4   33 1
    11    5    6 ar
    12    5   34 1
    13    6    7 ar
    14    6   35 1
    15    7    8 1
    16    8   13 1
    17    8    9 1
    18    9   10 1
    19    9   36 1
    20    9   37 1
    21   10   11 1
    22   10   38 1
    23   10   39 1
    24   11   12 1
    25   11   14 1
    26   11   58 1
    27   12   13 1
    28   12   40 1
    29   12   41 1
    30   13   42 1
    31   13   43 1
    32   14   15 1
    33   14   44 1
    34   14   45 1
    35   15   16 1
    36   15   46 1
    37   15   47 1
    38   16   17 1
    39   16   48 1
    40   16   49 1
    41   17   27 am
    42   17   18 am
    43   18   19 2
    44   18   20 1
    45   20   21 1
    46   20   26 1
    47   20   22 1
    48   22   23 1
    49   22   50 1
    50   22   51 1
    51   23   24 1
    52   23   52 1
    53   23   53 1
    54   24   25 1
    55   24   54 1
    56   24   55 1
    57   25   26 1
    58   25   56 1
    59   25   57 1
    60   26   27 am
    61   27   28 2
@<TRIPOS>MOLECULE
ZINC00633304
   58    61     0     0     0
SMALL
USER_CHARGES

@<TRIPOS>ATOM
      1 C1         -0.0184    1.5028    0.0103 C.3       1 <0>        -0.1108
      2 C2          0.0021   -0.0041    0.0020 C.ar      1 <0>        -0.0826
      3 C3          0.0057   -0.6889   -1.1975 C.ar      1 <0>        -0.1121
      4 C4          0.0240   -2.0714   -1.2060 C.ar      1 <0>        -0.1038
      5 C5          0.0391   -2.7733   -0.0143 C.ar      1 <0>        -0.1170
      6 C6          0.0360   -2.0949    1.1884 C.ar      1 <0>        -0.1173
      7 C7          0.0230   -0.7057    1.2005 C.ar      1 <0>         0.1401
      8 N1          0.0251   -0.0163    2.4152 N.pl3     1 <0>        -0.6728
      9 C8         -1.2352    0.3345    3.0881 C.3       1 <0>         0.1190
     10 C9         -1.1503   -0.1235    4.5478 C.3       1 <0>        -0.0222
     11 N2          0.0493    0.4501    5.1707 N.4       1 <0>        -0.3797
     12 C10         1.2535   -0.0809    4.5195 C.3       1 <0>        -0.0280
     13 C11         1.2878    0.3743    3.0611 C.3       1 <0>         0.1206
     14 C12         0.0724    0.1013    6.5976 C.3       1 <0>        -0.0041
     15 C13         1.2531    0.8003    7.2744 C.3       1 <0>        -0.1693
     16 C14         1.2771    0.4371    8.7605 C.3       1 <0>         0.1255
     17 N3          2.4076    1.1064    9.4086 N.am      1 <0>        -0.5841
     18 C15         3.6444    0.5754    9.5140 C.2       1 <0>         0.5267
     19 O1          4.0045   -0.5219    9.1449 O.2       1 <0>        -0.4590
     20 C16         4.4868    1.6350   10.1878 C.3       1 <0>         0.0862
     21 H1          5.2476    2.0297    9.5145 H         1 <0>         0.1361
     22 C17         5.1073    1.0962   11.4804 C.3       1 <0>        -0.1172
     23 C18         5.6216    2.2781   12.3082 C.3       1 <0>        -0.1217
     24 C19         4.4631    3.1844   12.7254 C.3       1 <0>        -0.1420
     25 C20         3.7892    3.7721   11.4758 C.3       1 <0>         0.1474
     26 N4          3.4929    2.6674   10.5531 N.am      1 <0>        -0.6148
     27 C21         2.3434    2.3252    9.9658 C.2       1 <0>         0.7040
     28 O2          1.3552    3.0324    9.9416 O.2       1 <0>        -0.5397
     29 H2          1.0042    1.8801    0.0026 H         1 <0>         0.0697
     30 H3         -0.5455    1.8639   -0.8728 H         1 <0>         0.0689
     31 H4         -0.5286    1.8543    0.9071 H         1 <0>         0.0634
     32 H5         -0.0060   -0.1439   -2.1298 H         1 <0>         0.1284
     33 H6          0.0261   -2.6044   -2.1453 H         1 <0>         0.1290
     34 H7          0.0529   -3.8531   -0.0245 H         1 <0>         0.1275
     35 H8          0.0474   -2.6436    2.1185 H         1 <0>         0.1187
     36 H9         -1.3822    1.4139    3.0508 H         1 <0>         0.0781
     37 H10        -2.0665   -0.1686    2.5941 H         1 <0>         0.1166
     38 H11        -2.0359    0.2134    5.0865 H         1 <0>         0.1378
     39 H12        -1.0942   -1.2114    4.5847 H         1 <0>         0.1311
     40 H13         2.1391    0.2874    5.0373 H         1 <0>         0.1356
     41 H14         1.2369   -1.1701    4.5572 H         1 <0>         0.1318
     42 H15         2.1238   -0.1026    2.5493 H         1 <0>         0.1157
     43 H16         1.3999    1.4577    3.0211 H         1 <0>         0.0769
     44 H17        -0.8577    0.4240    7.0655 H         1 <0>         0.1372
     45 H18         0.1783   -0.9781    6.7061 H         1 <0>         0.1336
     46 H19         2.1832    0.4777    6.8065 H         1 <0>         0.0922
     47 H20         1.1471    1.8797    7.1659 H         1 <0>         0.0968
     48 H21         0.3470    0.7598    9.2284 H         1 <0>         0.1073
     49 H22         1.3830   -0.6423    8.8691 H         1 <0>         0.1052
     50 H23         4.3531    0.5522   12.0490 H         1 <0>         0.0752
     51 H24         5.9363    0.4311   11.2385 H         1 <0>         0.0942
     52 H25         6.1229    1.9017   13.1998 H         1 <0>         0.0813
     53 H26         6.3312    2.8526   11.7127 H         1 <0>         0.0732
     54 H27         3.7344    2.6042   13.2914 H         1 <0>         0.0718
     55 H28         4.8426    3.9948   13.3478 H         1 <0>         0.0911
     56 H29         2.8665    4.2799   11.7565 H         1 <0>         0.0990
     57 H30         4.4647    4.4732   10.9855 H         1 <0>         0.0829
     58 H31         0.0304    1.4541    5.0727 H         1 <0>         0.4227
@<TRIPOS>BOND
     1    1    2 1
     2    1   29 1
     3    1   30 1
     4    1   31 1
     5    2    7 ar
     6    2    3 ar
     7    3    4 ar
     8    3   32 1
     9    4    5 ar
    10    4   33 1
    11    5    6 ar
    12    5   34 1
    13    6    7 ar
    14    6   35 1
    15    7    8 1
    16    8   13 1
    17    8    9 1
    18    9   10 1
    19    9   36 1
    20    9   37 1
    21   10   11 1
    22   10   38 1
    23   10   39 1
    24   11   12 1
    25   11   14 1
    26   11   58 1
    27   12   13 1
    28   12   40 1
    29   12   41 1
    30   13   42 1
    31   13   43 1
    32   14   15 1
    33   14   44 1
    34   14   45 1
    35   15   16 1
    36   15   46 1
    37   15   47 1
    38   16   17 1
    39   16   48 1
    40   16   49 1
    41   17   27 am
    42   17   18 am
    43   18   19 2
    44   18   20 1
    45   20   21 1
    46   20   26 1
    47   20   22 1
    48   22   23 1
    49   22   50 1
    50   22   51 1
    51   23   24 1
    52   23   52 1
    53   23   53 1
    54   24   25 1
    55   24   54 1
    56   24   55 1
    57   25   26 1
    58   25   56 1
    59   25   57 1
    60   26   27 am
    61   27   28 2
@<TRIPOS>MOLECULE
ZINC00633314
   62    65     0     0     0
SMALL
USER_CHARGES
8-[3-[4-(2-methoxyphenyl)piperazin-1-yl]propyl]-1,8-diazabicyclo[4.4.0]decane-7,10-dione
@<TRIPOS>ATOM
      1 C1        -12.2450    3.1240   -8.1542 C.3       1 <0>         0.0204
      2 O1        -11.1241    3.5996   -7.4064 O.3       1 <0>        -0.2996
      3 C2        -11.3760    4.5103   -6.4281 C.ar      1 <0>         0.1644
      4 C3        -12.6729    4.9359   -6.1931 C.ar      1 <0>        -0.2028
      5 C4        -12.9277    5.8612   -5.1975 C.ar      1 <0>        -0.0622
      6 C5        -11.8905    6.3641   -4.4341 C.ar      1 <0>        -0.1459
      7 C6        -10.5940    5.9409   -4.6591 C.ar      1 <0>        -0.1060
      8 C7        -10.3302    5.0169   -5.6596 C.ar      1 <0>         0.0239
      9 N1         -9.0176    4.5905   -5.8927 N.pl3     1 <0>        -0.4811
     10 C8         -8.1537    5.7214   -6.2592 C.3       1 <0>         0.0291
     11 C9         -6.7500    5.2039   -6.5824 C.3       1 <0>         0.0047
     12 C10        -7.0766    3.3603   -5.0483 C.3       1 <0>         0.0008
     13 C11        -8.4803    3.8778   -4.7252 C.3       1 <0>         0.0302
     14 C12        -4.8351    4.0437   -5.6595 C.3       1 <0>         0.0002
     15 C13        -4.2253    3.5327   -4.3526 C.3       1 <0>        -0.1687
     16 C14        -2.7904    3.0666   -4.6073 C.3       1 <0>         0.1159
     17 N2         -2.2065    2.5773   -3.3560 N.am      1 <0>        -0.6071
     18 C15        -2.3510    1.1664   -3.0093 C.3       1 <0>         0.0967
     19 C16        -1.2540    0.7417   -2.0731 C.2       1 <0>         0.5115
     20 O2         -0.8207   -0.3891   -2.1404 O.2       1 <0>        -0.5139
     21 N3         -0.7459    1.5841   -1.1687 N.am      1 <0>        -0.6092
     22 C17        -0.0127    1.0858    0.0080 C.3       1 <0>         0.1102
     23 C18        -0.7535    1.5920    1.2546 C.3       1 <0>        -0.1387
     24 C19        -0.8860    3.1143    1.1993 C.3       1 <0>        -0.1217
     25 C20        -1.6583    3.5389   -0.0553 C.3       1 <0>        -0.1178
     26 C21        -0.9034    3.0354   -1.2842 C.3       1 <0>         0.1253
     27 H1          0.0902    3.4828   -1.2580 H         1 <0>         0.1173
     28 C22        -1.5539    3.4374   -2.5614 C.2       1 <0>         0.5270
     29 O3         -1.4901    4.6002   -2.8998 O.2       1 <0>        -0.5200
     30 H2        -11.9057    2.4051   -8.8999 H         1 <0>         0.1055
     31 H3        -12.9531    2.6416   -7.4803 H         1 <0>         0.0589
     32 H4        -12.7314    3.9624   -8.6527 H         1 <0>         0.0591
     33 H5        -13.4854    4.5448   -6.7873 H         1 <0>         0.1382
     34 H6        -13.9396    6.1916   -5.0155 H         1 <0>         0.1340
     35 H7        -12.0943    7.0863   -3.6574 H         1 <0>         0.1308
     36 H8         -9.7861    6.3323   -4.0586 H         1 <0>         0.1240
     37 H9         -8.0999    6.4228   -5.4266 H         1 <0>         0.0623
     38 H10        -8.5657    6.2253   -7.1335 H         1 <0>         0.1239
     39 H11        -6.0999    6.0441   -6.8264 H         1 <0>         0.1359
     40 H12        -6.7997    4.5236   -7.4325 H         1 <0>         0.1413
     41 H13        -7.1304    2.6589   -5.8810 H         1 <0>         0.1417
     42 H14        -6.6646    2.8564   -4.1740 H         1 <0>         0.1332
     43 H15        -8.4302    4.5583   -3.8751 H         1 <0>         0.0615
     44 H16        -9.1306    3.0379   -4.4809 H         1 <0>         0.1228
     45 H17        -4.2431    4.8784   -6.0347 H         1 <0>         0.1341
     46 H18        -4.8394    3.2408   -6.3967 H         1 <0>         0.1358
     47 H19        -4.8173    2.6979   -3.9773 H         1 <0>         0.0895
     48 H20        -4.2210    4.3355   -3.6153 H         1 <0>         0.0926
     49 H21        -2.1984    3.9013   -4.9826 H         1 <0>         0.1020
     50 H22        -2.7947    2.2637   -5.3446 H         1 <0>         0.0953
     51 H23        -2.3030    0.5652   -3.9172 H         1 <0>         0.1196
     52 H24        -3.3164    1.0105   -2.5277 H         1 <0>         0.1028
     53 H25         0.0021   -0.0041    0.0020 H         1 <0>         0.1009
     54 H26         1.0070    1.4707    0.0003 H         1 <0>         0.0802
     55 H27        -1.7467    1.1445    1.2922 H         1 <0>         0.0683
     56 H28        -0.1960    1.3082    2.1472 H         1 <0>         0.0858
     57 H29         0.1080    3.5612    1.1793 H         1 <0>         0.0723
     58 H30        -1.4173    3.4625    2.0850 H         1 <0>         0.0779
     59 H31        -1.7309    4.6259   -0.0901 H         1 <0>         0.0891
     60 H32        -2.6572    3.1031   -0.0352 H         1 <0>         0.0708
     61 N4         -6.2130    4.5092   -5.3935 N.4       1 <0>        -0.3970
     62 H33        -6.1970    5.1643   -4.6030 H         1 <0>         0.4243
@<TRIPOS>BOND
     1    1    2 1
     2    1   30 1
     3    1   31 1
     4    1   32 1
     5    2    3 1
     6    3    8 ar
     7    3    4 ar
     8    4    5 ar
     9    4   33 1
    10    5    6 ar
    11    5   34 1
    12    6    7 ar
    13    6   35 1
    14    7    8 ar
    15    7   36 1
    16    8    9 1
    17    9   13 1
    18    9   10 1
    19   10   11 1
    20   10   37 1
    21   10   38 1
    22   11   39 1
    23   11   40 1
    24   11   61 1
    25   12   13 1
    26   12   41 1
    27   12   42 1
    28   12   61 1
    29   13   43 1
    30   13   44 1
    31   14   15 1
    32   14   45 1
    33   14   46 1
    34   14   61 1
    35   15   16 1
    36   15   47 1
    37   15   48 1
    38   16   17 1
    39   16   49 1
    40   16   50 1
    41   17   28 am
    42   17   18 1
    43   18   19 1
    44   18   51 1
    45   18   52 1
    46   19   20 2
    47   19   21 am
    48   21   26 1
    49   21   22 1
    50   22   23 1
    51   22   53 1
    52   22   54 1
    53   23   24 1
    54   23   55 1
    55   23   56 1
    56   24   25 1
    57   24   57 1
    58   24   58 1
    59   25   26 1
    60   25   59 1
    61   25   60 1
    62   26   27 1
    63   26   28 1
    64   28   29 2
    65   61   62 1
@<TRIPOS>MOLECULE
ZINC04398210
   62    65     0     0     0
SMALL
USER_CHARGES
8-[3-[4-(2-methoxyphenyl)piperazin-1-yl]propyl]-1,8-diazabicyclo[4.4.0]decane-7,10-dione
@<TRIPOS>ATOM
      1 C1          1.2479    2.0219    0.0010 C.3       1 <0>         0.0204
      2 O1         -0.0164    1.3559    0.0095 O.3       1 <0>        -0.2997
      3 C2          0.0021   -0.0041    0.0020 C.ar      1 <0>         0.1643
      4 C3          1.2098   -0.6818   -0.0189 C.ar      1 <0>        -0.2027
      5 C4          1.2271   -2.0646   -0.0211 C.ar      1 <0>        -0.0622
      6 C5          0.0408   -2.7745   -0.0131 C.ar      1 <0>        -0.1458
      7 C6         -1.1687   -2.1057    0.0020 C.ar      1 <0>        -0.1060
      8 C7         -1.1938   -0.7187    0.0096 C.ar      1 <0>         0.0238
      9 N1         -2.4173   -0.0390    0.0244 N.pl3     1 <0>        -0.4812
     10 C8         -3.1603   -0.3190    1.2610 C.3       1 <0>         0.0303
     11 C9         -4.4516    0.5024    1.2742 C.3       1 <0>        -0.0026
     12 C10        -4.5132    0.4444   -1.1448 C.3       1 <0>         0.0051
     13 C11        -3.2219   -0.3770   -1.1580 C.3       1 <0>         0.0289
     14 C12        -6.5403    0.8777    0.1073 C.3       1 <0>         0.0001
     15 C13        -7.1686    0.7666    1.4979 C.3       1 <0>        -0.1720
     16 C14        -8.5060    1.5096    1.5141 C.3       1 <0>         0.1253
     17 N2         -9.1077    1.4032    2.8456 N.am      1 <0>        -0.6224
     18 C15        -8.8344    2.4007    3.8959 C.3       1 <0>         0.0930
     19 C16       -10.1467    2.7709    4.5555 C.2       1 <0>         0.4992
     20 O2        -10.4268    3.9237    4.8074 O.2       1 <0>        -0.4995
     21 N3        -11.0019    1.7450    4.8538 N.am      1 <0>        -0.6011
     22 C17       -12.3134    2.0785    5.3905 C.3       1 <0>         0.1179
     23 C18       -13.0063    0.8408    5.9592 C.3       1 <0>        -0.1338
     24 C19       -12.9293   -0.2641    4.8943 C.3       1 <0>        -0.1209
     25 C20       -11.4772   -0.7316    4.8161 C.3       1 <0>        -0.1199
     26 C21       -10.5265    0.4056    4.5620 C.3       1 <0>         0.1354
     27 H1         -9.6762    0.2402    5.2236 H         1 <0>         0.0886
     28 C22        -9.9503    0.3796    3.1671 C.2       1 <0>         0.5111
     29 O3        -10.2185   -0.5022    2.3788 O.2       1 <0>        -0.5009
     30 H2          1.8173    1.7319    0.8840 H         1 <0>         0.0589
     31 H3          1.8003    1.7414   -0.8958 H         1 <0>         0.0590
     32 H4          1.0905    3.1005    0.0083 H         1 <0>         0.1055
     33 H5          2.1383   -0.1303   -0.0293 H         1 <0>         0.1382
     34 H6          2.1698   -2.5913   -0.0336 H         1 <0>         0.1340
     35 H7          0.0592   -3.8544   -0.0191 H         1 <0>         0.1308
     36 H8         -2.0940   -2.6627    0.0074 H         1 <0>         0.1240
     37 H9         -3.4040   -1.3804    1.3064 H         1 <0>         0.0618
     38 H10        -2.5487   -0.0488    2.1218 H         1 <0>         0.1226
     39 H11        -4.2072    1.5645    1.2562 H         1 <0>         0.1414
     40 H12        -5.0184    0.2746    2.1769 H         1 <0>         0.1360
     41 H13        -4.2695    1.5058   -1.1903 H         1 <0>         0.1411
     42 H14        -5.1248    0.1742   -2.0057 H         1 <0>         0.1360
     43 H15        -2.6551   -0.1492   -2.0607 H         1 <0>         0.1238
     44 H16        -3.4659   -1.4392   -1.1402 H         1 <0>         0.0625
     45 H17        -6.3756    1.9278   -0.1341 H         1 <0>         0.1354
     46 H18        -7.2102    0.4361   -0.6304 H         1 <0>         0.1329
     47 H19        -7.3334   -0.2835    1.7393 H         1 <0>         0.0922
     48 H20        -6.4987    1.2083    2.2357 H         1 <0>         0.0938
     49 H21        -8.3413    2.5597    1.2727 H         1 <0>         0.0942
     50 H22        -9.1760    1.0679    0.7764 H         1 <0>         0.0966
     51 H23        -8.1574    1.9769    4.6376 H         1 <0>         0.1058
     52 H24        -8.3832    3.2877    3.4513 H         1 <0>         0.1247
     53 H25       -12.1981    2.8191    6.1820 H         1 <0>         0.0842
     54 H26       -12.9288    2.4993    4.5953 H         1 <0>         0.0665
     55 H27       -12.4974    0.5161    6.8667 H         1 <0>         0.0756
     56 H28       -14.0489    1.0694    6.1803 H         1 <0>         0.0887
     57 H29       -13.5711   -1.0977    5.1794 H         1 <0>         0.0815
     58 H30       -13.2429    0.1312    3.9281 H         1 <0>         0.0688
     59 H31       -11.2095   -1.2128    5.7568 H         1 <0>         0.0847
     60 H32       -11.3823   -1.4574    4.0085 H         1 <0>         0.0977
     61 N4         -5.2609    0.1369    0.0924 N.4       1 <0>        -0.3966
     62 H33        -5.4582   -0.8703    0.1215 H         1 <0>         0.4252
@<TRIPOS>BOND
     1    1    2 1
     2    1   30 1
     3    1   31 1
     4    1   32 1
     5    2    3 1
     6    3    8 ar
     7    3    4 ar
     8    4    5 ar
     9    4   33 1
    10    5    6 ar
    11    5   34 1
    12    6    7 ar
    13    6   35 1
    14    7    8 ar
    15    7   36 1
    16    8    9 1
    17    9   13 1
    18    9   10 1
    19   10   11 1
    20   10   37 1
    21   10   38 1
    22   11   39 1
    23   11   40 1
    24   11   61 1
    25   12   13 1
    26   12   41 1
    27   12   42 1
    28   12   61 1
    29   13   43 1
    30   13   44 1
    31   14   15 1
    32   14   45 1
    33   14   46 1
    34   14   61 1
    35   15   16 1
    36   15   47 1
    37   15   48 1
    38   16   17 1
    39   16   49 1
    40   16   50 1
    41   17   28 am
    42   17   18 1
    43   18   19 1
    44   18   51 1
    45   18   52 1
    46   19   20 2
    47   19   21 am
    48   21   26 1
    49   21   22 1
    50   22   23 1
    51   22   53 1
    52   22   54 1
    53   23   24 1
    54   23   55 1
    55   23   56 1
    56   24   25 1
    57   24   57 1
    58   24   58 1
    59   25   26 1
    60   25   59 1
    61   25   60 1
    62   26   27 1
    63   26   28 1
    64   28   29 2
    65   61   62 1
@<TRIPOS>MOLECULE
ZINC02183611
   58    61     0     0     0
SMALL
USER_CHARGES

@<TRIPOS>ATOM
      1 C1          1.2088   -0.6827   -0.0260 C.ar      1 <0>        -0.0625
      2 C2          2.3975    0.0207   -0.0345 C.ar      1 <0>        -0.1733
      3 C3          2.3815    1.4094   -0.0131 C.ar      1 <0>         0.2042
      4 C4          1.1691    2.0868    0.0169 C.ar      1 <0>        -0.1613
      5 C5         -0.0166    1.3774    0.0253 C.ar      1 <0>        -0.0443
      6 C6          0.0034   -0.0063    0.0039 C.ar      1 <0>        -0.1291
      7 Br1        -1.6680    2.2978    0.0662 Br        1 <0>        -0.0331
      8 N1          3.5820    2.1234   -0.0212 N.pl3     1 <0>        -0.6434
      9 C7          3.5884    3.5913   -0.1177 C.3       1 <0>         0.0986
     10 C8          4.5528    4.0003   -1.2359 C.3       1 <0>        -0.0215
     11 N2          5.8710    3.4035   -0.9867 N.4       1 <0>        -0.3823
     12 C9          5.7793    1.9398   -1.0599 C.3       1 <0>        -0.0282
     13 C10         4.8755    1.4291    0.0728 C.3       1 <0>         0.1007
     14 C11         6.8229    3.8838   -1.9973 C.3       1 <0>        -0.0088
     15 C12         8.2232    3.3629   -1.6673 C.3       1 <0>        -0.1447
     16 C13         9.2146    3.8631   -2.7198 C.3       1 <0>        -0.1346
     17 C14        10.6148    3.3422   -2.3898 C.3       1 <0>         0.1197
     18 N3         11.5641    3.8212   -3.3975 N.am      1 <0>        -0.5833
     19 C15        11.8577    3.1604   -4.5376 C.2       1 <0>         0.5274
     20 O1         11.3713    2.1207   -4.9278 O.2       1 <0>        -0.4623
     21 C16        12.9193    3.9879   -5.2265 C.3       1 <0>         0.0849
     22 H1         13.8761    3.4666   -5.2571 H         1 <0>         0.1366
     23 C17        12.4617    4.4025   -6.6282 C.3       1 <0>        -0.1144
     24 C18        13.3727    5.5275   -7.1295 C.3       1 <0>        -0.1223
     25 C19        13.2344    6.7646   -6.2419 C.3       1 <0>        -0.1402
     26 C20        13.6833    6.4286   -4.8113 C.3       1 <0>         0.1470
     27 N4         12.9879    5.2049   -4.3889 N.am      1 <0>        -0.6163
     28 C21        12.2448    4.9736   -3.3043 C.2       1 <0>         0.7044
     29 O2         12.1937    5.7174   -2.3445 O.2       1 <0>        -0.5410
     30 H2          1.2209   -1.7625   -0.0472 H         1 <0>         0.1390
     31 H3          3.3386   -0.5086   -0.0575 H         1 <0>         0.1299
     32 H4          1.1532    3.1665    0.0341 H         1 <0>         0.1331
     33 H5         -0.9245   -0.5588    0.0102 H         1 <0>         0.1376
     34 H6          2.5850    3.9474   -0.3509 H         1 <0>         0.1266
     35 H7          3.9215    4.0190    0.8279 H         1 <0>         0.0905
     36 H8          4.1694    3.6478   -2.1935 H         1 <0>         0.1334
     37 H9          4.6438    5.0862   -1.2583 H         1 <0>         0.1423
     38 H10         5.3588    1.6497   -2.0228 H         1 <0>         0.1341
     39 H11         6.7741    1.5075   -0.9525 H         1 <0>         0.1430
     40 H12         5.3364    1.6423    1.0373 H         1 <0>         0.0907
     41 H13         4.7235    0.3551   -0.0344 H         1 <0>         0.1277
     42 H14         6.5228    3.5213   -2.9805 H         1 <0>         0.1308
     43 H15         6.8318    4.9737   -1.9990 H         1 <0>         0.1340
     44 H16         8.5233    3.7254   -0.6841 H         1 <0>         0.0939
     45 H17         8.2143    2.2729   -1.6655 H         1 <0>         0.0917
     46 H18         8.9144    3.5006   -3.7029 H         1 <0>         0.0802
     47 H19         9.2234    4.9531   -2.7215 H         1 <0>         0.0826
     48 H20        10.9149    3.7047   -1.4066 H         1 <0>         0.1015
     49 H21        10.6059    2.2523   -2.3880 H         1 <0>         0.0974
     50 H22        12.5300    3.5489   -7.3025 H         1 <0>         0.0934
     51 H23        11.4319    4.7571   -6.5866 H         1 <0>         0.0720
     52 H24        14.4079    5.1865   -7.1125 H         1 <0>         0.0740
     53 H25        13.0963    5.7855   -8.1518 H         1 <0>         0.0798
     54 H26        13.8569    7.5668   -6.6383 H         1 <0>         0.0901
     55 H27        12.1933    7.0871   -6.2290 H         1 <0>         0.0693
     56 H28        14.7585    6.2509   -4.7923 H         1 <0>         0.0832
     57 H29        13.4306    7.2501   -4.1410 H         1 <0>         0.0982
     58 H30         6.1932    3.6736   -0.0695 H         1 <0>         0.4235
@<TRIPOS>BOND
     1    1    6 ar
     2    1    2 ar
     3    1   30 1
     4    2    3 ar
     5    2   31 1
     6    3    4 ar
     7    3    8 1
     8    4    5 ar
     9    4   32 1
    10    5    6 ar
    11    5    7 1
    12    6   33 1
    13    8   13 1
    14    8    9 1
    15    9   10 1
    16    9   34 1
    17    9   35 1
    18   10   11 1
    19   10   36 1
    20   10   37 1
    21   11   12 1
    22   11   14 1
    23   11   58 1
    24   12   13 1
    25   12   38 1
    26   12   39 1
    27   13   40 1
    28   13   41 1
    29   14   15 1
    30   14   42 1
    31   14   43 1
    32   15   16 1
    33   15   44 1
    34   15   45 1
    35   16   17 1
    36   16   46 1
    37   16   47 1
    38   17   18 1
    39   17   48 1
    40   17   49 1
    41   18   28 am
    42   18   19 am
    43   19   20 2
    44   19   21 1
    45   21   22 1
    46   21   27 1
    47   21   23 1
    48   23   24 1
    49   23   50 1
    50   23   51 1
    51   24   25 1
    52   24   52 1
    53   24   53 1
    54   25   26 1
    55   25   54 1
    56   25   55 1
    57   26   27 1
    58   26   56 1
    59   26   57 1
    60   27   28 am
    61   28   29 2
@<TRIPOS>MOLECULE
ZINC02183611
   57    60     0     0     0
SMALL
USER_CHARGES

@<TRIPOS>ATOM
      1 C1          1.2087   -0.6827   -0.0265 C.ar      1 <0>        -0.0628
      2 C2          2.3975    0.0207   -0.0350 C.ar      1 <0>        -0.1876
      3 C3          2.3815    1.4094   -0.0131 C.ar      1 <0>         0.2279
      4 C4          1.1691    2.0868    0.0174 C.ar      1 <0>        -0.1753
      5 C5         -0.0166    1.3773    0.0258 C.ar      1 <0>        -0.0384
      6 C6          0.0034   -0.0063    0.0039 C.ar      1 <0>        -0.1535
      7 Br1        -1.6679    2.2977    0.0673 Br        1 <0>        -0.0524
      8 N1          3.5820    2.1234   -0.0212 N.pl3     1 <0>        -0.6281
      9 C7          3.5868    3.5910   -0.1178 C.3       1 <0>         0.1247
     10 C8          4.5354    4.0011   -1.2493 C.3       1 <0>         0.0404
     11 N2          5.8520    3.3890   -1.0263 N.3       1 <0>        -0.5362
     12 C9          5.7726    1.9228   -1.0721 C.3       1 <0>         0.0360
     13 C10         4.8745    1.4279    0.0728 C.3       1 <0>         0.1252
     14 C11         6.8373    3.8932   -1.9921 C.3       1 <0>         0.0573
     15 C12         8.2370    3.4323   -1.5805 C.3       1 <0>        -0.1116
     16 C13         9.2633    3.9575   -2.5864 C.3       1 <0>        -0.1334
     17 C14        10.6629    3.4966   -2.1747 C.3       1 <0>         0.1197
     18 N3         11.6456    3.9995   -3.1379 N.am      1 <0>        -0.5801
     19 C15        12.0252    3.3359   -4.2506 C.2       1 <0>         0.5251
     20 O1         11.6011    2.2728   -4.6503 O.2       1 <0>        -0.4642
     21 C16        13.0894    4.1956   -4.8947 C.3       1 <0>         0.0863
     22 H1         14.0659    3.7120   -4.8666 H         1 <0>         0.1328
     23 C17        12.6919    4.5734   -6.3248 C.3       1 <0>        -0.1158
     24 C18        13.5842    5.7268   -6.7941 C.3       1 <0>        -0.1198
     25 C19        13.3507    6.9690   -5.9340 C.3       1 <0>        -0.1408
     26 C20        13.7349    6.6697   -4.4767 C.3       1 <0>         0.1490
     27 N4         13.0658    5.4251   -4.0732 N.am      1 <0>        -0.6209
     28 C21        12.2752    5.1789   -3.0261 C.2       1 <0>         0.7051
     29 O2         12.1440    5.9327   -2.0818 O.2       1 <0>        -0.5390
     30 H2          1.2209   -1.7624   -0.0481 H         1 <0>         0.1309
     31 H3          3.3386   -0.5086   -0.0584 H         1 <0>         0.1284
     32 H4          1.1532    3.1665    0.0350 H         1 <0>         0.1317
     33 H5         -0.9245   -0.5588    0.0102 H         1 <0>         0.1289
     34 H6          2.5801    3.9468   -0.3368 H         1 <0>         0.0863
     35 H7          3.9328    4.0187    0.8232 H         1 <0>         0.0732
     36 H8          4.1326    3.6604   -2.2031 H         1 <0>         0.0389
     37 H9          4.6366    5.0863   -1.2636 H         1 <0>         0.0873
     38 H10         5.3525    1.6110   -2.0283 H         1 <0>         0.0391
     39 H11         6.7710    1.5007   -0.9579 H         1 <0>         0.0898
     40 H12         5.3419    1.6517    1.0318 H         1 <0>         0.0733
     41 H13         4.7195    0.3530   -0.0201 H         1 <0>         0.0873
     42 H14         6.6046    3.5063   -2.9842 H         1 <0>         0.0346
     43 H15         6.8041    4.9825   -2.0100 H         1 <0>         0.0774
     44 H16         8.4698    3.8192   -0.5884 H         1 <0>         0.0782
     45 H17         8.2702    2.3430   -1.5626 H         1 <0>         0.0670
     46 H18         9.0305    3.5706   -3.5785 H         1 <0>         0.0667
     47 H19         9.2300    5.0468   -2.6042 H         1 <0>         0.0712
     48 H20        10.8957    3.8835   -1.1826 H         1 <0>         0.0991
     49 H21        10.6962    2.4073   -2.1569 H         1 <0>         0.0942
     50 H22        12.8292    3.7144   -6.9815 H         1 <0>         0.0916
     51 H23        11.6483    4.8876   -6.3433 H         1 <0>         0.0735
     52 H24        14.6294    5.4272   -6.7171 H         1 <0>         0.0716
     53 H25        13.3532    5.9603   -7.8334 H         1 <0>         0.0770
     54 H26        13.9621    7.7898   -6.3090 H         1 <0>         0.0869
     55 H27        12.2987    7.2503   -5.9812 H         1 <0>         0.0702
     56 H28        14.8137    6.5349   -4.3980 H         1 <0>         0.0795
     57 H29        13.4151    7.4894   -3.8333 H         1 <0>         0.0968
@<TRIPOS>BOND
     1    1    6 ar
     2    1    2 ar
     3    1   30 1
     4    2    3 ar
     5    2   31 1
     6    3    4 ar
     7    3    8 1
     8    4    5 ar
     9    4   32 1
    10    5    6 ar
    11    5    7 1
    12    6   33 1
    13    8   13 1
    14    8    9 1
    15    9   10 1
    16    9   34 1
    17    9   35 1
    18   10   11 1
    19   10   36 1
    20   10   37 1
    21   11   12 1
    22   11   14 1
    23   12   13 1
    24   12   38 1
    25   12   39 1
    26   13   40 1
    27   13   41 1
    28   14   15 1
    29   14   42 1
    30   14   43 1
    31   15   16 1
    32   15   44 1
    33   15   45 1
    34   16   17 1
    35   16   46 1
    36   16   47 1
    37   17   18 1
    38   17   48 1
    39   17   49 1
    40   18   28 am
    41   18   19 am
    42   19   20 2
    43   19   21 1
    44   21   22 1
    45   21   27 1
    46   21   23 1
    47   23   24 1
    48   23   50 1
    49   23   51 1
    50   24   25 1
    51   24   52 1
    52   24   53 1
    53   25   26 1
    54   25   54 1
    55   25   55 1
    56   26   27 1
    57   26   56 1
    58   26   57 1
    59   27   28 am
    60   28   29 2
@<TRIPOS>MOLECULE
ZINC02183612
   58    61     0     0     0
SMALL
USER_CHARGES

@<TRIPOS>ATOM
      1 C1          1.2088   -0.6827   -0.0260 C.ar      1 <0>        -0.0625
      2 C2          2.3975    0.0207   -0.0345 C.ar      1 <0>        -0.1733
      3 C3          2.3815    1.4094   -0.0131 C.ar      1 <0>         0.2042
      4 C4          1.1691    2.0868    0.0169 C.ar      1 <0>        -0.1613
      5 C5         -0.0166    1.3774    0.0253 C.ar      1 <0>        -0.0443
      6 C6          0.0034   -0.0063    0.0039 C.ar      1 <0>        -0.1291
      7 Br1        -1.6680    2.2978    0.0662 Br        1 <0>        -0.0331
      8 N1          3.5820    2.1234   -0.0212 N.pl3     1 <0>        -0.6434
      9 C7          3.5884    3.5913   -0.1177 C.3       1 <0>         0.0986
     10 C8          4.5528    4.0003   -1.2359 C.3       1 <0>        -0.0215
     11 N2          5.8710    3.4035   -0.9867 N.4       1 <0>        -0.3823
     12 C9          5.7793    1.9398   -1.0599 C.3       1 <0>        -0.0282
     13 C10         4.8755    1.4291    0.0728 C.3       1 <0>         0.1007
     14 C11         6.8229    3.8838   -1.9973 C.3       1 <0>        -0.0089
     15 C12         8.2232    3.3629   -1.6673 C.3       1 <0>        -0.1446
     16 C13         9.2146    3.8631   -2.7198 C.3       1 <0>        -0.1352
     17 C14        10.6148    3.3422   -2.3898 C.3       1 <0>         0.1202
     18 N3         11.5641    3.8212   -3.3975 N.am      1 <0>        -0.5834
     19 C15        11.8577    3.1604   -4.5376 C.2       1 <0>         0.5269
     20 O1         11.4365    2.0784   -4.8865 O.2       1 <0>        -0.4620
     21 C16        12.8210    4.0516   -5.2887 C.3       1 <0>         0.0858
     22 H1         12.3768    4.4378   -6.2062 H         1 <0>         0.1350
     23 C17        14.1361    3.3179   -5.5683 C.3       1 <0>        -0.1166
     24 C18        15.1955    4.3466   -5.9756 C.3       1 <0>        -0.1214
     25 C19        15.4724    5.3148   -4.8252 C.3       1 <0>        -0.1416
     26 C20        14.1940    6.0977   -4.4880 C.3       1 <0>         0.1478
     27 N4         13.0979    5.1336   -4.3193 N.am      1 <0>        -0.6168
     28 C21        12.2448    4.9736   -3.3043 C.2       1 <0>         0.7047
     29 O2         12.1041    5.7750   -2.4014 O.2       1 <0>        -0.5411
     30 H2          1.2209   -1.7625   -0.0472 H         1 <0>         0.1389
     31 H3          3.3386   -0.5086   -0.0575 H         1 <0>         0.1299
     32 H4          1.1532    3.1665    0.0341 H         1 <0>         0.1331
     33 H5         -0.9245   -0.5588    0.0102 H         1 <0>         0.1376
     34 H6          2.5850    3.9474   -0.3509 H         1 <0>         0.1266
     35 H7          3.9215    4.0190    0.8279 H         1 <0>         0.0905
     36 H8          4.1694    3.6478   -2.1935 H         1 <0>         0.1334
     37 H9          4.6438    5.0862   -1.2583 H         1 <0>         0.1424
     38 H10         5.3588    1.6497   -2.0228 H         1 <0>         0.1341
     39 H11         6.7741    1.5075   -0.9525 H         1 <0>         0.1430
     40 H12         5.3364    1.6423    1.0373 H         1 <0>         0.0906
     41 H13         4.7235    0.3551   -0.0344 H         1 <0>         0.1276
     42 H14         6.5228    3.5213   -2.9805 H         1 <0>         0.1309
     43 H15         6.8318    4.9737   -1.9990 H         1 <0>         0.1343
     44 H16         8.5233    3.7254   -0.6841 H         1 <0>         0.0938
     45 H17         8.2143    2.2729   -1.6655 H         1 <0>         0.0914
     46 H18         8.9144    3.5006   -3.7029 H         1 <0>         0.0798
     47 H19         9.2234    4.9531   -2.7215 H         1 <0>         0.0844
     48 H20        10.9149    3.7047   -1.4066 H         1 <0>         0.0999
     49 H21        10.6059    2.2523   -2.3880 H         1 <0>         0.0980
     50 H22        14.4612    2.7947   -4.6690 H         1 <0>         0.0746
     51 H23        13.9907    2.6026   -6.3778 H         1 <0>         0.0935
     52 H24        16.1174    3.8284   -6.2394 H         1 <0>         0.0804
     53 H25        14.8389    4.9073   -6.8397 H         1 <0>         0.0728
     54 H26        15.7957    4.7535   -3.9486 H         1 <0>         0.0713
     55 H27        16.2576    6.0116   -5.1187 H         1 <0>         0.0903
     56 H28        14.3375    6.6627   -3.5669 H         1 <0>         0.0983
     57 H29        13.9482    6.7758   -5.3053 H         1 <0>         0.0820
     58 H30         6.1932    3.6736   -0.0695 H         1 <0>         0.4234
@<TRIPOS>BOND
     1    1    6 ar
     2    1    2 ar
     3    1   30 1
     4    2    3 ar
     5    2   31 1
     6    3    4 ar
     7    3    8 1
     8    4    5 ar
     9    4   32 1
    10    5    6 ar
    11    5    7 1
    12    6   33 1
    13    8   13 1
    14    8    9 1
    15    9   10 1
    16    9   34 1
    17    9   35 1
    18   10   11 1
    19   10   36 1
    20   10   37 1
    21   11   12 1
    22   11   14 1
    23   11   58 1
    24   12   13 1
    25   12   38 1
    26   12   39 1
    27   13   40 1
    28   13   41 1
    29   14   15 1
    30   14   42 1
    31   14   43 1
    32   15   16 1
    33   15   44 1
    34   15   45 1
    35   16   17 1
    36   16   46 1
    37   16   47 1
    38   17   18 1
    39   17   48 1
    40   17   49 1
    41   18   28 am
    42   18   19 am
    43   19   20 2
    44   19   21 1
    45   21   22 1
    46   21   27 1
    47   21   23 1
    48   23   24 1
    49   23   50 1
    50   23   51 1
    51   24   25 1
    52   24   52 1
    53   24   53 1
    54   25   26 1
    55   25   54 1
    56   25   55 1
    57   26   27 1
    58   26   56 1
    59   26   57 1
    60   27   28 am
    61   28   29 2
@<TRIPOS>MOLECULE
ZINC02183612
   57    60     0     0     0
SMALL
USER_CHARGES

@<TRIPOS>ATOM
      1 C1          1.2087   -0.6827   -0.0265 C.ar      1 <0>        -0.0628
      2 C2          2.3975    0.0207   -0.0350 C.ar      1 <0>        -0.1876
      3 C3          2.3815    1.4094   -0.0131 C.ar      1 <0>         0.2280
      4 C4          1.1691    2.0868    0.0174 C.ar      1 <0>        -0.1753
      5 C5         -0.0166    1.3773    0.0258 C.ar      1 <0>        -0.0384
      6 C6          0.0034   -0.0063    0.0039 C.ar      1 <0>        -0.1535
      7 Br1        -1.6679    2.2977    0.0673 Br        1 <0>        -0.0524
      8 N1          3.5820    2.1234   -0.0212 N.pl3     1 <0>        -0.6281
      9 C7          3.5868    3.5910   -0.1178 C.3       1 <0>         0.1246
     10 C8          4.5354    4.0011   -1.2493 C.3       1 <0>         0.0404
     11 N2          5.8520    3.3890   -1.0263 N.3       1 <0>        -0.5363
     12 C9          5.7726    1.9228   -1.0721 C.3       1 <0>         0.0360
     13 C10         4.8745    1.4279    0.0728 C.3       1 <0>         0.1252
     14 C11         6.8373    3.8932   -1.9921 C.3       1 <0>         0.0572
     15 C12         8.2370    3.4323   -1.5805 C.3       1 <0>        -0.1115
     16 C13         9.2633    3.9575   -2.5864 C.3       1 <0>        -0.1342
     17 C14        10.6629    3.4966   -2.1747 C.3       1 <0>         0.1203
     18 N3         11.6456    3.9995   -3.1379 N.am      1 <0>        -0.5801
     19 C15        12.0252    3.3359   -4.2506 C.2       1 <0>         0.5252
     20 O1         11.6656    2.2336   -4.6049 O.2       1 <0>        -0.4644
     21 C16        12.9921    4.2545   -4.9630 C.3       1 <0>         0.0864
     22 H1         12.5832    4.6108   -5.9085 H         1 <0>         0.1320
     23 C17        14.3478    3.5697   -5.1613 C.3       1 <0>        -0.1159
     24 C18        15.3869    4.6340   -5.5274 C.3       1 <0>        -0.1198
     25 C19        15.5640    5.6274   -4.3788 C.3       1 <0>        -0.1407
     26 C20        14.2400    6.3636   -4.1218 C.3       1 <0>         0.1493
     27 N4         13.1746    5.3592   -3.9968 N.am      1 <0>        -0.6215
     28 C21        12.2752    5.1789   -3.0261 C.2       1 <0>         0.7052
     29 O2         12.0554    5.9859   -2.1443 O.2       1 <0>        -0.5386
     30 H2          1.2209   -1.7624   -0.0481 H         1 <0>         0.1309
     31 H3          3.3386   -0.5086   -0.0584 H         1 <0>         0.1284
     32 H4          1.1532    3.1665    0.0350 H         1 <0>         0.1317
     33 H5         -0.9245   -0.5588    0.0102 H         1 <0>         0.1289
     34 H6          2.5801    3.9468   -0.3368 H         1 <0>         0.0863
     35 H7          3.9328    4.0187    0.8232 H         1 <0>         0.0732
     36 H8          4.1326    3.6604   -2.2031 H         1 <0>         0.0389
     37 H9          4.6366    5.0863   -1.2636 H         1 <0>         0.0874
     38 H10         5.3525    1.6110   -2.0283 H         1 <0>         0.0391
     39 H11         6.7710    1.5007   -0.9579 H         1 <0>         0.0898
     40 H12         5.3419    1.6517    1.0318 H         1 <0>         0.0732
     41 H13         4.7195    0.3530   -0.0201 H         1 <0>         0.0873
     42 H14         6.6046    3.5063   -2.9842 H         1 <0>         0.0347
     43 H15         6.8041    4.9825   -2.0100 H         1 <0>         0.0777
     44 H16         8.4698    3.8192   -0.5884 H         1 <0>         0.0781
     45 H17         8.2702    2.3430   -1.5626 H         1 <0>         0.0667
     46 H18         9.0305    3.5706   -3.5785 H         1 <0>         0.0663
     47 H19         9.2300    5.0468   -2.6042 H         1 <0>         0.0730
     48 H20        10.8957    3.8835   -1.1826 H         1 <0>         0.0975
     49 H21        10.6962    2.4073   -2.1569 H         1 <0>         0.0948
     50 H22        14.6442    3.0716   -4.2382 H         1 <0>         0.0742
     51 H23        14.2738    2.8387   -5.9664 H         1 <0>         0.0916
     52 H24        16.3410    4.1492   -5.7340 H         1 <0>         0.0772
     53 H25        15.0556    5.1688   -6.4176 H         1 <0>         0.0713
     54 H26        15.8614    5.0907   -3.4779 H         1 <0>         0.0706
     55 H27        16.3362    6.3507   -4.6407 H         1 <0>         0.0869
     56 H28        14.3120    6.9457   -3.2031 H         1 <0>         0.0968
     57 H29        14.0123    7.0207   -4.9611 H         1 <0>         0.0790
@<TRIPOS>BOND
     1    1    6 ar
     2    1    2 ar
     3    1   30 1
     4    2    3 ar
     5    2   31 1
     6    3    4 ar
     7    3    8 1
     8    4    5 ar
     9    4   32 1
    10    5    6 ar
    11    5    7 1
    12    6   33 1
    13    8   13 1
    14    8    9 1
    15    9   10 1
    16    9   34 1
    17    9   35 1
    18   10   11 1
    19   10   36 1
    20   10   37 1
    21   11   12 1
    22   11   14 1
    23   12   13 1
    24   12   38 1
    25   12   39 1
    26   13   40 1
    27   13   41 1
    28   14   15 1
    29   14   42 1
    30   14   43 1
    31   15   16 1
    32   15   44 1
    33   15   45 1
    34   16   17 1
    35   16   46 1
    36   16   47 1
    37   17   18 1
    38   17   48 1
    39   17   49 1
    40   18   28 am
    41   18   19 am
    42   19   20 2
    43   19   21 1
    44   21   22 1
    45   21   27 1
    46   21   23 1
    47   23   24 1
    48   23   50 1
    49   23   51 1
    50   24   25 1
    51   24   52 1
    52   24   53 1
    53   25   26 1
    54   25   54 1
    55   25   55 1
    56   26   27 1
    57   26   56 1
    58   26   57 1
    59   27   28 am
    60   28   29 2
@<TRIPOS>MOLECULE
ZINC00897457
   31    32     0     0     0
SMALL
USER_CHARGES
2-(1H-indol-3-yl)-N,N-dimethyl-ethanamine
@<TRIPOS>ATOM
      1 C1          0.0585    1.3230   -2.4006 C.3       1 <0>        -0.0423
      2 C2         -2.0591    0.9694   -1.2810 C.3       1 <0>        -0.0467
      3 C3         -0.0127    1.0858    0.0080 C.3       1 <0>        -0.0039
      4 C4         -0.7288    1.5792    1.2668 C.3       1 <0>        -0.0596
      5 C5          0.0000    1.0800    2.4877 C.2       1 <0>        -0.2054
      6 C6         -0.2888   -0.0242    3.1942 C.2       1 <0>         0.0841
      7 N1          0.5910   -0.1564    4.2338 N.pl3     1 <0>        -0.5882
      8 H1          0.5835   -0.8781    4.8819 H         1 <0>         0.4232
      9 C7          1.4851    0.8907    4.2264 C.ar      1 <0>         0.0942
     10 C8          1.1542    1.7112    3.1323 C.ar      1 <0>        -0.1011
     11 C9          1.9006    2.8621    2.8738 C.ar      1 <0>        -0.0845
     12 C10         2.9506    3.1863    3.6862 C.ar      1 <0>        -0.1324
     13 C11         3.2809    2.3806    4.7669 C.ar      1 <0>        -0.0932
     14 C12         2.5576    1.2400    5.0401 C.ar      1 <0>        -0.1218
     15 H2          0.2299    0.2520   -2.5094 H         1 <0>         0.1219
     16 H3         -0.4905    1.6929   -3.2665 H         1 <0>         0.1220
     17 H4          1.0161    1.8388   -2.3299 H         1 <0>         0.1210
     18 H5         -2.6409    1.2283   -0.3963 H         1 <0>         0.1223
     19 H6         -2.5631    1.3469   -2.1707 H         1 <0>         0.1217
     20 H7         -1.9644   -0.1143   -1.3492 H         1 <0>         0.1224
     21 H8          0.0021   -0.0041    0.0020 H         1 <0>         0.1298
     22 H9          1.0099    1.4631    0.0003 H         1 <0>         0.1289
     23 H10        -0.7436    2.6691    1.2728 H         1 <0>         0.0906
     24 H11        -1.7514    1.2020    1.2746 H         1 <0>         0.0903
     25 H12        -1.0951   -0.7081    2.9736 H         1 <0>         0.1726
     26 H13         1.6493    3.4939    2.0348 H         1 <0>         0.1179
     27 H14         3.5282    4.0766    3.4855 H         1 <0>         0.1273
     28 H15         4.1133    2.6501    5.4000 H         1 <0>         0.1318
     29 H16         2.8229    0.6192    5.8831 H         1 <0>         0.1257
     30 N2         -0.7265    1.6008   -1.1794 N.4       1 <0>        -0.3993
     31 H17        -0.8450    2.6161   -1.0829 H         1 <0>         0.4307
@<TRIPOS>BOND
     1    1   15 1
     2    1   16 1
     3    1   17 1
     4    1   30 1
     5    2   18 1
     6    2   19 1
     7    2   20 1
     8    2   30 1
     9    3    4 1
    10    3   21 1
    11    3   22 1
    12    3   30 1
    13    4    5 1
    14    4   23 1
    15    4   24 1
    16    5   10 1
    17    5    6 2
    18    6    7 1
    19    6   25 1
    20    7    8 1
    21    7    9 1
    22    9   14 ar
    23    9   10 ar
    24   10   11 ar
    25   11   12 ar
    26   11   26 1
    27   12   13 ar
    28   12   27 1
    29   13   14 ar
    30   13   28 1
    31   14   29 1
    32   30   31 1
@<TRIPOS>MOLECULE
ZINC00014360
   42    43     0     0     0
SMALL
USER_CHARGES

@<TRIPOS>ATOM
      1 C1         -0.0178    1.4608    0.0101 C.3       1 <0>         0.0793
      2 N1          0.0021   -0.0041    0.0020 N.pl3     1 <0>        -1.1235
      3 S1          0.7421   -0.8289    1.2326 S.o2      1 <0>         2.6084
      4 O1          0.5924   -2.2002    0.8914 O.2       1 <0>        -0.9468
      5 O2          2.0334   -0.2448    1.3355 O.2       1 <0>        -0.9510
      6 C2         -0.2382   -0.4417    2.7090 C.3       1 <0>        -0.5828
      7 C3          0.3516   -1.1474    3.9028 C.ar      1 <0>        -0.1049
      8 C4         -0.0784   -2.4267    4.2282 C.ar      1 <0>        -0.0826
      9 C5          0.4473   -3.0893    5.3155 C.ar      1 <0>        -0.1137
     10 C6          1.4193   -2.4726    6.0968 C.ar      1 <0>         0.1042
     11 C7          1.8519   -1.1765    5.7625 C.ar      1 <0>        -0.0991
     12 C8          1.3091   -0.5253    4.6530 C.ar      1 <0>        -0.0640
     13 C9          2.8614   -0.8166    6.7612 C.2       1 <0>        -0.2000
     14 C10         2.9754   -1.8603    7.5977 C.2       1 <0>         0.0879
     15 N2          2.1214   -2.8591    7.2163 N.pl3     1 <0>        -0.5851
     16 H1          2.0253   -3.7124    7.6673 H         1 <0>         0.4255
     17 C11         3.6270    0.4793    6.8351 C.3       1 <0>        -0.0627
     18 C12         2.7992    1.5182    7.5943 C.3       1 <0>        -0.0095
     19 N3          3.5455    2.7814    7.6664 N.4       1 <0>        -0.3881
     20 C13         3.7116    3.3299    6.3138 C.3       1 <0>        -0.0545
     21 C14         2.8051    3.7410    8.4964 C.3       1 <0>        -0.0469
     22 H2          1.0048    1.8381    0.0023 H         1 <0>         0.0693
     23 H3         -0.5450    1.8219   -0.8730 H         1 <0>         0.0876
     24 H4         -0.5280    1.8123    0.9069 H         1 <0>         0.0574
     25 H5         -0.4183   -0.4908   -0.7241 H         1 <0>         0.4222
     26 H6         -0.2266    0.6346    2.8808 H         1 <0>         0.1378
     27 H7         -1.2653   -0.7750    2.5608 H         1 <0>         0.1453
     28 H8         -0.8329   -2.9072    3.6230 H         1 <0>         0.1399
     29 H9          0.1057   -4.0841    5.5609 H         1 <0>         0.1340
     30 H10         1.6421    0.4681    4.3911 H         1 <0>         0.1262
     31 H11         3.6421   -1.9048    8.4461 H         1 <0>         0.1761
     32 H12         4.5701    0.3149    7.3563 H         1 <0>         0.0931
     33 H13         3.8275    0.8410    5.8266 H         1 <0>         0.0945
     34 H14         1.8561    1.6826    7.0732 H         1 <0>         0.1293
     35 H15         2.5988    1.1565    8.6029 H         1 <0>         0.1303
     36 H16         4.2654    4.2672    6.3673 H         1 <0>         0.1245
     37 H17         4.2611    2.6179    5.6980 H         1 <0>         0.1265
     38 H18         2.7316    3.5116    5.8726 H         1 <0>         0.1219
     39 H19         2.6818    3.3340    9.5001 H         1 <0>         0.1225
     40 H20         3.3588    4.6783    8.5499 H         1 <0>         0.1241
     41 H21         1.8251    3.9226    8.0552 H         1 <0>         0.1209
     42 H22         4.4527    2.6132    8.0749 H         1 <0>         0.4266
@<TRIPOS>BOND
     1    1    2 1
     2    1   22 1
     3    1   23 1
     4    1   24 1
     5    2    3 1
     6    2   25 1
     7    3    4 2
     8    3    5 2
     9    3    6 1
    10    6    7 1
    11    6   26 1
    12    6   27 1
    13    7   12 ar
    14    7    8 ar
    15    8    9 ar
    16    8   28 1
    17    9   10 ar
    18    9   29 1
    19   10   15 1
    20   10   11 ar
    21   11   12 ar
    22   11   13 1
    23   12   30 1
    24   13   14 2
    25   13   17 1
    26   14   15 1
    27   14   31 1
    28   15   16 1
    29   17   18 1
    30   17   32 1
    31   17   33 1
    32   18   19 1
    33   18   34 1
    34   18   35 1
    35   19   20 1
    36   19   21 1
    37   19   42 1
    38   20   36 1
    39   20   37 1
    40   20   38 1
    41   21   39 1
    42   21   40 1
    43   21   41 1
@<TRIPOS>MOLECULE
ZINC00013635
   48    50     0     0     0
SMALL
USER_CHARGES
1-(4-fluorophenyl)-4-[4-(5-fluoropyrimidin-2-yl)piperazin-1-yl]-butan-1-ol
@<TRIPOS>ATOM
      1 C1          1.0412    1.5837    3.0363 C.ar      1 <0>        -0.0821
      2 C2          1.6394    1.0387    4.1565 C.ar      1 <0>        -0.1487
      3 C3          1.1287   -0.1186    4.7195 C.ar      1 <0>         0.1092
      4 C4          0.0154   -0.7251    4.1629 C.ar      1 <0>        -0.1494
      5 C5         -0.5848   -0.1748    3.0463 C.ar      1 <0>        -0.0791
      6 C6         -0.0738    0.9805    2.4848 C.ar      1 <0>        -0.1421
      7 C7         -0.7288    1.5792    1.2668 C.3       1 <0>         0.1541
      8 H1         -1.7755    1.2768    1.2315 H         1 <0>         0.1127
      9 C8         -0.0127    1.0858    0.0080 C.3       1 <0>        -0.1461
     10 C9         -0.7527    1.5927   -1.2315 C.3       1 <0>        -0.1479
     11 C10        -0.0366    1.0992   -2.4903 C.3       1 <0>        -0.0043
     12 C11        -2.0820    0.9798   -3.7813 C.3       1 <0>         0.0008
     13 C12        -2.8179    1.5708   -4.9862 C.3       1 <0>         0.0351
     14 N1         -2.0359    1.3212   -6.2051 N.pl3     1 <0>        -0.4598
     15 C13        -0.7009    1.9272   -6.1043 C.3       1 <0>         0.0392
     16 C14         0.0349    1.3363   -4.8994 C.3       1 <0>         0.0015
     17 C15        -2.7060    1.7802   -7.3275 C.ar      1 <0>         0.4661
     18 N2         -2.1100    2.6561   -8.1225 N.ar      1 <0>        -0.5236
     19 C16        -2.7192    3.1114   -9.2050 C.ar      1 <0>         0.1560
     20 C17        -4.0015    2.6679   -9.4965 C.ar      1 <0>        -0.0098
     21 C18        -4.5973    1.7540   -8.6388 C.ar      1 <0>         0.1581
     22 N3         -3.9289    1.3363   -7.5762 N.ar      1 <0>        -0.4963
     23 F1         -4.6552    3.1161  -10.5905 F         1 <0>        -0.1081
     24 O1         -0.6468    3.0043    1.3339 O.3       1 <0>        -0.5522
     25 F2          1.7165   -0.6559    5.8109 F         1 <0>        -0.1327
     26 H2          1.4424    2.4836    2.5939 H         1 <0>         0.1302
     27 H3          2.5075    1.5128    4.5901 H         1 <0>         0.1407
     28 H4         -0.3836   -1.6280    4.6010 H         1 <0>         0.1411
     29 H5         -1.4532   -0.6477    2.6119 H         1 <0>         0.1345
     30 H6          0.0021   -0.0041    0.0020 H         1 <0>         0.0879
     31 H7          1.0099    1.4631    0.0003 H         1 <0>         0.0808
     32 H8         -1.7753    1.2154   -1.2238 H         1 <0>         0.0887
     33 H9         -0.7675    2.6825   -1.2255 H         1 <0>         0.0946
     34 H10         0.9860    1.4765   -2.4981 H         1 <0>         0.1312
     35 H11        -0.0218    0.0093   -2.4963 H         1 <0>         0.1334
     36 H12        -1.9834   -0.0982   -3.9084 H         1 <0>         0.1445
     37 H13        -2.6460    1.1891   -2.8723 H         1 <0>         0.1430
     38 H14        -2.9406    2.6448   -4.8464 H         1 <0>         0.0716
     39 H15        -3.7974    1.1020   -5.0802 H         1 <0>         0.1406
     40 H16        -0.7996    3.0053   -5.9772 H         1 <0>         0.0805
     41 H17        -0.1369    1.7180   -7.0132 H         1 <0>         0.1355
     42 H18         1.0143    1.8054   -4.8055 H         1 <0>         0.1423
     43 H19         0.1580    0.2623   -5.0390 H         1 <0>         0.1418
     44 H20        -2.2262    3.8222   -9.8517 H         1 <0>         0.1904
     45 H21        -5.5941    1.3881   -8.8363 H         1 <0>         0.1926
     46 H22         0.2576    3.3450    1.3680 H         1 <0>         0.3776
     47 N4         -0.7508    1.6135   -3.6783 N.4       1 <0>        -0.4002
     48 H23        -0.8709    2.6286   -3.5819 H         1 <0>         0.4263
@<TRIPOS>BOND
     1    1    6 ar
     2    1    2 ar
     3    1   26 1
     4    2    3 ar
     5    2   27 1
     6    3    4 ar
     7    3   25 1
     8    4    5 ar
     9    4   28 1
    10    5    6 ar
    11    5   29 1
    12    6    7 1
    13    7    8 1
    14    7    9 1
    15    7   24 1
    16    9   10 1
    17    9   30 1
    18    9   31 1
    19   10   11 1
    20   10   32 1
    21   10   33 1
    22   11   34 1
    23   11   35 1
    24   11   47 1
    25   12   13 1
    26   12   36 1
    27   12   37 1
    28   12   47 1
    29   13   14 1
    30   13   38 1
    31   13   39 1
    32   14   15 1
    33   14   17 1
    34   15   16 1
    35   15   40 1
    36   15   41 1
    37   16   42 1
    38   16   43 1
    39   16   47 1
    40   17   22 ar
    41   17   18 ar
    42   18   19 ar
    43   19   20 ar
    44   19   44 1
    45   20   21 ar
    46   20   23 1
    47   21   22 ar
    48   21   45 1
    49   24   46 1
    50   47   48 1
