@<TRIPOS>MOLECULE
ZINC00020245
   46    48     0     0     0
SMALL
USER_CHARGES

@<TRIPOS>ATOM
      1 C1         -5.6836    1.3838    0.0162 C.3       1 <0>        -0.0473
      2 N1         -5.6620   -0.0833   -0.0564 N.4       1 <0>        -0.3868
      3 C2         -6.3713   -0.5242   -1.2649 C.3       1 <0>        -0.0522
      4 C3         -4.2702   -0.5505   -0.1076 C.3       1 <0>        -0.0086
      5 C4         -4.2434   -2.0795   -0.0575 C.3       1 <0>        -0.1781
      6 C5         -2.7938   -2.5661   -0.1108 C.3       1 <0>         0.1490
      7 N2         -2.7704   -4.0309   -0.1190 N.pl3     1 <0>        -0.6108
      8 C6         -2.7295   -4.7451   -1.3212 C.ar      1 <0>         0.1758
      9 C7         -1.6865   -4.4783   -2.2022 C.ar      1 <0>        -0.1411
     10 C8         -1.5734   -5.1772   -3.3856 C.ar      1 <0>        -0.1022
     11 C9         -2.5089   -6.1508   -3.6854 C.ar      1 <0>        -0.1266
     12 C10        -3.5489   -6.4041   -2.8209 C.ar      1 <0>        -0.1101
     13 C11        -3.6933   -5.6947   -1.6266 C.ar      1 <0>        -0.0998
     14 C12        -4.9357   -6.0340   -0.8354 C.3       1 <0>        -0.0687
     15 C13        -5.1005   -5.1892    0.4158 C.3       1 <0>        -0.0773
     16 C14        -3.9592   -5.4030    1.3779 C.ar      1 <0>        -0.0996
     17 C15        -2.7824   -4.7590    1.0748 C.ar      1 <0>         0.1523
     18 C16        -1.6837   -4.8488    1.9126 C.ar      1 <0>        -0.1184
     19 C17        -1.7825   -5.6251    3.0560 C.ar      1 <0>        -0.1094
     20 C18        -2.9565   -6.2950    3.3488 C.ar      1 <0>        -0.1165
     21 C19        -4.0679   -6.1865    2.5030 C.ar      1 <0>        -0.1028
     22 H1         -6.7163    1.7305    0.0542 H         1 <0>         0.1245
     23 H2         -5.1573    1.7109    0.9129 H         1 <0>         0.1235
     24 H3         -5.1933    1.7984   -0.8646 H         1 <0>         0.1221
     25 H4         -6.3552   -1.6128   -1.3188 H         1 <0>         0.1231
     26 H5         -7.4040   -0.1775   -1.2269 H         1 <0>         0.1246
     27 H6         -5.8810   -0.1096   -2.1457 H         1 <0>         0.1227
     28 H7         -3.8061   -0.2091   -1.0329 H         1 <0>         0.1308
     29 H8         -3.7207   -0.1494    0.7440 H         1 <0>         0.1320
     30 H9         -4.7075   -2.4209    0.8678 H         1 <0>         0.0908
     31 H10        -4.7929   -2.4806   -0.9091 H         1 <0>         0.0915
     32 H11        -2.3174   -2.1901   -1.0161 H         1 <0>         0.0824
     33 H12        -2.2550   -2.1990    0.7627 H         1 <0>         0.0801
     34 H13        -0.9599   -3.7176   -1.9576 H         1 <0>         0.1215
     35 H14        -0.7646   -4.9667   -4.0697 H         1 <0>         0.1276
     36 H15        -2.4229   -6.7145   -4.6025 H         1 <0>         0.1250
     37 H16        -4.2693   -7.1687   -3.0712 H         1 <0>         0.1222
     38 H17        -5.8074   -5.8880   -1.4734 H         1 <0>         0.0793
     39 H18        -4.8898   -7.0837   -0.5452 H         1 <0>         0.0765
     40 H19        -5.1365   -4.1371    0.1334 H         1 <0>         0.0724
     41 H20        -6.0358   -5.4578    0.9068 H         1 <0>         0.0709
     42 H21        -0.7686   -4.3248    1.6795 H         1 <0>         0.1257
     43 H22        -0.9372   -5.7074    3.7231 H         1 <0>         0.1275
     44 H23        -3.0178   -6.9071    4.2365 H         1 <0>         0.1269
     45 H24        -4.9880   -6.7067    2.7249 H         1 <0>         0.1290
     46 H25        -6.1159   -0.4671    0.7589 H         1 <0>         0.4268
@<TRIPOS>BOND
     1    1    2 1
     2    1   22 1
     3    1   23 1
     4    1   24 1
     5    2    3 1
     6    2    4 1
     7    2   46 1
     8    3   25 1
     9    3   26 1
    10    3   27 1
    11    4    5 1
    12    4   28 1
    13    4   29 1
    14    5    6 1
    15    5   30 1
    16    5   31 1
    17    6    7 1
    18    6   32 1
    19    6   33 1
    20    7   17 1
    21    7    8 1
    22    8   13 ar
    23    8    9 ar
    24    9   10 ar
    25    9   34 1
    26   10   11 ar
    27   10   35 1
    28   11   12 ar
    29   11   36 1
    30   12   13 ar
    31   12   37 1
    32   13   14 1
    33   14   15 1
    34   14   38 1
    35   14   39 1
    36   15   16 1
    37   15   40 1
    38   15   41 1
    39   16   21 ar
    40   16   17 ar
    41   17   18 ar
    42   18   19 ar
    43   18   42 1
    44   19   20 ar
    45   19   43 1
    46   20   21 ar
    47   20   44 1
    48   21   45 1
@<TRIPOS>MOLECULE
ZINC01530571
   60    63     0     0     0
SMALL
USER_CHARGES

@<TRIPOS>ATOM
      1 C1         -0.0167    1.3818    0.0096 C.ar      1 <0>        -0.2679
      2 C2          1.1915    2.0609    0.0018 C.ar      1 <0>         0.1958
      3 N1          2.3197    1.3705   -0.0127 N.ar      1 <0>        -0.5666
      4 C3          2.3029    0.0457   -0.0197 C.ar      1 <0>         0.5562
      5 N2          1.1654   -0.6335   -0.0129 N.ar      1 <0>        -0.5663
      6 C4          0.0021   -0.0041    0.0020 C.ar      1 <0>         0.1960
      7 N3          3.5022   -0.6451   -0.0348 N.pl3     1 <0>        -0.6064
      8 C5          4.7874    0.0707   -0.0371 C.3       1 <0>         0.1080
      9 C6          5.6545   -0.4916   -1.1683 C.3       1 <0>        -0.0202
     10 N4          5.7718   -1.9473   -1.0165 N.4       1 <0>        -0.3840
     11 C7          4.4544   -2.5749   -1.1794 C.3       1 <0>        -0.0262
     12 C8          3.5278   -2.1159   -0.0430 C.3       1 <0>         0.1092
     13 C9          6.6913   -2.4716   -2.0352 C.3       1 <0>        -0.0085
     14 C10         6.9121   -3.9674   -1.8016 C.3       1 <0>        -0.1445
     15 C11         7.8697   -4.5135   -2.8626 C.3       1 <0>        -0.1292
     16 C12         8.0905   -6.0093   -2.6289 C.3       1 <0>         0.0911
     17 N5          9.0074   -6.5321   -3.6449 N.am      1 <0>        -0.5675
     18 C13         8.4943   -7.0005   -4.7921 C.2       1 <0>         0.5274
     19 O1          7.2949   -6.9658   -4.9647 O.2       1 <0>        -0.4991
     20 C14         9.3797   -7.5686   -5.8706 C.3       1 <0>        -0.1339
     21 C15        10.7544   -6.9065   -5.7927 C.3       1 <0>        -0.0666
     22 C16        11.7066   -7.5412   -6.8156 C.3       1 <0>        -0.1146
     23 C17        12.1410   -6.4083   -7.7700 C.3       1 <0>        -0.1265
     24 C18        11.9376   -5.1147   -6.9422 C.3       1 <0>        -0.1244
     25 C19        10.6393   -5.4143   -6.1507 C.3       1 <0>        -0.1220
     26 C20        11.3191   -7.0612   -4.3813 C.3       1 <0>        -0.1329
     27 C21        10.3239   -6.5167   -3.3897 C.2       1 <0>         0.5271
     28 O2         10.7205   -6.0600   -2.3391 O.2       1 <0>        -0.4986
     29 H1         -0.9525    1.9208    0.0259 H         1 <0>         0.1543
     30 H2          1.2116    3.1407    0.0070 H         1 <0>         0.1759
     31 H3         -0.9219   -0.5632    0.0082 H         1 <0>         0.1760
     32 H4          4.6141    1.1341   -0.2023 H         1 <0>         0.1406
     33 H5          5.2907   -0.0773    0.9184 H         1 <0>         0.0917
     34 H6          5.1926   -0.2623   -2.1286 H         1 <0>         0.1320
     35 H7          6.6459   -0.0406   -1.1249 H         1 <0>         0.1443
     36 H8          4.0288   -2.2827   -2.1393 H         1 <0>         0.1328
     37 H9          4.5614   -3.6591   -1.1441 H         1 <0>         0.1450
     38 H10         3.9061   -2.4809    0.9119 H         1 <0>         0.0920
     39 H11         2.5214   -2.4989   -0.2121 H         1 <0>         0.1403
     40 H12         6.2623   -2.3179   -3.0254 H         1 <0>         0.1301
     41 H13         7.6452   -1.9486   -1.9674 H         1 <0>         0.1337
     42 H14         7.3410   -4.1211   -0.8114 H         1 <0>         0.0926
     43 H15         5.9581   -4.4905   -1.8694 H         1 <0>         0.0914
     44 H16         7.4407   -4.3598   -3.8528 H         1 <0>         0.0793
     45 H17         8.8236   -3.9904   -2.7947 H         1 <0>         0.0796
     46 H18         8.5194   -6.1630   -1.6388 H         1 <0>         0.0991
     47 H19         7.1365   -6.5323   -2.6968 H         1 <0>         0.0987
     48 H20         9.4847   -8.6439   -5.7267 H         1 <0>         0.1160
     49 H21         8.9360   -7.3726   -6.8468 H         1 <0>         0.1186
     50 H22        12.5771   -7.9571   -6.3083 H         1 <0>         0.0770
     51 H23        11.1896   -8.3222   -7.3732 H         1 <0>         0.0769
     52 H24        13.1891   -6.5234   -8.0465 H         1 <0>         0.0725
     53 H25        11.5103   -6.3955   -8.6589 H         1 <0>         0.0700
     54 H26        12.7754   -4.9549   -6.2634 H         1 <0>         0.0706
     55 H27        11.8006   -4.2545   -7.5974 H         1 <0>         0.0710
     56 H28         9.7628   -5.2377   -6.7741 H         1 <0>         0.0740
     57 H29        10.5946   -4.8071   -5.2466 H         1 <0>         0.0611
     58 H30        11.5032   -8.1158   -4.1763 H         1 <0>         0.1163
     59 H31        12.2530   -6.5051   -4.2998 H         1 <0>         0.1183
     60 H32         6.1334   -2.1605   -0.0990 H         1 <0>         0.4234
@<TRIPOS>BOND
     1    1    6 ar
     2    1    2 ar
     3    1   29 1
     4    2    3 ar
     5    2   30 1
     6    3    4 ar
     7    4    5 ar
     8    4    7 1
     9    5    6 ar
    10    6   31 1
    11    7   12 1
    12    7    8 1
    13    8    9 1
    14    8   32 1
    15    8   33 1
    16    9   10 1
    17    9   34 1
    18    9   35 1
    19   10   11 1
    20   10   13 1
    21   10   60 1
    22   11   12 1
    23   11   36 1
    24   11   37 1
    25   12   38 1
    26   12   39 1
    27   13   14 1
    28   13   40 1
    29   13   41 1
    30   14   15 1
    31   14   42 1
    32   14   43 1
    33   15   16 1
    34   15   44 1
    35   15   45 1
    36   16   17 1
    37   16   46 1
    38   16   47 1
    39   17   27 am
    40   17   18 am
    41   18   19 2
    42   18   20 1
    43   20   21 1
    44   20   48 1
    45   20   49 1
    46   21   25 1
    47   21   22 1
    48   21   26 1
    49   22   23 1
    50   22   50 1
    51   22   51 1
    52   23   24 1
    53   23   52 1
    54   23   53 1
    55   24   25 1
    56   24   54 1
    57   24   55 1
    58   25   56 1
    59   25   57 1
    60   26   27 1
    61   26   58 1
    62   26   59 1
    63   27   28 2
@<TRIPOS>MOLECULE
ZINC01530571
   59    62     0     0     0
SMALL
USER_CHARGES

@<TRIPOS>ATOM
      1 C1         -0.0167    1.3818    0.0096 C.ar      1 <0>        -0.2969
      2 C2          1.1915    2.0609    0.0018 C.ar      1 <0>         0.1938
      3 N1          2.3197    1.3705   -0.0127 N.ar      1 <0>        -0.5732
      4 C3          2.3029    0.0457   -0.0197 C.ar      1 <0>         0.5658
      5 N2          1.1654   -0.6335   -0.0129 N.ar      1 <0>        -0.5730
      6 C4          0.0021   -0.0041    0.0020 C.ar      1 <0>         0.1940
      7 N3          3.5022   -0.6451   -0.0348 N.pl3     1 <0>        -0.5851
      8 C5          4.7864    0.0719   -0.0371 C.3       1 <0>         0.1324
      9 C6          5.6472   -0.4751   -1.1808 C.3       1 <0>         0.0415
     10 N4          5.7512   -1.9351   -1.0561 N.3       1 <0>        -0.5378
     11 C7          4.4367   -2.5765   -1.1923 C.3       1 <0>         0.0378
     12 C8          3.5262   -2.1156   -0.0430 C.3       1 <0>         0.1322
     13 C9          6.7063   -2.4799   -2.0301 C.3       1 <0>         0.0580
     14 C10         6.9763   -3.9518   -1.7112 C.3       1 <0>        -0.1114
     15 C11         7.9711   -4.5193   -2.7257 C.3       1 <0>        -0.1277
     16 C12         8.2411   -5.9911   -2.4068 C.3       1 <0>         0.0925
     17 N5          9.1937   -6.5345   -3.3782 N.am      1 <0>        -0.5656
     18 C13         8.7176   -7.0831   -4.5056 C.2       1 <0>         0.5235
     19 O1          7.5209   -7.1017   -4.6983 O.2       1 <0>        -0.4979
     20 C14         9.6414   -7.6762   -5.5375 C.3       1 <0>        -0.1320
     21 C15        10.9900   -6.9610   -5.4750 C.3       1 <0>        -0.0665
     22 C16        11.9819   -7.6151   -6.4466 C.3       1 <0>        -0.1128
     23 C17        12.3921   -6.5206   -7.4551 C.3       1 <0>        -0.1254
     24 C18        12.1282   -5.1922   -6.7029 C.3       1 <0>        -0.1237
     25 C19        10.8279   -5.4956   -5.9162 C.3       1 <0>        -0.1241
     26 C20        11.5352   -7.0178   -4.0487 C.3       1 <0>        -0.1310
     27 C21        10.5042   -6.4570   -3.1040 C.2       1 <0>         0.5230
     28 O2         10.8659   -5.9296   -2.0741 O.2       1 <0>        -0.4965
     29 H1         -0.9525    1.9208    0.0259 H         1 <0>         0.1437
     30 H2          1.2116    3.1407    0.0070 H         1 <0>         0.1666
     31 H3         -0.9219   -0.5632    0.0082 H         1 <0>         0.1667
     32 H4          4.6108    1.1370   -0.1881 H         1 <0>         0.1016
     33 H5          5.2961   -0.0869    0.9132 H         1 <0>         0.0738
     34 H6          5.1859   -0.2235   -2.1357 H         1 <0>         0.0373
     35 H7          6.6426   -0.0339   -1.1299 H         1 <0>         0.0892
     36 H8          3.9922   -2.2957   -2.1471 H         1 <0>         0.0376
     37 H9          4.5541   -3.6593   -1.1498 H         1 <0>         0.0919
     38 H10         3.9172   -2.4807    0.9068 H         1 <0>         0.0739
     39 H11         2.5171   -2.4975   -0.1978 H         1 <0>         0.1013
     40 H12         6.2894   -2.3962   -3.0337 H         1 <0>         0.0338
     41 H13         7.6396   -1.9194   -1.9765 H         1 <0>         0.0768
     42 H14         7.3933   -4.0355   -0.7076 H         1 <0>         0.0768
     43 H15         6.0430   -4.5123   -1.7648 H         1 <0>         0.0665
     44 H16         7.5542   -4.4355   -3.7293 H         1 <0>         0.0656
     45 H17         8.9044   -3.9587   -2.6720 H         1 <0>         0.0680
     46 H18         8.6581   -6.0748   -1.4031 H         1 <0>         0.0965
     47 H19         7.3078   -6.5516   -2.4604 H         1 <0>         0.0949
     48 H20         9.7822   -8.7375   -5.3331 H         1 <0>         0.1123
     49 H21         9.2080   -7.5500   -6.5297 H         1 <0>         0.1155
     50 H22        12.8577   -7.9706   -5.9039 H         1 <0>         0.0751
     51 H23        11.5029   -8.4436   -6.9683 H         1 <0>         0.0748
     52 H24        13.4482   -6.6121   -7.7087 H         1 <0>         0.0699
     53 H25        11.7768   -6.5793   -8.3530 H         1 <0>         0.0686
     54 H26        12.9479   -4.9651   -6.0212 H         1 <0>         0.0700
     55 H27        11.9720   -4.3745   -7.4065 H         1 <0>         0.0701
     56 H28         9.9566   -5.3855   -6.5618 H         1 <0>         0.0744
     57 H29        10.7458   -4.8422   -5.0477 H         1 <0>         0.0652
     58 H30        11.7534   -8.0522   -3.7832 H         1 <0>         0.1126
     59 H31        12.4471   -6.4242   -3.9835 H         1 <0>         0.1155
@<TRIPOS>BOND
     1    1    6 ar
     2    1    2 ar
     3    1   29 1
     4    2    3 ar
     5    2   30 1
     6    3    4 ar
     7    4    5 ar
     8    4    7 1
     9    5    6 ar
    10    6   31 1
    11    7   12 1
    12    7    8 1
    13    8    9 1
    14    8   32 1
    15    8   33 1
    16    9   10 1
    17    9   34 1
    18    9   35 1
    19   10   11 1
    20   10   13 1
    21   11   12 1
    22   11   36 1
    23   11   37 1
    24   12   38 1
    25   12   39 1
    26   13   14 1
    27   13   40 1
    28   13   41 1
    29   14   15 1
    30   14   42 1
    31   14   43 1
    32   15   16 1
    33   15   44 1
    34   15   45 1
    35   16   17 1
    36   16   46 1
    37   16   47 1
    38   17   27 am
    39   17   18 am
    40   18   19 2
    41   18   20 1
    42   20   21 1
    43   20   48 1
    44   20   49 1
    45   21   25 1
    46   21   22 1
    47   21   26 1
    48   22   23 1
    49   22   50 1
    50   22   51 1
    51   23   24 1
    52   23   52 1
    53   23   53 1
    54   24   25 1
    55   24   54 1
    56   24   55 1
    57   25   56 1
    58   25   57 1
    59   26   27 1
    60   26   58 1
    61   26   59 1
    62   27   28 2
@<TRIPOS>MOLECULE
ZINC02021499
   56    58     0     0     0
SMALL
USER_CHARGES
4,4-dimethyl-1-[4-(4-pyrimidin-2-ylpiperazin-1-yl)butyl]piperidine-2,6-dione
@<TRIPOS>ATOM
      1 C1         -2.4128    2.7254   -7.4483 C.3       1 <0>        -0.1434
      2 C2         -1.6026    2.1703   -6.2751 C.3       1 <0>        -0.0679
      3 C3         -1.0877    3.3272   -5.4122 C.3       1 <0>        -0.1367
      4 C4         -0.3906    2.7678   -4.2003 C.2       1 <0>         0.5272
      5 O1          0.5087    3.3987   -3.6878 O.2       1 <0>        -0.4989
      6 N1         -0.7451    1.5845   -3.6772 N.am      1 <0>        -0.5688
      7 C5         -1.7192    0.8257   -4.2012 C.2       1 <0>         0.5272
      8 O2         -1.9817   -0.2415   -3.6894 O.2       1 <0>        -0.4987
      9 C6         -2.4969    1.2764   -5.4095 C.3       1 <0>        -0.1365
     10 C7         -0.0366    1.0992   -2.4903 C.3       1 <0>         0.0906
     11 C8         -0.7527    1.5927   -1.2315 C.3       1 <0>        -0.1292
     12 C9         -0.0127    1.0858    0.0080 C.3       1 <0>        -0.1458
     13 C10        -0.7288    1.5792    1.2668 C.3       1 <0>        -0.0022
     14 C11        -0.1049   -0.3708    2.5603 C.3       1 <0>         0.0002
     15 C12         0.7121   -0.8436    3.7650 C.3       1 <0>         0.0374
     16 N2          0.1999   -0.2013    4.9835 N.pl3     1 <0>        -0.4630
     17 C13         0.2864    1.2621    4.8801 C.3       1 <0>         0.0416
     18 C14        -0.5306    1.7349    3.6754 C.3       1 <0>         0.0013
     19 C15         0.8693   -0.6598    6.1048 C.ar      1 <0>         0.4747
     20 N3          1.4743    0.2119    6.8983 N.ar      1 <0>        -0.5508
     21 C16         2.1180   -0.1926    7.9808 C.ar      1 <0>         0.1778
     22 C17         2.1641   -1.5466    8.2736 C.ar      1 <0>        -0.2368
     23 C18         1.5253   -2.4315    7.4192 C.ar      1 <0>         0.1795
     24 N4          0.8945   -1.9604    6.3562 N.ar      1 <0>        -0.5241
     25 C19        -0.4190    1.3592   -6.8063 C.3       1 <0>        -0.1546
     26 H1         -1.7788    3.3738   -8.0531 H         1 <0>         0.0687
     27 H2         -2.7778    1.9006   -8.0604 H         1 <0>         0.0688
     28 H3         -3.2589    3.2973   -7.0673 H         1 <0>         0.0647
     29 H4         -1.9266    3.9473   -5.0961 H         1 <0>         0.1148
     30 H5         -0.3864    3.9289   -5.9905 H         1 <0>         0.1187
     31 H6         -3.3761    1.8377   -5.0932 H         1 <0>         0.1152
     32 H7         -2.8079    0.4050   -5.9857 H         1 <0>         0.1185
     33 H8          0.9860    1.4765   -2.4981 H         1 <0>         0.0987
     34 H9         -0.0218    0.0093   -2.4963 H         1 <0>         0.0990
     35 H10        -1.7753    1.2154   -1.2238 H         1 <0>         0.0798
     36 H11        -0.7675    2.6825   -1.2255 H         1 <0>         0.0797
     37 H12         0.0021   -0.0041    0.0020 H         1 <0>         0.0913
     38 H13         1.0099    1.4631    0.0003 H         1 <0>         0.0912
     39 H14        -0.7436    2.6691    1.2728 H         1 <0>         0.1323
     40 H15        -1.7514    1.2020    1.2746 H         1 <0>         0.1342
     41 H16        -1.1464   -0.6653    2.6890 H         1 <0>         0.1443
     42 H17         0.2918   -0.8236    1.6516 H         1 <0>         0.1419
     43 H18         1.7585   -0.5730    3.6236 H         1 <0>         0.0691
     44 H19         0.6262   -1.9260    3.8608 H         1 <0>         0.1395
     45 H20         1.3280    1.5566    4.7514 H         1 <0>         0.0786
     46 H21        -0.1102    1.7149    5.7888 H         1 <0>         0.1342
     47 H22        -0.4443    2.8173    3.5797 H         1 <0>         0.1416
     48 H23        -1.5770    1.4646    3.8166 H         1 <0>         0.1412
     49 H24         2.6058    0.5230    8.6260 H         1 <0>         0.1778
     50 H25         2.6862   -1.9044    9.1488 H         1 <0>         0.1582
     51 H26         1.5421   -3.4927    7.6190 H         1 <0>         0.1800
     52 H27         0.1526    0.9595   -5.9687 H         1 <0>         0.0492
     53 H28        -0.7880    0.5371   -7.4196 H         1 <0>         0.0715
     54 H29         0.2215    2.0031   -7.4090 H         1 <0>         0.0714
     55 N5          0.0087    1.0990    2.4548 N.4       1 <0>        -0.3999
     56 H30         0.9993    1.3510    2.3569 H         1 <0>         0.4258
@<TRIPOS>BOND
     1    1    2 1
     2    1   26 1
     3    1   27 1
     4    1   28 1
     5    2    9 1
     6    2    3 1
     7    2   25 1
     8    3    4 1
     9    3   29 1
    10    3   30 1
    11    4    5 2
    12    4    6 am
    13    6    7 am
    14    6   10 1
    15    7    8 2
    16    7    9 1
    17    9   31 1
    18    9   32 1
    19   10   11 1
    20   10   33 1
    21   10   34 1
    22   11   12 1
    23   11   35 1
    24   11   36 1
    25   12   13 1
    26   12   37 1
    27   12   38 1
    28   13   39 1
    29   13   40 1
    30   13   55 1
    31   14   15 1
    32   14   41 1
    33   14   42 1
    34   14   55 1
    35   15   16 1
    36   15   43 1
    37   15   44 1
    38   16   17 1
    39   16   19 1
    40   17   18 1
    41   17   45 1
    42   17   46 1
    43   18   47 1
    44   18   48 1
    45   18   55 1
    46   19   24 ar
    47   19   20 ar
    48   20   21 ar
    49   21   22 ar
    50   21   49 1
    51   22   23 ar
    52   22   50 1
    53   23   24 ar
    54   23   51 1
    55   25   52 1
    56   25   53 1
    57   25   54 1
    58   55   56 1
@<TRIPOS>MOLECULE
ZINC01915508
   64    68     0     0     0
SMALL
USER_CHARGES
8-[4-[4-(9-thia-8-azabicyclo[4.3.0]nona-2,4,7,10-tetraen-7-yl)piperazin-1-yl]butyl]-8-azaspiro[4.5]decane-7,9-dione
@<TRIPOS>ATOM
      1 C1         -0.1854    3.0363    3.0585 C.ar      1 <0>        -0.1227
      2 C2          0.9702    2.2871    2.8731 C.ar      1 <0>        -0.0631
      3 C3          1.7797    2.5384    1.7969 C.ar      1 <0>        -0.0775
      4 C4          1.4398    3.5390    0.9109 C.ar      1 <0>        -0.1195
      5 C5          0.2738    4.3208    1.0775 C.ar      1 <0>        -0.1259
      6 C6         -0.5340    4.0311    2.1987 C.ar      1 <0>        -0.0351
      7 C7          0.1089    5.3174    0.0302 C.2       1 <0>         0.2965
      8 N1          0.9929    5.4074   -0.9213 N.2       1 <0>        -0.4531
      9 S1          2.1517    4.2026   -0.5700 S.3       1 <0>         0.2239
     10 N2         -0.9928    6.1742    0.0458 N.pl3     1 <0>        -0.4740
     11 C8         -1.8260    5.9826   -1.1494 C.3       1 <0>         0.0288
     12 C9         -3.0618    6.8807   -1.0559 C.3       1 <0>         0.0019
     13 C10        -1.8041    8.4738    0.2628 C.3       1 <0>         0.0063
     14 C11        -0.5684    7.5757    0.1693 C.3       1 <0>         0.0281
     15 C12        -3.7969    9.1840   -0.9159 C.3       1 <0>        -0.0018
     16 C13        -4.4982    9.1379   -2.2750 C.3       1 <0>        -0.1459
     17 C14        -5.7059   10.0771   -2.2578 C.3       1 <0>        -0.1286
     18 C15        -6.4072   10.0310   -3.6168 C.3       1 <0>         0.0907
     19 N3         -7.5636   10.9302   -3.6003 N.am      1 <0>        -0.5674
     20 C16        -8.7518   10.4404   -3.2171 C.2       1 <0>         0.5275
     21 O1         -8.8357    9.2783   -2.8824 O.2       1 <0>        -0.4991
     22 C17        -9.9833   11.3079   -3.1892 C.3       1 <0>        -0.1340
     23 C18        -9.5725   12.7603   -2.9521 C.3       1 <0>        -0.0662
     24 C19       -10.8015   13.6767   -3.0258 C.3       1 <0>        -0.1145
     25 C20       -10.9201   14.3606   -1.6469 C.3       1 <0>        -0.1263
     26 C21        -9.4840   14.3020   -1.0687 C.3       1 <0>        -0.1244
     27 C22        -8.9806   12.9141   -1.5400 C.3       1 <0>        -0.1218
     28 C23        -8.5400   13.1786   -3.9978 C.3       1 <0>        -0.1329
     29 C24        -7.3893   12.2063   -3.9743 C.2       1 <0>         0.5269
     30 O2         -6.2846   12.5847   -4.3000 O.2       1 <0>        -0.4987
     31 H1         -0.8189    2.8271    3.9078 H         1 <0>         0.1379
     32 H2          1.2271    1.5059    3.5731 H         1 <0>         0.1446
     33 H3          2.6772    1.9577    1.6438 H         1 <0>         0.1426
     34 H4         -1.4362    4.5989    2.3719 H         1 <0>         0.1355
     35 H5         -1.2524    6.2448   -2.0384 H         1 <0>         0.0752
     36 H6         -2.1380    4.9401   -1.2119 H         1 <0>         0.1258
     37 H7         -3.6497    6.6005   -0.1819 H         1 <0>         0.1430
     38 H8         -3.6669    6.7619   -1.9547 H         1 <0>         0.1398
     39 H9         -2.3778    8.2117    1.1518 H         1 <0>         0.1425
     40 H10        -1.4921    9.5163    0.3257 H         1 <0>         0.1394
     41 H11         0.0365    7.6946    1.0683 H         1 <0>         0.1260
     42 H12         0.0195    7.8560   -0.7047 H         1 <0>         0.0753
     43 H13        -4.4917    8.8682   -0.1377 H         1 <0>         0.1343
     44 H14        -3.4629   10.2016   -0.7137 H         1 <0>         0.1317
     45 H15        -3.8034    9.4537   -3.0532 H         1 <0>         0.0910
     46 H16        -4.8321    8.1202   -2.4772 H         1 <0>         0.0910
     47 H17        -6.4007    9.7613   -1.4795 H         1 <0>         0.0800
     48 H18        -5.3719   11.0947   -2.0556 H         1 <0>         0.0795
     49 H19        -5.7124   10.3468   -4.3951 H         1 <0>         0.0985
     50 H20        -6.7411    9.0133   -3.8190 H         1 <0>         0.0987
     51 H21       -10.6438   10.9805   -2.3863 H         1 <0>         0.1190
     52 H22       -10.5031   11.2276   -4.1439 H         1 <0>         0.1155
     53 H23       -10.6624   14.4268   -3.8044 H         1 <0>         0.0769
     54 H24       -11.6956   13.0875   -3.2291 H         1 <0>         0.0769
     55 H25       -11.6116   13.8121   -1.0073 H         1 <0>         0.0700
     56 H26       -11.2444   15.3952   -1.7587 H         1 <0>         0.0725
     57 H27        -9.5035   14.3564    0.0198 H         1 <0>         0.0709
     58 H28        -8.8653   15.0981   -1.4826 H         1 <0>         0.0705
     59 H29        -9.3535   12.1291   -0.8821 H         1 <0>         0.0742
     60 H30        -7.8914   12.8959   -1.5784 H         1 <0>         0.0612
     61 H31        -8.1754   14.1800   -3.7693 H         1 <0>         0.1185
     62 H32        -9.0001   13.1744   -4.9859 H         1 <0>         0.1158
     63 N4         -2.6214    8.2879   -0.9547 N.4       1 <0>        -0.3991
     64 H33        -2.0524    8.5196   -1.7774 H         1 <0>         0.4266
@<TRIPOS>BOND
     1    1    6 ar
     2    1    2 ar
     3    1   31 1
     4    2    3 ar
     5    2   32 1
     6    3    4 ar
     7    3   33 1
     8    4    9 1
     9    4    5 ar
    10    5    6 ar
    11    5    7 1
    12    6   34 1
    13    7    8 2
    14    7   10 1
    15    8    9 1
    16   10   14 1
    17   10   11 1
    18   11   12 1
    19   11   35 1
    20   11   36 1
    21   12   37 1
    22   12   38 1
    23   12   63 1
    24   13   14 1
    25   13   39 1
    26   13   40 1
    27   13   63 1
    28   14   41 1
    29   14   42 1
    30   15   16 1
    31   15   43 1
    32   15   44 1
    33   15   63 1
    34   16   17 1
    35   16   45 1
    36   16   46 1
    37   17   18 1
    38   17   47 1
    39   17   48 1
    40   18   19 1
    41   18   49 1
    42   18   50 1
    43   19   29 am
    44   19   20 am
    45   20   21 2
    46   20   22 1
    47   22   23 1
    48   22   51 1
    49   22   52 1
    50   23   27 1
    51   23   24 1
    52   23   28 1
    53   24   25 1
    54   24   53 1
    55   24   54 1
    56   25   26 1
    57   25   55 1
    58   25   56 1
    59   26   27 1
    60   26   57 1
    61   26   58 1
    62   27   59 1
    63   27   60 1
    64   28   29 1
    65   28   61 1
    66   28   62 1
    67   29   30 2
    68   63   64 1
@<TRIPOS>MOLECULE
ZINC02516053
   32    32     0     0     0
SMALL
USER_CHARGES

@<TRIPOS>ATOM
      1 C1         -0.0187    1.5258    0.0104 C.3       1 <0>        -0.1837
      2 C2          0.0021   -0.0041    0.0020 C.3       1 <0>         0.0344
      3 H1          0.5293   -0.3651    0.8851 H         1 <0>         0.1407
      4 C3          0.7182   -0.4975   -1.2568 C.3       1 <0>        -0.0944
      5 C4          0.8473   -1.9981   -1.2057 C.ar      1 <0>        -0.0941
      6 C5          2.0025   -2.5757   -0.7149 C.ar      1 <0>        -0.1590
      7 C6          2.1215   -3.9563   -0.6678 C.ar      1 <0>         0.1458
      8 C7          1.0802   -4.7580   -1.1137 C.ar      1 <0>        -0.0982
      9 C8         -0.0748   -4.1803   -1.6044 C.ar      1 <0>        -0.1178
     10 C9         -0.1957   -2.7990   -1.6460 C.ar      1 <0>         0.0662
     11 O1         -1.3349   -2.2303   -2.1234 O.3       1 <0>        -0.3399
     12 C10        -2.3683   -3.1155   -2.5599 C.3       1 <0>         0.0160
     13 I1          1.2600   -6.8441   -1.0433 I         1 <0>         0.0067
     14 O2          3.2588   -4.5247   -0.1852 O.3       1 <0>        -0.2969
     15 C11         4.2899   -3.6392    0.2560 C.3       1 <0>         0.0216
     16 N1         -1.3761   -0.5125    0.0124 N.4       1 <0>        -0.6338
     17 H2          1.0039    1.9031    0.0027 H         1 <0>         0.1075
     18 H3         -0.5459    1.8868   -0.8726 H         1 <0>         0.0843
     19 H4         -0.5289    1.8773    0.9072 H         1 <0>         0.0848
     20 H5          0.1430   -0.2121   -2.1375 H         1 <0>         0.1074
     21 H6          1.7103   -0.0491   -1.3098 H         1 <0>         0.1218
     22 H7          2.8130   -1.9517   -0.3683 H         1 <0>         0.1510
     23 H8         -0.8853   -4.8040   -1.9514 H         1 <0>         0.1495
     24 H9         -2.6820   -3.7459   -1.7280 H         1 <0>         0.0642
     25 H10        -3.2186   -2.5338   -2.9159 H         1 <0>         0.1133
     26 H11        -1.9924   -3.7419   -3.3689 H         1 <0>         0.0693
     27 H12         4.6073   -3.0087   -0.5745 H         1 <0>         0.0621
     28 H13         3.9101   -3.0129    1.0633 H         1 <0>         0.0598
     29 H14         5.1387   -4.2206    0.6159 H         1 <0>         0.1128
     30 H15        -1.8641   -0.1783   -0.8050 H         1 <0>         0.4349
     31 H16        -1.3624   -1.5214    0.0069 H         1 <0>         0.4309
     32 H17        -1.8484   -0.1871    0.8426 H         1 <0>         0.4329
@<TRIPOS>BOND
     1    1    2 1
     2    1   17 1
     3    1   18 1
     4    1   19 1
     5    2    3 1
     6    2    4 1
     7    2   16 1
     8    4    5 1
     9    4   20 1
    10    4   21 1
    11    5   10 ar
    12    5    6 ar
    13    6    7 ar
    14    6   22 1
    15    7    8 ar
    16    7   14 1
    17    8    9 ar
    18    8   13 1
    19    9   10 ar
    20    9   23 1
    21   10   11 1
    22   11   12 1
    23   12   24 1
    24   12   25 1
    25   12   26 1
    26   14   15 1
    27   15   27 1
    28   15   28 1
    29   15   29 1
    30   16   30 1
    31   16   31 1
    32   16   32 1
@<TRIPOS>MOLECULE
ZINC11632569
   35    36     0     0     0
SMALL
USER_CHARGES
1-(2,5-dimethoxyphenyl)piperazine
@<TRIPOS>ATOM
      1 C1         -3.6155    2.9977    0.1033 C.3       1 <0>         0.0245
      2 O1         -2.4303    3.7960    0.0979 O.3       1 <0>        -0.3157
      3 C2         -1.2419    3.1365    0.0574 C.ar      1 <0>         0.1208
      4 C3         -1.2198    1.7502    0.0172 C.ar      1 <0>        -0.1717
      5 C4         -0.0130    1.0762   -0.0188 C.ar      1 <0>        -0.1444
      6 C5          1.1771    1.7841   -0.0264 C.ar      1 <0>         0.0934
      7 C6          1.1583    3.1765    0.0081 C.ar      1 <0>         0.0904
      8 C7         -0.0534    3.8503    0.0499 C.ar      1 <0>        -0.1616
      9 N1          2.3597    3.8943    0.0009 N.pl3     1 <0>        -0.4748
     10 C8          2.1145    5.3295   -0.1985 C.3       1 <0>         0.0174
     11 C9          3.4534    6.0665   -0.2796 C.3       1 <0>         0.0024
     12 C10         4.4596    4.3966    1.1548 C.3       1 <0>         0.0027
     13 C11         3.1207    3.6595    1.2359 C.3       1 <0>         0.0252
     14 O2          2.3642    1.1199   -0.0680 O.3       1 <0>        -0.3119
     15 C12         2.3082   -0.3075   -0.1022 C.3       1 <0>         0.0228
     16 H1         -4.4906    3.6468    0.1371 H         1 <0>         0.1068
     17 H2         -3.6484    2.3902   -0.8011 H         1 <0>         0.0597
     18 H3         -3.6115    2.3473    0.9779 H         1 <0>         0.0590
     19 H4         -2.1468    1.1960    0.0183 H         1 <0>         0.1385
     20 H5          0.0014   -0.0034   -0.0455 H         1 <0>         0.1408
     21 H6         -0.0710    4.9298    0.0763 H         1 <0>         0.1415
     22 H7          1.5606    5.4784   -1.1254 H         1 <0>         0.1290
     23 H8          1.5350    5.7191    0.6384 H         1 <0>         0.0713
     24 H9          3.2737    7.1350   -0.3985 H         1 <0>         0.1409
     25 H10         4.0215    5.6958   -1.1329 H         1 <0>         0.1404
     26 H11         5.0135    4.2476    2.0817 H         1 <0>         0.1399
     27 H12         5.0393    4.0067    0.3181 H         1 <0>         0.1409
     28 H13         2.5527    4.0302    2.0892 H         1 <0>         0.0656
     29 H14         3.3001    2.5910    1.3550 H         1 <0>         0.1335
     30 H15         1.7618   -0.6286   -0.9890 H         1 <0>         0.0593
     31 H16         3.3205   -0.7103   -0.1335 H         1 <0>         0.1048
     32 H17         1.7994   -0.6726    0.7900 H         1 <0>         0.0572
     33 N2          4.2176    5.8389    0.9615 N.4       1 <0>        -0.5191
     34 H18         3.6840    6.2030    1.7597 H         1 <0>         0.4308
     35 H19         5.1180    6.3284    0.8998 H         1 <0>         0.4392
@<TRIPOS>BOND
     1    1    2 1
     2    1   16 1
     3    1   17 1
     4    1   18 1
     5    2    3 1
     6    3    8 ar
     7    3    4 ar
     8    4    5 ar
     9    4   19 1
    10    5    6 ar
    11    5   20 1
    12    6    7 ar
    13    6   14 1
    14    7    8 ar
    15    7    9 1
    16    8   21 1
    17    9   13 1
    18    9   10 1
    19   10   11 1
    20   10   22 1
    21   10   23 1
    22   11   24 1
    23   11   25 1
    24   11   33 1
    25   12   13 1
    26   12   26 1
    27   12   27 1
    28   12   33 1
    29   13   28 1
    30   13   29 1
    31   14   15 1
    32   15   30 1
    33   15   31 1
    34   15   32 1
    35   33   34 1
    36   33   35 1
@<TRIPOS>MOLECULE
ZINC27714862
   38    39     0     0     0
SMALL
USER_CHARGES
1-(2,5-dimethoxy-4-methyl-phenyl)piperazine
@<TRIPOS>ATOM
      1 C1         -2.0173    2.4476    3.4994 C.3       1 <0>        -0.1135
      2 C2         -2.6835    1.5748    2.4672 C.ar      1 <0>        -0.0744
      3 C3         -4.0076    1.2073    2.6248 C.ar      1 <0>        -0.1509
      4 C4         -4.6223    0.4057    1.6783 C.ar      1 <0>         0.1001
      5 C5         -3.9061   -0.0313    0.5658 C.ar      1 <0>         0.0810
      6 C6         -2.5803    0.3427    0.4073 C.ar      1 <0>        -0.2119
      7 C7         -1.9678    1.1414    1.3614 C.ar      1 <0>         0.1161
      8 O1         -0.6662    1.5041    1.2097 O.3       1 <0>        -0.3062
      9 C8          0.0105    1.0218    0.0472 C.3       1 <0>         0.0235
     10 N1         -4.5252   -0.8418   -0.3925 N.pl3     1 <0>        -0.4742
     11 C9         -3.6812   -0.9833   -1.5872 C.3       1 <0>         0.0169
     12 C10        -4.4256   -1.8084   -2.6396 C.3       1 <0>         0.0034
     13 N2         -4.7633   -3.1238   -2.0780 N.4       1 <0>        -0.5384
     14 C11        -5.6072   -2.9823   -0.8833 C.3       1 <0>         0.0015
     15 C12        -4.8628   -2.1572    0.1691 C.3       1 <0>         0.0233
     16 O2         -5.9250    0.0442    1.8345 O.3       1 <0>        -0.3117
     17 C13        -6.5973    0.5281    2.9989 C.3       1 <0>         0.0190
     18 H1         -2.7369    2.6881    4.2958 H         1 <0>         0.0691
     19 H2         -1.6712    3.3777    3.0249 H         1 <0>         0.0775
     20 H3         -1.1575    1.9141    3.9309 H         1 <0>         0.0767
     21 H4         -4.5623    1.5458    3.4873 H         1 <0>         0.1442
     22 H5         -2.0239    0.0089   -0.4561 H         1 <0>         0.1386
     23 H6          1.0481    1.3869    0.0490 H         1 <0>         0.1085
     24 H7         -0.5046    1.3854   -0.8542 H         1 <0>         0.0551
     25 H8          0.0089   -0.0782    0.0519 H         1 <0>         0.0523
     26 H9         -3.4528    0.0125   -1.9948 H         1 <0>         0.1253
     27 H10        -2.7444   -1.4922   -1.3162 H         1 <0>         0.0663
     28 H11        -5.3483   -1.2850   -2.9305 H         1 <0>         0.1381
     29 H12        -3.7843   -1.9397   -3.5236 H         1 <0>         0.1402
     30 H13        -5.3092   -3.7139   -2.8289 H         1 <0>         0.4576
     31 H14        -6.5440   -2.4734   -1.1543 H         1 <0>         0.1381
     32 H15        -5.8356   -3.9781   -0.4756 H         1 <0>         0.1400
     33 H16        -3.9395   -2.6795    0.4602 H         1 <0>         0.0631
     34 H17        -5.5036   -2.0249    1.0533 H         1 <0>         0.1329
     35 H18        -7.6354    0.1642    3.0007 H         1 <0>         0.1060
     36 H19        -6.5944    1.6281    2.9934 H         1 <0>         0.0607
     37 H20        -6.0797    0.1645    3.8988 H         1 <0>         0.0586
     38 H21        -3.8394   -3.6512   -1.7981 H         1 <0>         0.4472
@<TRIPOS>BOND
     1    1    2 1
     2    1   18 1
     3    1   19 1
     4    1   20 1
     5    2    7 ar
     6    2    3 ar
     7    3    4 ar
     8    3   21 1
     9    4    5 ar
    10    4   16 1
    11    5    6 ar
    12    5   10 1
    13    6    7 ar
    14    6   22 1
    15    7    8 1
    16    8    9 1
    17    9   23 1
    18    9   24 1
    19    9   25 1
    20   10   15 1
    21   10   11 1
    22   11   12 1
    23   11   26 1
    24   11   27 1
    25   12   13 1
    26   12   28 1
    27   12   29 1
    28   13   14 1
    29   13   30 1
    30   13   38 1
    31   14   15 1
    32   14   31 1
    33   14   32 1
    34   15   33 1
    35   15   34 1
    36   16   17 1
    37   17   35 1
    38   17   36 1
    39   17   37 1
@<TRIPOS>MOLECULE
ZINC31502170
   52    55     0     0     0
SMALL
USER_CHARGES
4-[4-(4-furo[3,2-c]pyridin-4-ylpiperazin-1-yl)butyl]morpholine-3,5-dione
@<TRIPOS>ATOM
      1 C1        -10.2631    7.9708    3.7407 C.ar      1 <0>        -0.1612
      2 C2        -10.0970    6.6916    4.1921 C.ar      1 <0>         0.1368
      3 N1         -8.9194    6.0890    4.1607 N.ar      1 <0>        -0.5230
      4 C3         -7.8345    6.6934    3.7016 C.ar      1 <0>         0.3506
      5 C4         -7.9199    8.0048    3.2206 C.ar      1 <0>        -0.1893
      6 C5         -9.1621    8.6628    3.2388 C.ar      1 <0>         0.1083
      7 O1         -8.9726    9.8918    2.7297 O.3       1 <0>        -0.1803
      8 C6         -7.6852   10.0735    2.3818 C.2       1 <0>         0.0257
      9 C7         -6.9752    8.9680    2.6492 C.2       1 <0>        -0.2037
     10 N2         -6.6174    6.0265    3.6923 N.pl3     1 <0>        -0.4725
     11 C8         -6.7562    4.6695    4.2392 C.3       1 <0>         0.0365
     12 C9         -5.3817    3.9979    4.2853 C.3       1 <0>        -0.0023
     13 N3         -4.8118    3.9611    2.9313 N.4       1 <0>        -0.4027
     14 C10        -4.6729    5.3180    2.3843 C.3       1 <0>        -0.0027
     15 C11        -6.0474    5.9896    2.3383 C.3       1 <0>         0.0233
     16 C12        -3.5235    3.2551    2.9214 C.3       1 <0>        -0.0046
     17 C13        -3.0831    3.0179    1.4755 C.3       1 <0>        -0.1450
     18 C14        -1.7414    2.2827    1.4652 C.3       1 <0>        -0.1307
     19 C15        -1.3009    2.0454    0.0193 C.3       1 <0>         0.0891
     20 N4         -0.0162    1.3414    0.0094 N.am      1 <0>        -0.5700
     21 C16         1.1277    2.0500    0.0023 C.2       1 <0>         0.4965
     22 O2          1.0859    3.2616   -0.0052 O.2       1 <0>        -0.4843
     23 C17         2.4606    1.3466    0.0036 C.3       1 <0>         0.0353
     24 O3          2.3148    0.0642   -0.6152 O.3       1 <0>        -0.3481
     25 C18         1.3123   -0.7490    0.0033 C.3       1 <0>         0.0352
     26 C19         0.0021   -0.0041    0.0020 C.2       1 <0>         0.4967
     27 O4         -1.0416   -0.6207   -0.0053 O.2       1 <0>        -0.4836
     28 H1        -11.2355    8.4397    3.7722 H         1 <0>         0.1524
     29 H2        -10.9510    6.1564    4.5804 H         1 <0>         0.1764
     30 H3         -7.2827   10.9778    1.9498 H         1 <0>         0.2181
     31 H4         -5.9194    8.8180    2.4784 H         1 <0>         0.1636
     32 H5         -7.1727    4.7247    5.2558 H         1 <0>         0.1348
     33 H6         -7.4307    4.0830    3.5980 H         1 <0>         0.0786
     34 H7         -4.7163    4.5697    4.9489 H         1 <0>         0.1363
     35 H8         -5.4875    2.9719    4.6677 H         1 <0>         0.1423
     36 H9         -3.9984    5.9045    3.0254 H         1 <0>         0.1392
     37 H10        -4.2565    5.2627    1.3677 H         1 <0>         0.1430
     38 H11        -6.7138    5.4181    1.6754 H         1 <0>         0.0733
     39 H12        -5.9425    7.0159    1.9565 H         1 <0>         0.1337
     40 H13        -2.7679    3.8637    3.4397 H         1 <0>         0.1300
     41 H14        -3.6311    2.2885    3.4352 H         1 <0>         0.1343
     42 H15        -3.8387    2.4093    0.9572 H         1 <0>         0.0930
     43 H16        -2.9755    3.9846    0.9617 H         1 <0>         0.0913
     44 H17        -0.9858    2.8914    1.9835 H         1 <0>         0.0801
     45 H18        -1.8490    1.3161    1.9791 H         1 <0>         0.0807
     46 H19        -2.0565    1.4368   -0.4990 H         1 <0>         0.1013
     47 H20        -1.1933    3.0120   -0.4946 H         1 <0>         0.1010
     48 H21         3.1924    1.9467   -0.5571 H         1 <0>         0.1538
     49 H22         2.8073    1.2199    1.0398 H         1 <0>         0.1094
     50 H23         1.2041   -1.6884   -0.5587 H         1 <0>         0.1539
     51 H24         1.6092   -0.9731    1.0385 H         1 <0>         0.1095
     52 H25        -5.5064    3.4039    2.2855 H         1 <0>         0.4401
@<TRIPOS>BOND
     1    1    6 ar
     2    1    2 ar
     3    1   28 1
     4    2    3 ar
     5    2   29 1
     6    3    4 ar
     7    4    5 ar
     8    4   10 1
     9    5    9 1
    10    5    6 ar
    11    6    7 1
    12    7    8 1
    13    8    9 2
    14    8   30 1
    15    9   31 1
    16   10   15 1
    17   10   11 1
    18   11   12 1
    19   11   32 1
    20   11   33 1
    21   12   13 1
    22   12   34 1
    23   12   35 1
    24   13   14 1
    25   13   16 1
    26   13   52 1
    27   14   15 1
    28   14   36 1
    29   14   37 1
    30   15   38 1
    31   15   39 1
    32   16   17 1
    33   16   40 1
    34   16   41 1
    35   17   18 1
    36   17   42 1
    37   17   43 1
    38   18   19 1
    39   18   44 1
    40   18   45 1
    41   19   20 1
    42   19   46 1
    43   19   47 1
    44   20   26 am
    45   20   21 am
    46   21   22 2
    47   21   23 1
    48   23   24 1
    49   23   48 1
    50   23   49 1
    51   24   25 1
    52   25   26 1
    53   25   50 1
    54   25   51 1
    55   26   27 2
@<TRIPOS>MOLECULE
ZINC31502170
   51    54     0     0     0
SMALL
USER_CHARGES
4-[4-(4-furo[3,2-c]pyridin-4-ylpiperazin-1-yl)butyl]morpholine-3,5-dione
@<TRIPOS>ATOM
      1 C1        -10.2631    7.9708    3.7407 C.ar      1 <0>        -0.1875
      2 C2        -10.0970    6.6916    4.1921 C.ar      1 <0>         0.1417
      3 N1         -8.9194    6.0890    4.1607 N.ar      1 <0>        -0.5307
      4 C3         -7.8345    6.6934    3.7016 C.ar      1 <0>         0.3750
      5 C4         -7.9199    8.0048    3.2206 C.ar      1 <0>        -0.2000
      6 C5         -9.1621    8.6628    3.2388 C.ar      1 <0>         0.1074
      7 O1         -8.9726    9.8918    2.7297 O.3       1 <0>        -0.1869
      8 C6         -7.6852   10.0735    2.3818 C.2       1 <0>        -0.0002
      9 C7         -6.9752    8.9680    2.6492 C.2       1 <0>        -0.1846
     10 N2         -6.6174    6.0265    3.6923 N.pl3     1 <0>        -0.4738
     11 C8         -6.7562    4.6695    4.2392 C.3       1 <0>         0.0678
     12 C9         -5.3817    3.9979    4.2853 C.3       1 <0>         0.0520
     13 N3         -4.8118    3.9611    2.9313 N.3       1 <0>        -0.5394
     14 C10        -4.6729    5.3180    2.3843 C.3       1 <0>         0.0524
     15 C11        -6.0474    5.9896    2.3383 C.3       1 <0>         0.0575
     16 C12        -3.5235    3.2551    2.9214 C.3       1 <0>         0.0570
     17 C13        -3.0831    3.0179    1.4755 C.3       1 <0>        -0.1126
     18 C14        -1.7414    2.2827    1.4652 C.3       1 <0>        -0.1293
     19 C15        -1.3009    2.0454    0.0193 C.3       1 <0>         0.0907
     20 N4         -0.0162    1.3414    0.0094 N.am      1 <0>        -0.5675
     21 C16         1.1277    2.0500    0.0023 C.2       1 <0>         0.4932
     22 O2          1.0859    3.2616   -0.0052 O.2       1 <0>        -0.4840
     23 C17         2.4606    1.3466    0.0036 C.3       1 <0>         0.0368
     24 O3          2.3148    0.0642   -0.6152 O.3       1 <0>        -0.3522
     25 C18         1.3123   -0.7490    0.0033 C.3       1 <0>         0.0367
     26 C19         0.0021   -0.0041    0.0020 C.2       1 <0>         0.4932
     27 O4         -1.0416   -0.6207   -0.0053 O.2       1 <0>        -0.4821
     28 H1        -11.2355    8.4397    3.7722 H         1 <0>         0.1437
     29 H2        -10.9510    6.1564    4.5804 H         1 <0>         0.1689
     30 H3         -7.2827   10.9778    1.9498 H         1 <0>         0.2129
     31 H4         -5.9194    8.8180    2.4784 H         1 <0>         0.1625
     32 H5         -7.1727    4.7247    5.2558 H         1 <0>         0.0932
     33 H6         -7.4307    4.0830    3.5980 H         1 <0>         0.0634
     34 H7         -4.7163    4.5697    4.9489 H         1 <0>         0.0437
     35 H8         -5.4875    2.9719    4.6677 H         1 <0>         0.0876
     36 H9         -3.9984    5.9045    3.0254 H         1 <0>         0.0465
     37 H10        -4.2565    5.2627    1.3677 H         1 <0>         0.0907
     38 H11        -6.7138    5.4181    1.6754 H         1 <0>         0.0573
     39 H12        -5.9425    7.0159    1.9565 H         1 <0>         0.0934
     40 H13        -2.7679    3.8637    3.4397 H         1 <0>         0.0363
     41 H14        -3.6311    2.2885    3.4352 H         1 <0>         0.0778
     42 H15        -3.8387    2.4093    0.9572 H         1 <0>         0.0773
     43 H16        -2.9755    3.9846    0.9617 H         1 <0>         0.0671
     44 H17        -0.9858    2.8914    1.9835 H         1 <0>         0.0668
     45 H18        -1.8490    1.3161    1.9791 H         1 <0>         0.0693
     46 H19        -2.0565    1.4368   -0.4990 H         1 <0>         0.0988
     47 H20        -1.1933    3.0120   -0.4946 H         1 <0>         0.0975
     48 H21         3.1924    1.9467   -0.5571 H         1 <0>         0.1504
     49 H22         2.8073    1.2199    1.0398 H         1 <0>         0.1065
     50 H23         1.2041   -1.6884   -0.5587 H         1 <0>         0.1506
     51 H24         1.6092   -0.9731    1.0385 H         1 <0>         0.1067
@<TRIPOS>BOND
     1    1    6 ar
     2    1    2 ar
     3    1   28 1
     4    2    3 ar
     5    2   29 1
     6    3    4 ar
     7    4    5 ar
     8    4   10 1
     9    5    9 1
    10    5    6 ar
    11    6    7 1
    12    7    8 1
    13    8    9 2
    14    8   30 1
    15    9   31 1
    16   10   15 1
    17   10   11 1
    18   11   12 1
    19   11   32 1
    20   11   33 1
    21   12   13 1
    22   12   34 1
    23   12   35 1
    24   13   14 1
    25   13   16 1
    26   14   15 1
    27   14   36 1
    28   14   37 1
    29   15   38 1
    30   15   39 1
    31   16   17 1
    32   16   40 1
    33   16   41 1
    34   17   18 1
    35   17   42 1
    36   17   43 1
    37   18   19 1
    38   18   44 1
    39   18   45 1
    40   19   20 1
    41   19   46 1
    42   19   47 1
    43   20   26 am
    44   20   21 am
    45   21   22 2
    46   21   23 1
    47   23   24 1
    48   23   48 1
    49   23   49 1
    50   24   25 1
    51   25   26 1
    52   25   50 1
    53   25   51 1
    54   26   27 2
@<TRIPOS>MOLECULE
ZINC01604329
   28    28     0     0     0
SMALL
USER_CHARGES
(2R)-1-(3-methoxyphenyl)propan-2-amine
@<TRIPOS>ATOM
      1 C1         -0.8757    3.0517   -1.0224 C.3       1 <0>        -0.1856
      2 C2         -0.7955    1.5269   -1.1198 C.3       1 <0>         0.0371
      3 H1         -0.3144    1.2475   -2.0571 H         1 <0>         0.1445
      4 C3         -2.2069    0.9381   -1.0756 C.3       1 <0>        -0.1014
      5 C4         -2.1370   -0.5513   -1.2945 C.ar      1 <0>        -0.0866
      6 C5         -1.9976   -1.4026   -0.2137 C.ar      1 <0>        -0.1846
      7 C6         -1.9331   -2.7694   -0.4111 C.ar      1 <0>        -0.0642
      8 C7         -2.0087   -3.2882   -1.6894 C.ar      1 <0>        -0.1989
      9 C8         -2.1490   -2.4364   -2.7752 C.ar      1 <0>         0.1460
     10 C9         -2.2178   -1.0653   -2.5740 C.ar      1 <0>        -0.1427
     11 O1         -2.2240   -2.9443   -4.0335 O.3       1 <0>        -0.3120
     12 C10        -2.1518   -4.3654   -4.1649 C.3       1 <0>         0.0224
     13 H2         -1.3568    3.3311   -0.0851 H         1 <0>         0.0832
     14 H3          0.1298    3.4712   -1.0539 H         1 <0>         0.0846
     15 H4         -1.4574    3.4391   -1.8590 H         1 <0>         0.1077
     16 H5         -2.6553    1.1417   -0.1032 H         1 <0>         0.1009
     17 H6         -2.8147    1.3921   -1.8582 H         1 <0>         0.1220
     18 H7         -1.9387   -0.9991    0.7864 H         1 <0>         0.1238
     19 H8         -1.8239   -3.4322    0.4346 H         1 <0>         0.1346
     20 H9         -1.9590   -4.3561   -1.8431 H         1 <0>         0.1373
     21 H10        -2.3311   -0.4003   -3.4174 H         1 <0>         0.1378
     22 H11        -1.2030   -4.7198   -3.7621 H         1 <0>         0.0608
     23 H12        -2.9738   -4.8234   -3.6147 H         1 <0>         0.0619
     24 H13        -2.2236   -4.6371   -5.2180 H         1 <0>         0.1099
     25 H14         0.0021   -0.0041    0.0020 H         1 <0>         0.4352
     26 H15         0.9253    1.3792    0.0006 H         1 <0>         0.4379
     27 N1         -0.0252    1.0139    0.0269 N.4       1 <0>        -0.6475
     28 H16        -0.4761    1.3157    0.8986 H         1 <0>         0.4357
@<TRIPOS>BOND
     1    1    2 1
     2    1   13 1
     3    1   14 1
     4    1   15 1
     5    2    3 1
     6    2    4 1
     7    2   27 1
     8    4    5 1
     9    4   16 1
    10    4   17 1
    11    5   10 ar
    12    5    6 ar
    13    6    7 ar
    14    6   18 1
    15    7    8 ar
    16    7   19 1
    17    8    9 ar
    18    8   20 1
    19    9   10 ar
    20    9   11 1
    21   10   21 1
    22   11   12 1
    23   12   22 1
    24   12   23 1
    25   12   24 1
    26   25   27 1
    27   26   27 1
    28   27   28 1
@<TRIPOS>MOLECULE
ZINC06021022
   28    28     0     0     0
SMALL
USER_CHARGES
(2S)-1-(3-methoxyphenyl)propan-2-amine
@<TRIPOS>ATOM
      1 C1         -2.6359    1.1447    7.7295 C.3       1 <0>        -0.1856
      2 C2         -1.8895    0.6327    6.4960 C.3       1 <0>         0.0370
      3 H1         -2.5989    0.4651    5.6856 H         1 <0>         0.1414
      4 C3         -0.8530    1.6703    6.0599 C.3       1 <0>        -0.0980
      5 C4         -0.2037    1.2227    4.7758 C.ar      1 <0>        -0.0866
      6 C5          0.9361    0.4405    4.8140 C.ar      1 <0>        -0.1823
      7 C6          1.5344    0.0287    3.6377 C.ar      1 <0>        -0.0650
      8 C7          0.9908    0.3924    2.4206 C.ar      1 <0>        -0.1990
      9 C8         -0.1488    1.1821    2.3796 C.ar      1 <0>         0.1454
     10 C9         -0.7471    1.5945    3.5616 C.ar      1 <0>        -0.1433
     11 O1         -0.6816    1.5467    1.1837 O.3       1 <0>        -0.3122
     12 C10        -0.0127    1.0858    0.0080 C.3       1 <0>         0.0224
     13 H2         -3.1387    2.0810    7.4873 H         1 <0>         0.1077
     14 H3         -3.3743    0.4055    8.0402 H         1 <0>         0.0843
     15 H4         -1.9264    1.3123    8.5399 H         1 <0>         0.0834
     16 H5         -0.0933    1.7728    6.8348 H         1 <0>         0.1007
     17 H6         -1.3441    2.6307    5.9033 H         1 <0>         0.1221
     18 H7          1.3597    0.1511    5.7644 H         1 <0>         0.1235
     19 H8          2.4246   -0.5819    3.6702 H         1 <0>         0.1342
     20 H9          1.4559    0.0664    1.5020 H         1 <0>         0.1371
     21 H10        -1.6373    2.2054    3.5323 H         1 <0>         0.1375
     22 H11         0.0021   -0.0041    0.0020 H         1 <0>         0.0607
     23 H12         1.0099    1.4631    0.0003 H         1 <0>         0.0618
     24 H13        -0.5399    1.4469   -0.8751 H         1 <0>         0.1098
     25 H14        -0.7649   -1.0209    6.0070 H         1 <0>         0.4361
     26 H15        -0.5484   -0.5000    7.5715 H         1 <0>         0.4337
     27 N1         -1.2317   -0.6429    6.8297 N.4       1 <0>        -0.6470
     28 H16        -1.9396   -1.3137    7.1510 H         1 <0>         0.4401
@<TRIPOS>BOND
     1    1    2 1
     2    1   13 1
     3    1   14 1
     4    1   15 1
     5    2    3 1
     6    2    4 1
     7    2   27 1
     8    4    5 1
     9    4   16 1
    10    4   17 1
    11    5   10 ar
    12    5    6 ar
    13    6    7 ar
    14    6   18 1
    15    7    8 ar
    16    7   19 1
    17    8    9 ar
    18    8   20 1
    19    9   10 ar
    20    9   11 1
    21   10   21 1
    22   11   12 1
    23   12   22 1
    24   12   23 1
    25   12   24 1
    26   25   27 1
    27   26   27 1
    28   27   28 1
@<TRIPOS>MOLECULE
ZINC01587881
   28    28     0     0     0
SMALL
USER_CHARGES
(2S)-1-(2-methoxyphenyl)propan-2-amine
@<TRIPOS>ATOM
      1 C1         -1.3443    4.7748    4.0762 C.3       1 <0>        -0.1837
      2 C2         -2.1252    3.9050    3.0890 C.3       1 <0>         0.0372
      3 H1         -1.7104    4.0288    2.0887 H         1 <0>         0.1399
      4 C3         -2.0184    2.4372    3.5074 C.3       1 <0>        -0.0861
      5 C4         -2.6828    1.5695    2.4697 C.ar      1 <0>        -0.1660
      6 C5         -3.9993    1.1828    2.6318 C.ar      1 <0>        -0.0974
      7 C6         -4.6075    0.3818    1.6833 C.ar      1 <0>        -0.1475
      8 C7         -3.9022   -0.0291    0.5669 C.ar      1 <0>        -0.0627
      9 C8         -2.5877    0.3594    0.3975 C.ar      1 <0>        -0.1986
     10 C9         -1.9749    1.1630    1.3482 C.ar      1 <0>         0.1415
     11 O1         -0.6816    1.5467    1.1837 O.3       1 <0>        -0.3173
     12 C10        -0.0127    1.0858    0.0080 C.3       1 <0>         0.0224
     13 H2         -0.2971    4.4725    4.0772 H         1 <0>         0.1071
     14 H3         -1.4204    5.8205    3.7782 H         1 <0>         0.0827
     15 H4         -1.7592    4.6510    5.0766 H         1 <0>         0.0824
     16 H5         -2.5123    2.2966    4.4688 H         1 <0>         0.0959
     17 H6         -0.9679    2.1597    3.5945 H         1 <0>         0.1212
     18 H7         -4.5523    1.5027    3.5026 H         1 <0>         0.1302
     19 H8         -5.6352    0.0766    1.8142 H         1 <0>         0.1333
     20 H9         -4.3797   -0.6546   -0.1728 H         1 <0>         0.1346
     21 H10        -2.0371    0.0377   -0.4742 H         1 <0>         0.1370
     22 H11         0.0021   -0.0041    0.0020 H         1 <0>         0.0628
     23 H12         1.0099    1.4631    0.0003 H         1 <0>         0.1090
     24 H13        -0.5399    1.4469   -0.8751 H         1 <0>         0.0610
     25 H14        -4.0612    3.7965    2.3971 H         1 <0>         0.4350
     26 H15        -3.9443    4.2068    4.0046 H         1 <0>         0.4331
     27 N1         -3.5341    4.3367    3.0813 N.4       1 <0>        -0.6462
     28 H16        -3.5809    5.3313    2.8308 H         1 <0>         0.4392
@<TRIPOS>BOND
     1    1    2 1
     2    1   13 1
     3    1   14 1
     4    1   15 1
     5    2    3 1
     6    2    4 1
     7    2   27 1
     8    4    5 1
     9    4   16 1
    10    4   17 1
    11    5   10 ar
    12    5    6 ar
    13    6    7 ar
    14    6   18 1
    15    7    8 ar
    16    7   19 1
    17    8    9 ar
    18    8   20 1
    19    9   10 ar
    20    9   21 1
    21   10   11 1
    22   11   12 1
    23   12   22 1
    24   12   23 1
    25   12   24 1
    26   25   27 1
    27   26   27 1
    28   27   28 1
@<TRIPOS>MOLECULE
ZINC04957092
   28    28     0     0     0
SMALL
USER_CHARGES
(2R)-1-(2-methoxyphenyl)propan-2-amine
@<TRIPOS>ATOM
      1 C1         -1.5142    1.2363    5.6143 C.3       1 <0>        -0.1847
      2 C2         -0.9044    2.0786    4.4920 C.3       1 <0>         0.0382
      3 H1         -0.4523    2.9755    4.9155 H         1 <0>         0.1412
      4 C3         -1.9999    2.4786    3.5017 C.3       1 <0>        -0.0920
      5 C4         -1.4245    3.4085    2.4647 C.ar      1 <0>        -0.1539
      6 C5         -1.5309    4.7764    2.6275 C.ar      1 <0>        -0.0684
      7 C6         -1.0029    5.6299    1.6768 C.ar      1 <0>        -0.1388
      8 C7         -0.3668    5.1173    0.5610 C.ar      1 <0>        -0.0661
      9 C8         -0.2533    3.7506    0.3962 C.ar      1 <0>        -0.1929
     10 C9         -0.7874    2.8918    1.3462 C.ar      1 <0>         0.1011
     11 O1         -0.6816    1.5467    1.1837 O.3       1 <0>        -0.3444
     12 C10        -0.0127    1.0858    0.0080 C.3       1 <0>         0.0183
     13 H2         -1.9662    0.3394    5.1909 H         1 <0>         0.0827
     14 H3         -0.7337    0.9514    6.3199 H         1 <0>         0.0834
     15 H4         -2.2770    1.8181    6.1318 H         1 <0>         0.1067
     16 H5         -2.8054    2.9832    4.0352 H         1 <0>         0.1185
     17 H6         -2.3910    1.5864    3.0127 H         1 <0>         0.1006
     18 H7         -2.0272    5.1791    3.4981 H         1 <0>         0.1381
     19 H8         -1.0870    6.6989    1.8059 H         1 <0>         0.1355
     20 H9          0.0452    5.7862   -0.1801 H         1 <0>         0.1357
     21 H10         0.2475    3.3508   -0.4731 H         1 <0>         0.1372
     22 H11         0.0021   -0.0041    0.0020 H         1 <0>         0.1110
     23 H12         1.0099    1.4631    0.0003 H         1 <0>         0.0638
     24 H13        -0.5399    1.4469   -0.8751 H         1 <0>         0.0687
     25 H14         0.4965    1.8053    3.0083 H         1 <0>         0.4320
     26 H15         0.8591    1.0182    4.4278 H         1 <0>         0.4333
     27 N1          0.1098    1.2748    3.7872 N.4       1 <0>        -0.6420
     28 H16        -0.3289    0.4199    3.4252 H         1 <0>         0.4374
@<TRIPOS>BOND
     1    1    2 1
     2    1   13 1
     3    1   14 1
     4    1   15 1
     5    2    3 1
     6    2    4 1
     7    2   27 1
     8    4    5 1
     9    4   16 1
    10    4   17 1
    11    5   10 ar
    12    5    6 ar
    13    6    7 ar
    14    6   18 1
    15    7    8 ar
    16    7   19 1
    17    8    9 ar
    18    8   20 1
    19    9   10 ar
    20    9   21 1
    21   10   11 1
    22   11   12 1
    23   12   22 1
    24   12   23 1
    25   12   24 1
    26   25   27 1
    27   26   27 1
    28   27   28 1
@<TRIPOS>MOLECULE
ZINC03775140
   62    64     0     0     0
SMALL
USER_CHARGES

@<TRIPOS>ATOM
      1 C1         -0.0173    1.4248    0.0099 C.3       1 <0>         0.0171
      2 O1          0.0021   -0.0041    0.0020 O.3       1 <0>        -0.2760
      3 C2          0.6048   -0.6061   -1.0540 C.ar      1 <0>         0.2490
      4 C3          1.1714    0.1577   -2.0595 C.ar      1 <0>        -0.2968
      5 C4          1.7875   -0.4643   -3.1379 C.ar      1 <0>         0.3045
      6 C5          1.8368   -1.8562   -3.2112 C.ar      1 <0>        -0.1599
      7 C6          1.2804   -2.6188   -2.2247 C.ar      1 <0>         0.0104
      8 C7          0.6619   -2.0064   -1.1291 C.ar      1 <0>        -0.2378
      9 C8          0.0677   -2.8282   -0.0619 C.2       1 <0>         0.5777
     10 O2         -0.4739   -2.2937    0.8871 O.2       1 <0>        -0.5075
     11 N1          0.1238   -4.1727   -0.1363 N.am      1 <0>        -0.7330
     12 C9         -0.4675   -4.9905    0.9257 C.3       1 <0>         0.1404
     13 H1         -1.3642   -4.5012    1.3060 H         1 <0>         0.1248
     14 C10         0.5437   -5.1622    2.0629 C.3       1 <0>        -0.1546
     15 C11         1.7671   -5.9184    1.5404 C.3       1 <0>        -0.0167
     16 N2          1.3566   -7.2378    1.0453 N.4       1 <0>        -0.3759
     17 C12         0.4423   -7.0806   -0.0921 C.3       1 <0>        -0.0388
     18 C13        -0.8339   -6.3685    0.3670 C.3       1 <0>         0.0659
     19 H2         -1.3203   -6.9585    1.1438 H         1 <0>         0.1015
     20 O3         -1.7219   -6.2131   -0.7418 O.3       1 <0>        -0.3502
     21 C14        -2.6322   -7.3011   -0.9143 C.3       1 <0>         0.0179
     22 C15         2.5438   -7.9895    0.6171 C.3       1 <0>        -0.0062
     23 C16         3.4343   -8.2703    1.8292 C.3       1 <0>        -0.1507
     24 C17         4.6708   -9.0533    1.3832 C.3       1 <0>         0.0614
     25 O4          5.5024   -9.3155    2.5152 O.3       1 <0>        -0.3099
     26 C18         6.6507  -10.0076    2.2904 C.ar      1 <0>         0.1104
     27 C19         6.9722  -10.4203    1.0058 C.ar      1 <0>        -0.1786
     28 C20         8.1394  -11.1237    0.7787 C.ar      1 <0>        -0.1136
     29 C21         8.9878  -11.4170    1.8328 C.ar      1 <0>         0.0730
     30 C22         8.6679  -11.0061    3.1156 C.ar      1 <0>        -0.1109
     31 C23         7.5046  -10.2969    3.3445 C.ar      1 <0>        -0.1156
     32 F1         10.1287  -12.1053    1.6094 F         1 <0>        -0.1339
     33 Cl1         2.6089   -2.6229   -4.5639 Cl        1 <0>        -0.0623
     34 N3          2.3569    0.3038   -4.1485 N.pl3     1 <0>        -0.8495
     35 H3          1.0053    1.8021    0.0021 H         1 <0>         0.0609
     36 H4         -0.5445    1.7859   -0.8732 H         1 <0>         0.0614
     37 H5         -0.5275    1.7763    0.9067 H         1 <0>         0.1085
     38 H6          1.1342    1.2357   -2.0059 H         1 <0>         0.1464
     39 H7          1.3215   -3.6961   -2.2880 H         1 <0>         0.1333
     40 H8          0.5557   -4.5989   -0.8931 H         1 <0>         0.3942
     41 H9          0.8503   -4.1821    2.4284 H         1 <0>         0.1283
     42 H10         0.0859   -5.7273    2.8748 H         1 <0>         0.1026
     43 H11         2.2242   -5.3523    0.7288 H         1 <0>         0.1317
     44 H12         2.4891   -6.0421    2.3475 H         1 <0>         0.1399
     45 H13         0.9276   -6.4898   -0.8690 H         1 <0>         0.1341
     46 H14         0.1862   -8.0624   -0.4903 H         1 <0>         0.1380
     47 H15        -2.0715   -8.2215   -1.0778 H         1 <0>         0.0481
     48 H16        -3.2481   -7.4047   -0.0210 H         1 <0>         0.0566
     49 H17        -3.2712   -7.1071   -1.7758 H         1 <0>         0.1042
     50 H18         2.2339   -8.9329    0.1676 H         1 <0>         0.1368
     51 H19         3.1003   -7.4039   -0.1147 H         1 <0>         0.1356
     52 H20         3.7442   -7.3269    2.2786 H         1 <0>         0.1012
     53 H21         2.8778   -8.8559    2.5610 H         1 <0>         0.1013
     54 H22         4.3608   -9.9967    0.9337 H         1 <0>         0.0740
     55 H23         5.2272   -8.4676    0.6514 H         1 <0>         0.0740
     56 H24         6.3103  -10.1922    0.1835 H         1 <0>         0.1353
     57 H25         8.3900  -11.4451   -0.2214 H         1 <0>         0.1422
     58 H26         9.3304  -11.2359    3.9370 H         1 <0>         0.1482
     59 H27         7.2577   -9.9722    4.3445 H         1 <0>         0.1439
     60 H28         2.3233    1.2719   -4.0992 H         1 <0>         0.4097
     61 H29         2.7876   -0.1289   -4.9023 H         1 <0>         0.4089
     62 H30         0.8896   -7.7426    1.7837 H         1 <0>         0.4252
@<TRIPOS>BOND
     1    1    2 1
     2    1   35 1
     3    1   36 1
     4    1   37 1
     5    2    3 1
     6    3    8 ar
     7    3    4 ar
     8    4    5 ar
     9    4   38 1
    10    5    6 ar
    11    5   34 1
    12    6    7 ar
    13    6   33 1
    14    7    8 ar
    15    7   39 1
    16    8    9 1
    17    9   10 2
    18    9   11 am
    19   11   12 1
    20   11   40 1
    21   12   13 1
    22   12   18 1
    23   12   14 1
    24   14   15 1
    25   14   41 1
    26   14   42 1
    27   15   16 1
    28   15   43 1
    29   15   44 1
    30   16   17 1
    31   16   22 1
    32   16   62 1
    33   17   18 1
    34   17   45 1
    35   17   46 1
    36   18   19 1
    37   18   20 1
    38   20   21 1
    39   21   47 1
    40   21   48 1
    41   21   49 1
    42   22   23 1
    43   22   50 1
    44   22   51 1
    45   23   24 1
    46   23   52 1
    47   23   53 1
    48   24   25 1
    49   24   54 1
    50   24   55 1
    51   25   26 1
    52   26   31 ar
    53   26   27 ar
    54   27   28 ar
    55   27   56 1
    56   28   29 ar
    57   28   57 1
    58   29   30 ar
    59   29   32 1
    60   30   31 ar
    61   30   58 1
    62   31   59 1
    63   34   60 1
    64   34   61 1
@<TRIPOS>MOLECULE
ZINC03830564
   62    64     0     0     0
SMALL
USER_CHARGES

@<TRIPOS>ATOM
      1 C1         -0.0173    1.4248    0.0099 C.3       1 <0>         0.0173
      2 O1          0.0021   -0.0041    0.0020 O.3       1 <0>        -0.2768
      3 C2          0.6048   -0.6061   -1.0540 C.ar      1 <0>         0.2482
      4 C3          1.1714    0.1577   -2.0595 C.ar      1 <0>        -0.2974
      5 C4          1.7875   -0.4643   -3.1379 C.ar      1 <0>         0.3044
      6 C5          1.8368   -1.8562   -3.2112 C.ar      1 <0>        -0.1594
      7 C6          1.2804   -2.6188   -2.2247 C.ar      1 <0>         0.0124
      8 C7          0.6619   -2.0064   -1.1291 C.ar      1 <0>        -0.2376
      9 C8          0.0677   -2.8282   -0.0619 C.2       1 <0>         0.5803
     10 O2         -0.4739   -2.2937    0.8871 O.2       1 <0>        -0.5144
     11 N1          0.1238   -4.1727   -0.1363 N.am      1 <0>        -0.7279
     12 C9         -0.4675   -4.9905    0.9257 C.3       1 <0>         0.1426
     13 H1         -0.3382   -4.4904    1.8855 H         1 <0>         0.1147
     14 C10        -1.9606   -5.1884    0.6484 C.3       1 <0>        -0.1574
     15 C11        -2.5547   -6.1082    1.7173 C.3       1 <0>        -0.0121
     16 N2         -1.8729   -7.4076    1.6837 N.4       1 <0>        -0.3780
     17 C12        -0.4544   -7.2346    2.0193 C.3       1 <0>        -0.0308
     18 C13         0.2219   -6.3574    0.9634 C.3       1 <0>         0.0634
     19 H2          0.1375   -6.8346   -0.0130 H         1 <0>         0.0897
     20 O3          1.6015   -6.1871    1.2946 O.3       1 <0>        -0.3498
     21 C14         2.4612   -7.1803    0.7321 C.3       1 <0>         0.0175
     22 C15        -2.4981   -8.3123    2.6576 C.3       1 <0>        -0.0056
     23 C16        -3.9400   -8.5999    2.2341 C.3       1 <0>        -0.1510
     24 C17        -4.5912   -9.5422    3.2484 C.3       1 <0>         0.0612
     25 O4         -5.9378   -9.8107    2.8528 O.3       1 <0>        -0.3101
     26 C18        -6.6627  -10.6375    3.6523 C.ar      1 <0>         0.1103
     27 C19        -6.0908  -11.1740    4.7964 C.ar      1 <0>        -0.1786
     28 C20        -6.8286  -12.0140    5.6079 C.ar      1 <0>        -0.1136
     29 C21        -8.1381  -12.3209    5.2793 C.ar      1 <0>         0.0729
     30 C22        -8.7100  -11.7865    4.1373 C.ar      1 <0>        -0.1110
     31 C23        -7.9767  -10.9409    3.3276 C.ar      1 <0>        -0.1157
     32 F1         -8.8583  -13.1429    6.0736 F         1 <0>        -0.1339
     33 Cl1         2.6089   -2.6229   -4.5639 Cl        1 <0>        -0.0612
     34 N3          2.3569    0.3038   -4.1485 N.pl3     1 <0>        -0.8498
     35 H3          1.0053    1.8021    0.0021 H         1 <0>         0.0610
     36 H4         -0.5445    1.7859   -0.8732 H         1 <0>         0.0608
     37 H5         -0.5275    1.7763    0.9067 H         1 <0>         0.1075
     38 H6          1.1342    1.2357   -2.0059 H         1 <0>         0.1460
     39 H7          1.3215   -3.6961   -2.2880 H         1 <0>         0.1366
     40 H8          0.5557   -4.5989   -0.8931 H         1 <0>         0.4011
     41 H9         -2.4669   -4.2235    0.6762 H         1 <0>         0.1280
     42 H10        -2.0914   -5.6407   -0.3346 H         1 <0>         0.0936
     43 H11        -2.4236   -5.6548    2.6998 H         1 <0>         0.1373
     44 H12        -3.6177   -6.2510    1.5230 H         1 <0>         0.1408
     45 H13        -0.3681   -6.7573    2.9954 H         1 <0>         0.1434
     46 H14         0.0331   -8.2090    2.0480 H         1 <0>         0.1370
     47 H15         2.1631   -8.1650    1.0923 H         1 <0>         0.0484
     48 H16         2.3857   -7.1529   -0.3549 H         1 <0>         0.0550
     49 H17         3.4905   -6.9808    1.0300 H         1 <0>         0.1046
     50 H18        -1.9380   -9.2465    2.6975 H         1 <0>         0.1365
     51 H19        -2.4951   -7.8445    3.6421 H         1 <0>         0.1371
     52 H20        -4.5001   -7.6657    2.1942 H         1 <0>         0.1015
     53 H21        -3.9430   -9.0676    1.2495 H         1 <0>         0.1005
     54 H22        -4.0310  -10.4764    3.2882 H         1 <0>         0.0740
     55 H23        -4.5881   -9.0744    4.2329 H         1 <0>         0.0745
     56 H24        -5.0691  -10.9353    5.0526 H         1 <0>         0.1356
     57 H25        -6.3836  -12.4318    6.4989 H         1 <0>         0.1423
     58 H26        -9.7315  -12.0270    3.8820 H         1 <0>         0.1482
     59 H27        -8.4246  -10.5203    2.4394 H         1 <0>         0.1438
     60 H28         2.3233    1.2719   -4.0992 H         1 <0>         0.4092
     61 H29         2.7876   -0.1289   -4.9023 H         1 <0>         0.4089
     62 H30        -1.9528   -7.8044    0.7595 H         1 <0>         0.4239
@<TRIPOS>BOND
     1    1    2 1
     2    1   35 1
     3    1   36 1
     4    1   37 1
     5    2    3 1
     6    3    8 ar
     7    3    4 ar
     8    4    5 ar
     9    4   38 1
    10    5    6 ar
    11    5   34 1
    12    6    7 ar
    13    6   33 1
    14    7    8 ar
    15    7   39 1
    16    8    9 1
    17    9   10 2
    18    9   11 am
    19   11   12 1
    20   11   40 1
    21   12   13 1
    22   12   18 1
    23   12   14 1
    24   14   15 1
    25   14   41 1
    26   14   42 1
    27   15   16 1
    28   15   43 1
    29   15   44 1
    30   16   17 1
    31   16   22 1
    32   16   62 1
    33   17   18 1
    34   17   45 1
    35   17   46 1
    36   18   19 1
    37   18   20 1
    38   20   21 1
    39   21   47 1
    40   21   48 1
    41   21   49 1
    42   22   23 1
    43   22   50 1
    44   22   51 1
    45   23   24 1
    46   23   52 1
    47   23   53 1
    48   24   25 1
    49   24   54 1
    50   24   55 1
    51   25   26 1
    52   26   31 ar
    53   26   27 ar
    54   27   28 ar
    55   27   56 1
    56   28   29 ar
    57   28   57 1
    58   29   30 ar
    59   29   32 1
    60   30   31 ar
    61   30   58 1
    62   31   59 1
    63   34   60 1
    64   34   61 1
@<TRIPOS>MOLECULE
ZINC19376338
   32    34     0     0     0
SMALL
USER_CHARGES

@<TRIPOS>ATOM
      1 C1         -0.0239    1.3370    0.2441 C.ar      1 <0>        -0.1256
      2 C2          1.1550    2.0478    0.4568 C.ar      1 <0>        -0.0782
      3 C3          2.3643    1.4231    0.4379 C.ar      1 <0>        -0.1141
      4 C4          2.4311    0.0393    0.2011 C.ar      1 <0>         0.1744
      5 C5          1.2312   -0.6814   -0.0144 C.ar      1 <0>        -0.1375
      6 C6          0.0018   -0.0048    0.0116 C.ar      1 <0>        -0.0809
      7 C7          1.2976   -2.0694   -0.2519 C.ar      1 <0>        -0.0096
      8 C8          2.5231   -2.6645   -0.2643 C.ar      1 <0>        -0.2222
      9 C9          3.6751   -1.8960   -0.0441 C.ar      1 <0>         0.4150
     10 N1          3.6064   -0.5993    0.1777 N.ar      1 <0>        -0.5363
     11 N2          4.9157   -2.5156   -0.0597 N.pl3     1 <0>        -0.6266
     12 C10         6.1561   -1.7247   -0.0617 C.3       1 <0>         0.1015
     13 C11         7.0719   -2.2550    1.0465 C.3       1 <0>        -0.0225
     14 N3          7.2730   -3.6982    0.8653 N.4       1 <0>        -0.5046
     15 C12         5.9976   -4.4059    1.0344 C.3       1 <0>        -0.0221
     16 C13         5.0286   -3.9823   -0.0687 C.3       1 <0>         0.0992
     17 H1         -0.9708    1.8557    0.2683 H         1 <0>         0.1324
     18 H2          1.1089    3.1113    0.6392 H         1 <0>         0.1343
     19 H3          3.2692    1.9888    0.6039 H         1 <0>         0.1349
     20 H4         -0.9189   -0.5453   -0.1515 H         1 <0>         0.1333
     21 H5          0.4000   -2.6463   -0.4193 H         1 <0>         0.1464
     22 H6          2.6072   -3.7262   -0.4432 H         1 <0>         0.1365
     23 H7          6.6530   -1.8250   -1.0266 H         1 <0>         0.0880
     24 H8          5.9227   -0.6768    0.1263 H         1 <0>         0.1390
     25 H9          8.0340   -1.7450    0.9980 H         1 <0>         0.1449
     26 H10         6.6116   -2.0712    2.0173 H         1 <0>         0.1341
     27 H11         7.6328   -3.8727   -0.0611 H         1 <0>         0.4286
     28 H12         6.1681   -5.4809    0.9769 H         1 <0>         0.1469
     29 H13         5.5698   -4.1571    2.0056 H         1 <0>         0.1344
     30 H14         4.0501   -4.4261    0.1146 H         1 <0>         0.1284
     31 H15         5.4097   -4.3144   -1.0344 H         1 <0>         0.0943
     32 H16         7.9351   -4.0327    1.5492 H         1 <0>         0.4339
@<TRIPOS>BOND
     1    1    6 ar
     2    1    2 ar
     3    1   17 1
     4    2    3 ar
     5    2   18 1
     6    3    4 ar
     7    3   19 1
     8    4   10 ar
     9    4    5 ar
    10    5    6 ar
    11    5    7 ar
    12    6   20 1
    13    7    8 ar
    14    7   21 1
    15    8    9 ar
    16    8   22 1
    17    9   10 ar
    18    9   11 1
    19   11   16 1
    20   11   12 1
    21   12   13 1
    22   12   23 1
    23   12   24 1
    24   13   14 1
    25   13   25 1
    26   13   26 1
    27   14   15 1
    28   14   27 1
    29   14   32 1
    30   15   16 1
    31   15   28 1
    32   15   29 1
    33   16   30 1
    34   16   31 1
@<TRIPOS>MOLECULE
ZINC02568243
   34    36     0     0     0
SMALL
USER_CHARGES

@<TRIPOS>ATOM
      1 C1         -0.0173    1.4248    0.0099 C.3       1 <0>         0.0252
      2 O1          0.0021   -0.0041    0.0020 O.3       1 <0>        -0.3183
      3 C2         -1.2010   -0.6379    0.0101 C.ar      1 <0>         0.1169
      4 C3         -2.3775    0.1067    0.0195 C.ar      1 <0>        -0.1762
      5 C4         -3.6034   -0.5202    0.0273 C.ar      1 <0>        -0.0783
      6 C5         -3.6744   -1.9098    0.0258 C.ar      1 <0>         0.0592
      7 C6         -2.4884   -2.6622    0.0163 C.ar      1 <0>        -0.0484
      8 C7         -1.2520   -2.0182    0.0032 C.ar      1 <0>        -0.1259
      9 C8         -2.9033   -4.0754    0.0172 C.2       1 <0>        -0.1922
     10 C9         -4.2612   -4.0825    0.0269 C.2       1 <0>         0.1018
     11 N1         -4.7283   -2.8009    0.0320 N.pl3     1 <0>        -0.5832
     12 H1         -5.6658   -2.5518    0.0397 H         1 <0>         0.4236
     13 C10        -2.0157   -5.2547    0.0093 C.2       1 <0>        -0.0022
     14 C11        -1.3988   -5.5778   -1.1088 C.2       1 <0>        -0.1971
     15 C12        -0.4803   -6.7603   -1.2219 C.3       1 <0>         0.0381
     16 N2         -0.0462   -7.2002    0.1091 N.4       1 <0>        -0.5087
     17 C13        -1.2320   -7.4084    0.9551 C.3       1 <0>        -0.0039
     18 C14        -1.8429   -6.0411    1.2796 C.3       1 <0>        -0.1164
     19 H2          1.0053    1.8021    0.0021 H         1 <0>         0.1041
     20 H3         -0.5445    1.7859   -0.8732 H         1 <0>         0.0579
     21 H4         -0.5275    1.7763    0.9067 H         1 <0>         0.0578
     22 H5         -2.3280    1.1855    0.0211 H         1 <0>         0.1378
     23 H6         -4.5099    0.0668    0.0350 H         1 <0>         0.1301
     24 H7         -0.3392   -2.5953   -0.0086 H         1 <0>         0.1257
     25 H8         -4.8782   -4.9689    0.0300 H         1 <0>         0.1757
     26 H9         -1.5611   -4.9651   -1.9833 H         1 <0>         0.1495
     27 H10        -1.0039   -7.5772   -1.7186 H         1 <0>         0.1390
     28 H11         0.3928   -6.4834   -1.8127 H         1 <0>         0.1408
     29 H12         0.4669   -8.0652    0.0282 H         1 <0>         0.4342
     30 H13        -1.9591   -8.0207    0.4217 H         1 <0>         0.1341
     31 H14        -0.9391   -7.9058    1.8797 H         1 <0>         0.1381
     32 H15        -1.1844   -5.4970    1.9567 H         1 <0>         0.1074
     33 H16        -2.8140   -6.1827    1.7539 H         1 <0>         0.1225
     34 H17         0.5436   -6.4936    0.5225 H         1 <0>         0.4315
@<TRIPOS>BOND
     1    1    2 1
     2    1   19 1
     3    1   20 1
     4    1   21 1
     5    2    3 1
     6    3    8 ar
     7    3    4 ar
     8    4    5 ar
     9    4   22 1
    10    5    6 ar
    11    5   23 1
    12    6   11 1
    13    6    7 ar
    14    7    8 ar
    15    7    9 1
    16    8   24 1
    17    9   10 2
    18    9   13 1
    19   10   11 1
    20   10   25 1
    21   11   12 1
    22   13   18 1
    23   13   14 2
    24   14   15 1
    25   14   26 1
    26   15   16 1
    27   15   27 1
    28   15   28 1
    29   16   17 1
    30   16   29 1
    31   16   34 1
    32   17   18 1
    33   17   30 1
    34   17   31 1
    35   18   32 1
    36   18   33 1
@<TRIPOS>MOLECULE
ZINC01714738
   49    50     0     0     0
SMALL
USER_CHARGES

@<TRIPOS>ATOM
      1 C1         -0.0467    1.4769    0.0229 C.3       1 <0>        -0.0475
      2 N1         -0.0215    0.0082    0.0086 N.4       1 <0>        -0.3868
      3 C2          0.6979   -0.4807    1.1924 C.3       1 <0>        -0.0541
      4 C3         -1.3977   -0.5054    0.0251 C.3       1 <0>        -0.0063
      5 C4         -1.3752   -2.0288   -0.1154 C.3       1 <0>        -0.1338
      6 C5         -2.8086   -2.5637   -0.0982 C.3       1 <0>        -0.1120
      7 S1         -2.7820   -4.3698   -0.2648 S.3       1 <0>        -0.1081
      8 C6         -4.4834   -4.8264   -0.2280 C.ar      1 <0>        -0.1291
      9 C7         -5.4630   -3.8519   -0.0994 C.ar      1 <0>        -0.1103
     10 C8         -6.7968   -4.2126   -0.0714 C.ar      1 <0>        -0.1204
     11 C9         -7.1600   -5.5434   -0.1706 C.ar      1 <0>        -0.0897
     12 C10        -6.1911   -6.5212   -0.2990 C.ar      1 <0>        -0.1142
     13 C11        -4.8504   -6.1686   -0.3339 C.ar      1 <0>         0.1802
     14 N2         -3.8676   -7.1568   -0.4692 N.am      1 <0>        -0.6663
     15 C12        -4.1713   -8.3342   -1.0505 C.2       1 <0>         0.5530
     16 O1         -5.2696   -8.5020   -1.5477 O.2       1 <0>        -0.5168
     17 C13        -3.1805   -9.4113   -1.0839 C.2       1 <0>        -0.2326
     18 C14        -3.4844  -10.5891   -1.6654 C.2       1 <0>         0.0088
     19 C15        -2.4880  -11.6722   -1.6990 C.ar      1 <0>        -0.0896
     20 C16        -1.2272  -11.4852   -1.1238 C.ar      1 <0>        -0.0979
     21 C17        -0.2992  -12.5045   -1.1593 C.ar      1 <0>        -0.1240
     22 C18        -0.6128  -13.7100   -1.7626 C.ar      1 <0>        -0.1005
     23 C19        -1.8585  -13.9027   -2.3341 C.ar      1 <0>        -0.1218
     24 C20        -2.7994  -12.8952   -2.3012 C.ar      1 <0>        -0.0883
     25 H1          0.9744    1.8580    0.0106 H         1 <0>         0.1261
     26 H2         -0.5805    1.8397   -0.8556 H         1 <0>         0.1242
     27 H3         -0.5529    1.8228    0.9241 H         1 <0>         0.1227
     28 H4          0.7166   -1.5705    1.1819 H         1 <0>         0.1248
     29 H5          1.7190   -0.0996    1.1802 H         1 <0>         0.1262
     30 H6          0.1917   -0.1348    2.0937 H         1 <0>         0.1236
     31 H7         -1.8754   -0.2344    0.9666 H         1 <0>         0.1333
     32 H8         -1.9571   -0.0723   -0.8041 H         1 <0>         0.1345
     33 H9         -0.8975   -2.2998   -1.0569 H         1 <0>         0.0988
     34 H10        -0.8158   -2.4619    0.7138 H         1 <0>         0.0989
     35 H11        -3.2863   -2.2926    0.8433 H         1 <0>         0.0993
     36 H12        -3.3680   -2.1306   -0.9274 H         1 <0>         0.0998
     37 H13        -5.1830   -2.8118   -0.0210 H         1 <0>         0.1225
     38 H14        -7.5579   -3.4530    0.0288 H         1 <0>         0.1302
     39 H15        -8.2038   -5.8197   -0.1474 H         1 <0>         0.1345
     40 H16        -6.4786   -7.5594   -0.3759 H         1 <0>         0.1551
     41 H17        -2.9681   -6.9940   -0.1446 H         1 <0>         0.4115
     42 H18        -2.2060   -9.2624   -0.6427 H         1 <0>         0.1329
     43 H19        -4.4588  -10.7380   -2.1066 H         1 <0>         0.1394
     44 H20        -0.9807  -10.5448   -0.6532 H         1 <0>         0.1261
     45 H21         0.6750  -12.3617   -0.7155 H         1 <0>         0.1275
     46 H22         0.1185  -14.5043   -1.7879 H         1 <0>         0.1276
     47 H23        -2.0957  -14.8460   -2.8034 H         1 <0>         0.1299
     48 H24        -3.7727  -13.0487   -2.7433 H         1 <0>         0.1305
     49 H25         0.4470   -0.3120   -0.8257 H         1 <0>         0.4283
@<TRIPOS>BOND
     1    1    2 1
     2    1   25 1
     3    1   26 1
     4    1   27 1
     5    2    3 1
     6    2    4 1
     7    2   49 1
     8    3   28 1
     9    3   29 1
    10    3   30 1
    11    4    5 1
    12    4   31 1
    13    4   32 1
    14    5    6 1
    15    5   33 1
    16    5   34 1
    17    6    7 1
    18    6   35 1
    19    6   36 1
    20    7    8 1
    21    8   13 ar
    22    8    9 ar
    23    9   10 ar
    24    9   37 1
    25   10   11 ar
    26   10   38 1
    27   11   12 ar
    28   11   39 1
    29   12   13 ar
    30   12   40 1
    31   13   14 1
    32   14   15 am
    33   14   41 1
    34   15   16 2
    35   15   17 1
    36   17   18 2
    37   17   42 1
    38   18   19 1
    39   18   43 1
    40   19   24 ar
    41   19   20 ar
    42   20   21 ar
    43   20   44 1
    44   21   22 ar
    45   21   45 1
    46   22   23 ar
    47   22   46 1
    48   23   24 ar
    49   23   47 1
    50   24   48 1
@<TRIPOS>MOLECULE
ZINC03812975
   60    64     0     0     0
SMALL
USER_CHARGES

@<TRIPOS>ATOM
      1 C1         -0.0178    1.4608    0.0101 C.3       1 <0>         0.0716
      2 N1          0.0021   -0.0041    0.0020 N.pl3     1 <0>        -0.4812
      3 C2          0.0080   -0.7895   -1.1411 C.2       1 <0>         0.0913
      4 C3          0.0282   -2.0729   -0.8158 C.2       1 <0>        -0.2023
      5 C4          0.0400   -2.1061    0.6467 C.ar      1 <0>        -0.1336
      6 C5          0.0233   -0.7876    1.1160 C.ar      1 <0>         0.1162
      7 C6          0.0281   -0.6014    2.4974 C.ar      1 <0>        -0.1058
      8 C7          0.0555   -1.7454    3.2836 C.ar      1 <0>        -0.0964
      9 C8          0.0797   -3.0442    2.7772 C.ar      1 <0>        -0.1174
     10 C9          0.0695   -3.2585    1.4352 C.ar      1 <0>        -0.0501
     11 C10         0.1084   -4.5672    0.7055 C.3       1 <0>        -0.0367
     12 H1          1.1465   -4.8604    0.5493 H         1 <0>         0.1043
     13 C11        -0.5981   -5.6387    1.5422 C.3       1 <0>        -0.1264
     14 C12        -0.5917   -6.9634    0.7749 C.3       1 <0>        -0.1191
     15 H2          0.4364   -7.2946    0.6283 H         1 <0>         0.1074
     16 C13        -1.2619   -6.7580   -0.5856 C.3       1 <0>        -0.0110
     17 N2         -0.5193   -5.7488   -1.3493 N.4       1 <0>        -0.3819
     18 C14        -0.5941   -4.4602   -0.6486 C.3       1 <0>         0.0378
     19 H3         -1.6407   -4.2114   -0.4733 H         1 <0>         0.1390
     20 C15         0.0386   -3.3796   -1.5674 C.3       1 <0>        -0.0465
     21 C16        -1.1140   -5.6136   -2.6857 C.3       1 <0>        -0.0542
     22 C17        -1.3607   -8.0194    1.5713 C.3       1 <0>         0.1445
     23 N3         -1.2530   -9.3149    0.8957 N.am      1 <0>        -0.7202
     24 C18        -1.8561  -10.4004    1.4197 C.2       1 <0>         0.6478
     25 O1         -2.4890  -10.3045    2.4525 O.2       1 <0>        -0.5572
     26 O2         -1.7571  -11.5909    0.7987 O.3       1 <0>        -0.3583
     27 C19        -2.4213  -12.6986    1.4101 C.3       1 <0>         0.1298
     28 C20        -2.2011  -13.9369    0.5799 C.ar      1 <0>        -0.1065
     29 C21        -3.0857  -14.2560   -0.4333 C.ar      1 <0>        -0.0941
     30 C22        -2.8838  -15.3918   -1.1949 C.ar      1 <0>        -0.1226
     31 C23        -1.7970  -16.2083   -0.9436 C.ar      1 <0>        -0.1033
     32 C24        -0.9119  -15.8887    0.0690 C.ar      1 <0>        -0.1217
     33 C25        -1.1115  -14.7506    0.8278 C.ar      1 <0>        -0.0932
     34 H4          1.0048    1.8381    0.0023 H         1 <0>         0.0763
     35 H5         -0.5450    1.8219   -0.8730 H         1 <0>         0.0887
     36 H6         -0.5280    1.8123    0.9069 H         1 <0>         0.0865
     37 H7         -0.0028   -0.4089   -2.1517 H         1 <0>         0.1709
     38 H8          0.0117    0.3857    2.9353 H         1 <0>         0.1341
     39 H9          0.0586   -1.6213    4.3564 H         1 <0>         0.1280
     40 H10         0.1012   -3.8846    3.4551 H         1 <0>         0.1263
     41 H11        -0.0744   -5.7644    2.4899 H         1 <0>         0.1052
     42 H12        -1.6269   -5.3328    1.7318 H         1 <0>         0.0927
     43 H13        -1.2652   -7.6995   -1.1349 H         1 <0>         0.1320
     44 H14        -2.2876   -6.4199   -0.4381 H         1 <0>         0.1355
     45 H15        -0.5532   -3.2857   -2.4780 H         1 <0>         0.0973
     46 H16         1.0635   -3.6515   -1.8197 H         1 <0>         0.0936
     47 H17        -2.1551   -5.3050   -2.5906 H         1 <0>         0.1238
     48 H18        -0.5634   -4.8642   -3.2543 H         1 <0>         0.1297
     49 H19        -1.0648   -6.5713   -3.2039 H         1 <0>         0.1265
     50 H20        -0.9396   -8.0964    2.5738 H         1 <0>         0.0941
     51 H21        -2.4096   -7.7310    1.6390 H         1 <0>         0.0857
     52 H22        -0.7477   -9.3914    0.0712 H         1 <0>         0.4044
     53 H23        -2.0192  -12.8560    2.4109 H         1 <0>         0.0813
     54 H24        -3.4892  -12.4906    1.4762 H         1 <0>         0.0808
     55 H25        -3.9348  -13.6181   -0.6297 H         1 <0>         0.1240
     56 H26        -3.5753  -15.6415   -1.9860 H         1 <0>         0.1278
     57 H27        -1.6396  -17.0961   -1.5381 H         1 <0>         0.1277
     58 H28        -0.0630  -16.5268    0.2656 H         1 <0>         0.1284
     59 H29        -0.4179  -14.4989    1.6165 H         1 <0>         0.1249
     60 H30         0.4428   -6.0388   -1.4403 H         1 <0>         0.4239
@<TRIPOS>BOND
     1    1    2 1
     2    1   34 1
     3    1   35 1
     4    1   36 1
     5    2    6 1
     6    2    3 1
     7    3    4 2
     8    3   37 1
     9    4   20 1
    10    4    5 1
    11    5   10 ar
    12    5    6 ar
    13    6    7 ar
    14    7    8 ar
    15    7   38 1
    16    8    9 ar
    17    8   39 1
    18    9   10 ar
    19    9   40 1
    20   10   11 1
    21   11   12 1
    22   11   18 1
    23   11   13 1
    24   13   14 1
    25   13   41 1
    26   13   42 1
    27   14   15 1
    28   14   16 1
    29   14   22 1
    30   16   17 1
    31   16   43 1
    32   16   44 1
    33   17   18 1
    34   17   21 1
    35   17   60 1
    36   18   19 1
    37   18   20 1
    38   20   45 1
    39   20   46 1
    40   21   47 1
    41   21   48 1
    42   21   49 1
    43   22   23 1
    44   22   50 1
    45   22   51 1
    46   23   24 am
    47   23   52 1
    48   24   25 2
    49   24   26 1
    50   26   27 1
    51   27   28 1
    52   27   53 1
    53   27   54 1
    54   28   33 ar
    55   28   29 ar
    56   29   30 ar
    57   29   55 1
    58   30   31 ar
    59   30   56 1
    60   31   32 ar
    61   31   57 1
    62   32   33 ar
    63   32   58 1
    64   33   59 1
@<TRIPOS>MOLECULE
ZINC00157416
   28    29     0     0     0
SMALL
USER_CHARGES
2-piperazin-1-ylphenol
@<TRIPOS>ATOM
      1 C1          1.1407    3.5085    0.0361 C.ar      1 <0>        -0.1019
      2 C2         -0.0762    4.1646    0.0380 C.ar      1 <0>        -0.1041
      3 C3         -1.2554    3.4425    0.0198 C.ar      1 <0>        -0.1244
      4 C4         -1.2199    2.0580   -0.0000 C.ar      1 <0>         0.1059
      5 C5          0.0060    1.3960   -0.0020 C.ar      1 <0>         0.0566
      6 C6          1.1848    2.1270    0.0212 C.ar      1 <0>        -0.1477
      7 N1          0.0480   -0.0028   -0.0214 N.pl3     1 <0>        -0.4788
      8 C7          1.4160   -0.4854   -0.2565 C.3       1 <0>         0.0189
      9 C8          1.4063   -2.0130   -0.3498 C.3       1 <0>         0.0017
     10 C9         -0.5086   -2.0911    1.1287 C.3       1 <0>         0.0021
     11 C10        -0.4988   -0.5635    1.2220 C.3       1 <0>         0.0248
     12 O1         -2.3789    1.3465   -0.0171 O.3       1 <0>        -0.4835
     13 H1          2.0590    4.0766    0.0507 H         1 <0>         0.1337
     14 H2         -0.1060    5.2441    0.0541 H         1 <0>         0.1358
     15 H3         -2.2043    3.9582    0.0213 H         1 <0>         0.1392
     16 H4          2.1367    1.6169    0.0239 H         1 <0>         0.1306
     17 H5          1.7942   -0.0665   -1.1890 H         1 <0>         0.1285
     18 H6          2.0577   -0.1756    0.5684 H         1 <0>         0.0704
     19 H7          2.4241   -2.3750   -0.4952 H         1 <0>         0.1417
     20 H8          0.7864   -2.3220   -1.1914 H         1 <0>         0.1408
     21 H9         -0.8868   -2.5100    2.0612 H         1 <0>         0.1411
     22 H10        -1.1505   -2.4010    0.3041 H         1 <0>         0.1418
     23 H11         0.1211   -0.2545    2.0637 H         1 <0>         0.0671
     24 H12        -1.5165   -0.2012    1.3676 H         1 <0>         0.1230
     25 H13        -2.7631    1.1996    0.8581 H         1 <0>         0.3839
     26 N2          0.8644   -2.5799    0.8997 N.4       1 <0>        -0.5186
     27 H14         1.4604   -2.2974    1.6865 H         1 <0>         0.4308
     28 H15         0.8523   -3.6042    0.8299 H         1 <0>         0.4405
@<TRIPOS>BOND
     1    1    6 ar
     2    1    2 ar
     3    1   13 1
     4    2    3 ar
     5    2   14 1
     6    3    4 ar
     7    3   15 1
     8    4    5 ar
     9    4   12 1
    10    5    6 ar
    11    5    7 1
    12    6   16 1
    13    7   11 1
    14    7    8 1
    15    8    9 1
    16    8   17 1
    17    8   18 1
    18    9   19 1
    19    9   20 1
    20    9   26 1
    21   10   11 1
    22   10   21 1
    23   10   22 1
    24   10   26 1
    25   11   23 1
    26   11   24 1
    27   12   25 1
    28   26   27 1
    29   26   28 1
@<TRIPOS>MOLECULE
ZINC04244898
   29    30     0     0     0
SMALL
USER_CHARGES
1-(3-nitrophenyl)piperazine
@<TRIPOS>ATOM
      1 C1         -1.1724   -2.0936    0.0020 C.ar      1 <0>        -0.0836
      2 C2          0.0299   -2.7734   -0.0131 C.ar      1 <0>        -0.1166
      3 C3          1.2255   -2.0665   -0.0207 C.ar      1 <0>         0.0926
      4 C4          1.2075   -0.6773   -0.0131 C.ar      1 <0>        -0.0712
      5 C5          0.0021   -0.0041    0.0020 C.ar      1 <0>        -0.0136
      6 C6         -1.1866   -0.7111    0.0153 C.ar      1 <0>        -0.0644
      7 N1         -0.0180    1.4758    0.0102 N.pl3     1 <0>         0.0192
      8 O1          1.0284    2.0991    0.0035 O.2       1 <0>        -0.1494
      9 O2         -1.0810    2.0704    0.0184 O.3       1 <0>        -0.1383
     10 N2          2.4430   -2.7507   -0.0356 N.pl3     1 <0>        -0.4855
     11 C7          3.2865   -2.3495    1.0990 C.3       1 <0>         0.0200
     12 C8          4.6386   -3.0601    1.0025 C.3       1 <0>         0.0016
     13 C9          3.5821   -4.9154   -0.1380 C.3       1 <0>         0.0017
     14 C10         2.2300   -4.2048   -0.0414 C.3       1 <0>         0.0165
     15 H1         -2.1024   -2.6426    0.0083 H         1 <0>         0.1570
     16 H2          0.0403   -3.8533   -0.0194 H         1 <0>         0.1471
     17 H3          2.1354   -0.1247   -0.0194 H         1 <0>         0.1585
     18 H4         -2.1280   -0.1820    0.0319 H         1 <0>         0.1620
     19 H5          3.4401   -1.2707    1.0743 H         1 <0>         0.1309
     20 H6          2.7961   -2.6261    2.0324 H         1 <0>         0.0747
     21 H7          5.2552   -2.7864    1.8586 H         1 <0>         0.1453
     22 H8          5.1409   -2.7625    0.0821 H         1 <0>         0.1434
     23 H9          3.4285   -5.9942   -0.1133 H         1 <0>         0.1449
     24 H10         4.0723   -4.6391   -1.0715 H         1 <0>         0.1427
     25 H11         1.7276   -4.5024    0.8790 H         1 <0>         0.0763
     26 H12         1.6131   -4.4785   -0.8973 H         1 <0>         0.1326
     27 N3          4.4292   -4.5204    1.0033 N.4       1 <0>        -0.5196
     28 H13         3.9689   -4.7964    1.8786 H         1 <0>         0.4322
     29 H14         5.3378   -4.9932    0.9306 H         1 <0>         0.4429
@<TRIPOS>BOND
     1    1    6 ar
     2    1    2 ar
     3    1   15 1
     4    2    3 ar
     5    2   16 1
     6    3    4 ar
     7    3   10 1
     8    4    5 ar
     9    4   17 1
    10    5    6 ar
    11    5    7 1
    12    6   18 1
    13    7    8 2
    14    7    9 1
    15   10   14 1
    16   10   11 1
    17   11   12 1
    18   11   19 1
    19   11   20 1
    20   12   21 1
    21   12   22 1
    22   12   27 1
    23   13   14 1
    24   13   23 1
    25   13   24 1
    26   13   27 1
    27   14   25 1
    28   14   26 1
    29   27   28 1
    30   27   29 1
@<TRIPOS>MOLECULE
ZINC00538314
   60    64     0     0     0
SMALL
USER_CHARGES

@<TRIPOS>ATOM
      1 C1         -0.0184    1.5028    0.0103 C.3       1 <0>        -0.1174
      2 C2          0.0021   -0.0041    0.0020 C.2       1 <0>         0.2445
      3 C3         -1.1751   -0.7216    0.0036 C.2       1 <0>        -0.3147
      4 C4         -1.1361   -2.1161   -0.0047 C.2       1 <0>         0.5359
      5 O1         -2.1756   -2.7567   -0.0037 O.2       1 <0>        -0.5241
      6 N1          0.0668   -2.7644   -0.0143 N.am      1 <0>        -0.4737
      7 C5          0.2679   -4.1238   -0.0236 C.2       1 <0>         0.0266
      8 C6          1.4978   -4.6373   -0.0325 C.2       1 <0>        -0.1636
      9 S1          2.5089   -3.1651   -0.0288 S.3       1 <0>         0.1803
     10 C7          1.1857   -1.9749   -0.0151 C.2       1 <0>         0.3350
     11 N2          1.1565   -0.6654   -0.0126 N.2       1 <0>        -0.4984
     12 C8         -2.4993   -0.0022    0.0147 C.3       1 <0>        -0.0635
     13 C9         -3.0147    0.1395   -1.4188 C.3       1 <0>        -0.0075
     14 N3         -4.3055    0.8408   -1.4080 N.4       1 <0>        -0.3819
     15 C10        -4.1121    2.2079   -0.9103 C.3       1 <0>        -0.0097
     16 C11        -5.4758    2.8853   -0.7337 C.3       1 <0>        -0.1045
     17 C12        -6.2228    2.7941   -2.0481 C.2       1 <0>        -0.1537
     18 C13        -6.8154    3.8677   -2.5843 C.2       1 <0>         0.0201
     19 C14        -7.5400    3.7487   -3.8726 C.ar      1 <0>        -0.0793
     20 C15        -6.8454    3.4297   -5.0384 C.ar      1 <0>        -0.0814
     21 C16        -7.5238    3.3196   -6.2346 C.ar      1 <0>        -0.1518
     22 C17        -8.8933    3.5256   -6.2784 C.ar      1 <0>         0.1146
     23 C18        -9.5877    3.8433   -5.1223 C.ar      1 <0>        -0.1473
     24 C19        -8.9186    3.9499   -3.9205 C.ar      1 <0>        -0.0659
     25 F1         -9.5535    3.4167   -7.4521 F         1 <0>        -0.1311
     26 C20        -6.7474    5.1762   -1.8900 C.ar      1 <0>        -0.0818
     27 C21        -7.3566    5.3406   -0.6469 C.ar      1 <0>        -0.0760
     28 C22        -7.2903    6.5596   -0.0045 C.ar      1 <0>        -0.1515
     29 C23        -6.6196    7.6197   -0.5929 C.ar      1 <0>         0.1154
     30 C24        -6.0130    7.4611   -1.8286 C.ar      1 <0>        -0.1500
     31 C25        -6.0692    6.2440   -2.4758 C.ar      1 <0>        -0.0670
     32 F2         -6.5572    8.8117    0.0399 F         1 <0>        -0.1311
     33 C26        -6.2752    1.4449   -2.7346 C.3       1 <0>        -0.1083
     34 C27        -4.8545    0.8700   -2.7688 C.3       1 <0>        -0.0019
     35 H1          1.0042    1.8801    0.0026 H         1 <0>         0.0964
     36 H2         -0.5455    1.8639   -0.8728 H         1 <0>         0.0880
     37 H3         -0.5286    1.8543    0.9071 H         1 <0>         0.0967
     38 H4         -0.5845   -4.7869   -0.0233 H         1 <0>         0.1919
     39 H5          1.8032   -5.6732   -0.0394 H         1 <0>         0.2293
     40 H6         -3.2174   -0.5721    0.6044 H         1 <0>         0.1000
     41 H7         -2.3717    0.9869    0.4545 H         1 <0>         0.0983
     42 H8         -2.2966    0.7094   -2.0085 H         1 <0>         0.1284
     43 H9         -3.1423   -0.8496   -1.8586 H         1 <0>         0.1316
     44 H10        -3.5955    2.1756    0.0490 H         1 <0>         0.1348
     45 H11        -3.5151    2.7739   -1.6255 H         1 <0>         0.1309
     46 H12        -6.0411    2.3760    0.0468 H         1 <0>         0.1010
     47 H13        -5.3343    3.9317   -0.4629 H         1 <0>         0.1205
     48 H14        -5.7779    3.2693   -5.0053 H         1 <0>         0.1324
     49 H15        -6.9865    3.0728   -7.1384 H         1 <0>         0.1419
     50 H16       -10.6551    4.0034   -5.1612 H         1 <0>         0.1431
     51 H17        -9.4614    4.1929   -3.0190 H         1 <0>         0.1358
     52 H18        -7.8799    4.5149   -0.1877 H         1 <0>         0.1352
     53 H19        -7.7622    6.6880    0.9585 H         1 <0>         0.1425
     54 H20        -5.4916    8.2902   -2.2837 H         1 <0>         0.1424
     55 H21        -5.5921    6.1199   -3.4367 H         1 <0>         0.1346
     56 H22        -6.9300    0.7743   -2.1783 H         1 <0>         0.1009
     57 H23        -6.6483    1.5640   -3.7518 H         1 <0>         0.1217
     58 H24        -4.2246    1.4954   -3.4014 H         1 <0>         0.1291
     59 H25        -4.8820   -0.1426   -3.1713 H         1 <0>         0.1328
     60 H26        -4.9458    0.3531   -0.7995 H         1 <0>         0.4242
@<TRIPOS>BOND
     1    1    2 1
     2    1   35 1
     3    1   36 1
     4    1   37 1
     5    2   11 1
     6    2    3 2
     7    3    4 1
     8    3   12 1
     9    4    5 2
    10    4    6 am
    11    6   10 1
    12    6    7 1
    13    7    8 2
    14    7   38 1
    15    8    9 1
    16    8   39 1
    17    9   10 1
    18   10   11 2
    19   12   13 1
    20   12   40 1
    21   12   41 1
    22   13   14 1
    23   13   42 1
    24   13   43 1
    25   14   34 1
    26   14   15 1
    27   14   60 1
    28   15   16 1
    29   15   44 1
    30   15   45 1
    31   16   17 1
    32   16   46 1
    33   16   47 1
    34   17   18 2
    35   17   33 1
    36   18   19 1
    37   18   26 1
    38   19   24 ar
    39   19   20 ar
    40   20   21 ar
    41   20   48 1
    42   21   22 ar
    43   21   49 1
    44   22   23 ar
    45   22   25 1
    46   23   24 ar
    47   23   50 1
    48   24   51 1
    49   26   31 ar
    50   26   27 ar
    51   27   28 ar
    52   27   52 1
    53   28   29 ar
    54   28   53 1
    55   29   30 ar
    56   29   32 1
    57   30   31 ar
    58   30   54 1
    59   31   55 1
    60   33   34 1
    61   33   56 1
    62   33   57 1
    63   34   58 1
    64   34   59 1
@<TRIPOS>MOLECULE
ZINC00643233
   56    59     0     0     0
SMALL
USER_CHARGES

@<TRIPOS>ATOM
      1 C1         -0.0167    1.3786    0.0096 C.ar      1 <0>        -0.1573
      2 C2          1.1695    2.0894    0.0021 C.ar      1 <0>        -0.0635
      3 C3          2.3774    1.4200   -0.0130 C.ar      1 <0>        -0.1784
      4 C4          2.3998    0.0311   -0.0206 C.ar      1 <0>         0.2317
      5 C5          1.2064   -0.6798   -0.0130 C.ar      1 <0>        -0.1988
      6 C6          0.0021   -0.0041    0.0020 C.ar      1 <0>        -0.0706
      7 N1          3.6196   -0.6492   -0.0363 N.pl3     1 <0>        -0.6334
      8 C7          4.9637   -0.0571   -0.0400 C.3       1 <0>         0.3326
      9 N2          5.9388   -1.1470   -0.0572 N.am      1 <0>        -0.7166
     10 C8          5.3099   -2.3344   -0.0641 C.2       1 <0>         0.5288
     11 O1          5.8532   -3.4187   -0.0778 O.2       1 <0>        -0.5133
     12 C9          3.8222   -2.1026   -0.0461 C.3       1 <0>         0.1361
     13 C10         3.1820   -2.7114   -1.2943 C.3       1 <0>        -0.1499
     14 C11         3.3480   -4.2326   -1.2552 C.3       1 <0>        -0.0132
     15 N3          2.7020   -4.7671   -0.0503 N.4       1 <0>        -0.3794
     16 C12         3.3698   -4.2457    1.1482 C.3       1 <0>        -0.0190
     17 C13         3.2050   -2.7250    1.2070 C.3       1 <0>        -0.1492
     18 C14         2.7905   -6.2335   -0.0591 C.3       1 <0>        -0.0094
     19 C15         2.0109   -6.7986    1.1299 C.3       1 <0>        -0.1425
     20 C16         2.1030   -8.3258    1.1207 C.3       1 <0>        -0.1654
     21 C17         1.3351   -8.8824    2.2919 C.2       1 <0>         0.4040
     22 O2          0.7698   -8.1316    3.0583 O.2       1 <0>        -0.4484
     23 C18         1.2712  -10.3355    2.5052 C.ar      1 <0>        -0.1962
     24 C19         1.9272  -11.2044    1.6259 C.ar      1 <0>        -0.0430
     25 C20         1.8634  -12.5650    1.8315 C.ar      1 <0>        -0.1669
     26 C21         1.1505  -13.0743    2.9070 C.ar      1 <0>         0.1434
     27 C22         0.4980  -12.2186    3.7823 C.ar      1 <0>        -0.1651
     28 C23         0.5590  -10.8557    3.5917 C.ar      1 <0>        -0.0262
     29 F1          1.0910  -14.4098    3.1025 F         1 <0>        -0.1261
     30 H1         -0.9598    1.9046    0.0260 H         1 <0>         0.1276
     31 H2          1.1513    3.1692    0.0077 H         1 <0>         0.1312
     32 H3          3.3034    1.9757   -0.0192 H         1 <0>         0.1257
     33 H4          1.2204   -1.7597   -0.0193 H         1 <0>         0.1144
     34 H5         -0.9261   -0.5561    0.0079 H         1 <0>         0.1276
     35 H6          5.0901    0.5643   -0.9265 H         1 <0>         0.0880
     36 H7          5.1025    0.5473    0.8564 H         1 <0>         0.0877
     37 H8          6.9016   -1.0295   -0.0627 H         1 <0>         0.4365
     38 H9          2.1214   -2.4613   -1.3183 H         1 <0>         0.1096
     39 H10         3.6706   -2.3147   -2.1843 H         1 <0>         0.1192
     40 H11         2.8858   -4.6710   -2.1397 H         1 <0>         0.1383
     41 H12         4.4090   -4.4817   -1.2391 H         1 <0>         0.1470
     42 H13         2.9238   -4.6937    2.0361 H         1 <0>         0.1399
     43 H14         4.4303   -4.4946    1.1101 H         1 <0>         0.1471
     44 H15         3.7099   -2.3380    2.0921 H         1 <0>         0.1189
     45 H16         2.1450   -2.4752    1.2532 H         1 <0>         0.1098
     46 H17         2.3668   -6.6175   -0.9870 H         1 <0>         0.1347
     47 H18         3.8354   -6.5348    0.0153 H         1 <0>         0.1347
     48 H19         2.4346   -6.4145    2.0578 H         1 <0>         0.0947
     49 H20         0.9660   -6.4972    1.0555 H         1 <0>         0.0950
     50 H21         1.6793   -8.7098    0.1928 H         1 <0>         0.1132
     51 H22         3.1479   -8.6271    1.1951 H         1 <0>         0.1132
     52 H23         2.4820  -10.8091    0.7879 H         1 <0>         0.1415
     53 H24         2.3692  -13.2366    1.1537 H         1 <0>         0.1468
     54 H25        -0.0554  -12.6215    4.6177 H         1 <0>         0.1475
     55 H26         0.0543  -10.1903    4.2765 H         1 <0>         0.1457
     56 H27         1.7315   -4.4913   -0.0400 H         1 <0>         0.4195
@<TRIPOS>BOND
     1    1    6 ar
     2    1    2 ar
     3    1   30 1
     4    2    3 ar
     5    2   31 1
     6    3    4 ar
     7    3   32 1
     8    4    5 ar
     9    4    7 1
    10    5    6 ar
    11    5   33 1
    12    6   34 1
    13    7   12 1
    14    7    8 1
    15    8    9 1
    16    8   35 1
    17    8   36 1
    18    9   10 am
    19    9   37 1
    20   10   11 2
    21   10   12 1
    22   12   17 1
    23   12   13 1
    24   13   14 1
    25   13   38 1
    26   13   39 1
    27   14   15 1
    28   14   40 1
    29   14   41 1
    30   15   16 1
    31   15   18 1
    32   15   56 1
    33   16   17 1
    34   16   42 1
    35   16   43 1
    36   17   44 1
    37   17   45 1
    38   18   19 1
    39   18   46 1
    40   18   47 1
    41   19   20 1
    42   19   48 1
    43   19   49 1
    44   20   21 1
    45   20   50 1
    46   20   51 1
    47   21   22 2
    48   21   23 1
    49   23   28 ar
    50   23   24 ar
    51   24   25 ar
    52   24   52 1
    53   25   26 ar
    54   25   53 1
    55   26   27 ar
    56   26   29 1
    57   27   28 ar
    58   27   54 1
    59   28   55 1
@<TRIPOS>MOLECULE
ZINC03810797
   54    57     0     0     0
SMALL
USER_CHARGES
2-benzofuran-6-yl-N-[(5-methoxytetralin-1-yl)methyl]-N-methyl-ethanamine
@<TRIPOS>ATOM
      1 C1         -2.0883   -0.0783    1.2217 C.3       1 <0>        -0.0516
      2 C2         -1.1584   -1.9653    0.0227 C.3       1 <0>        -0.0034
      3 C3         -2.5061   -2.6836   -0.0709 C.3       1 <0>        -0.0979
      4 C4         -2.2828   -4.1739   -0.0603 C.ar      1 <0>        -0.0835
      5 C5         -2.2627   -4.8565    1.1474 C.ar      1 <0>        -0.1284
      6 C6         -2.0609   -6.2086    1.1751 C.ar      1 <0>        -0.0624
      7 C7         -1.8749   -6.9042   -0.0186 C.ar      1 <0>        -0.1187
      8 C8         -1.6400   -8.3122   -0.3603 C.2       1 <0>        -0.2145
      9 C9         -1.5419   -8.3612   -1.6957 C.2       1 <0>         0.0241
     10 O1         -1.6914   -7.1307   -2.2166 O.3       1 <0>        -0.1921
     11 C10        -1.8946   -6.2188   -1.2448 C.ar      1 <0>         0.0504
     12 C11        -2.1063   -4.8456   -1.2511 C.ar      1 <0>        -0.0922
     13 C12        -0.1054    0.2091   -0.1378 C.3       1 <0>        -0.0047
     14 C13        -0.3836    1.6409   -0.5999 C.3       1 <0>        -0.0629
     15 H1         -1.0919    2.1081    0.0842 H         1 <0>         0.1048
     16 C14        -0.9852    1.6092   -2.0034 C.3       1 <0>        -0.1330
     17 C15        -1.0543    3.0468   -2.5322 C.3       1 <0>        -0.1170
     18 C16         0.3693    3.5286   -2.8042 C.3       1 <0>        -0.0781
     19 C17         1.2468    3.2933   -1.6028 C.ar      1 <0>        -0.0928
     20 C18         0.9032    2.4240   -0.5927 C.ar      1 <0>        -0.0545
     21 C19         1.7611    2.2477    0.4855 C.ar      1 <0>        -0.1644
     22 C20         2.9538    2.9382    0.5563 C.ar      1 <0>        -0.0736
     23 C21         3.3014    3.8146   -0.4533 C.ar      1 <0>        -0.1985
     24 C22         2.4503    3.9922   -1.5311 C.ar      1 <0>         0.1356
     25 O2          2.7912    4.8534   -2.5256 O.3       1 <0>        -0.3115
     26 C23         4.0380    5.5384   -2.3916 C.3       1 <0>         0.0236
     27 H2         -2.1952    1.0064    1.2106 H         1 <0>         0.1232
     28 H3         -3.0751   -0.5404    1.2477 H         1 <0>         0.1245
     29 H4         -1.5230   -0.3788    2.1039 H         1 <0>         0.1261
     30 H5         -0.5374   -2.2457   -0.8280 H         1 <0>         0.1312
     31 H6         -0.6579   -2.2511    0.9479 H         1 <0>         0.1353
     32 H7         -3.1271   -2.4032    0.7799 H         1 <0>         0.0999
     33 H8         -3.0067   -2.3977   -0.9960 H         1 <0>         0.0966
     34 H9         -2.4070   -4.3165    2.0715 H         1 <0>         0.1313
     35 H10        -2.0461   -6.7355    2.1177 H         1 <0>         0.1345
     36 H11        -1.5616   -9.1419    0.3266 H         1 <0>         0.1646
     37 H12        -1.3679   -9.2589   -2.2704 H         1 <0>         0.2153
     38 H13        -2.1281   -4.3053   -2.1859 H         1 <0>         0.1342
     39 H14         0.5148   -0.2974   -0.8774 H         1 <0>         0.1337
     40 H15         0.4154    0.2310    0.8194 H         1 <0>         0.1375
     41 H16        -0.3563    1.0067   -2.6589 H         1 <0>         0.0831
     42 H17        -1.9878    1.1834   -1.9636 H         1 <0>         0.0666
     43 H18        -1.6328    3.0709   -3.4557 H         1 <0>         0.0810
     44 H19        -1.5242    3.6896   -1.7878 H         1 <0>         0.0721
     45 H20         0.7755    2.9859   -3.6577 H         1 <0>         0.0806
     46 H21         0.3508    4.5944   -3.0318 H         1 <0>         0.0857
     47 H22         1.4919    1.5633    1.2765 H         1 <0>         0.1208
     48 H23         3.6137    2.7940    1.3990 H         1 <0>         0.1310
     49 H24         4.2330    4.3586   -0.4024 H         1 <0>         0.1350
     50 H25         4.1874    6.1925   -3.2507 H         1 <0>         0.1073
     51 H26         4.0291    6.1340   -1.4787 H         1 <0>         0.0596
     52 H27         4.8487    4.8114   -2.3431 H         1 <0>         0.0594
     53 N1         -1.3925   -0.5062   -0.0102 N.4       1 <0>        -0.3989
     54 H28        -1.9810   -0.2811   -0.8210 H         1 <0>         0.4262
@<TRIPOS>BOND
     1    1   27 1
     2    1   28 1
     3    1   29 1
     4    1   53 1
     5    2    3 1
     6    2   30 1
     7    2   31 1
     8    2   53 1
     9    3    4 1
    10    3   32 1
    11    3   33 1
    12    4   12 ar
    13    4    5 ar
    14    5    6 ar
    15    5   34 1
    16    6    7 ar
    17    6   35 1
    18    7   11 ar
    19    7    8 1
    20    8    9 2
    21    8   36 1
    22    9   10 1
    23    9   37 1
    24   10   11 1
    25   11   12 ar
    26   12   38 1
    27   13   14 1
    28   13   39 1
    29   13   40 1
    30   13   53 1
    31   14   15 1
    32   14   20 1
    33   14   16 1
    34   16   17 1
    35   16   41 1
    36   16   42 1
    37   17   18 1
    38   17   43 1
    39   17   44 1
    40   18   19 1
    41   18   45 1
    42   18   46 1
    43   19   24 ar
    44   19   20 ar
    45   20   21 ar
    46   21   22 ar
    47   21   47 1
    48   22   23 ar
    49   22   48 1
    50   23   24 ar
    51   23   49 1
    52   24   25 1
    53   25   26 1
    54   26   50 1
    55   26   51 1
    56   26   52 1
    57   53   54 1
@<TRIPOS>MOLECULE
ZINC01571800
   25    26     0     0     0
SMALL
USER_CHARGES

@<TRIPOS>ATOM
      1 C1          0.0058    1.3143    0.2255 C.ar      1 <0>         0.0078
      2 C2          1.1819    2.0265    0.0017 C.ar      1 <0>         0.3632
      3 N1          2.3163    1.3747   -0.2188 N.ar      1 <0>        -0.4918
      4 C3          2.3262    0.0514   -0.2252 C.ar      1 <0>         0.1743
      5 C4          1.1557   -0.6517   -0.0029 C.ar      1 <0>         0.0305
      6 N2          0.0235   -0.0049    0.2176 N.ar      1 <0>        -0.3796
      7 Cl1         3.8095   -0.8031   -0.5135 Cl        1 <0>         0.0093
      8 N3          1.1669    3.4164    0.0088 N.pl3     1 <0>        -0.6210
      9 C5          2.4203    4.1864   -0.0052 C.3       1 <0>         0.0984
     10 C6          2.3337    5.2349   -1.1192 C.3       1 <0>        -0.0220
     11 N4          1.1252    6.0476   -0.9323 N.4       1 <0>        -0.5049
     12 C7         -0.0702    5.2088   -1.0856 C.3       1 <0>        -0.0220
     13 C8         -0.1028    4.1591    0.0244 C.3       1 <0>         0.0983
     14 H1         -0.9187    1.8414    0.4097 H         1 <0>         0.1747
     15 H2          1.1666   -1.7316   -0.0090 H         1 <0>         0.1864
     16 H3          2.5558    4.6831    0.9555 H         1 <0>         0.0939
     17 H4          3.2592    3.5172   -0.1965 H         1 <0>         0.1382
     18 H5          3.2133    5.8776   -1.0825 H         1 <0>         0.1477
     19 H6          2.2892    4.7345   -2.0866 H         1 <0>         0.1351
     20 H7          1.1337    6.4533   -0.0085 H         1 <0>         0.4297
     21 H8         -0.9621    5.8324   -1.0240 H         1 <0>         0.1506
     22 H9         -0.0420    4.7092   -2.0539 H         1 <0>         0.1358
     23 H10        -0.9313    3.4718   -0.1472 H         1 <0>         0.1300
     24 H11        -0.2264    4.6529    0.9882 H         1 <0>         0.1013
     25 H12         1.1076    6.7851   -1.6207 H         1 <0>         0.4359
@<TRIPOS>BOND
     1    1    6 ar
     2    1    2 ar
     3    1   14 1
     4    2    3 ar
     5    2    8 1
     6    3    4 ar
     7    4    5 ar
     8    4    7 1
     9    5    6 ar
    10    5   15 1
    11    8   13 1
    12    8    9 1
    13    9   10 1
    14    9   16 1
    15    9   17 1
    16   10   11 1
    17   10   18 1
    18   10   19 1
    19   11   12 1
    20   11   20 1
    21   11   25 1
    22   12   13 1
    23   12   21 1
    24   12   22 1
    25   13   23 1
    26   13   24 1
@<TRIPOS>MOLECULE
ZINC02529848
   27    28     0     0     0
SMALL
USER_CHARGES
1-(3-fluorophenyl)piperazine
@<TRIPOS>ATOM
      1 C1          1.1740    1.7830    0.0004 C.ar      1 <0>        -0.0600
      2 C2         -0.0126    1.0758    0.0080 C.ar      1 <0>        -0.1409
      3 C3         -1.2247    1.7542    0.0174 C.ar      1 <0>         0.1155
      4 C4         -1.2402    3.1430    0.0294 C.ar      1 <0>        -0.2032
      5 C5         -0.0492    3.8458    0.0218 C.ar      1 <0>         0.1311
      6 C6          1.1574    3.1651    0.0075 C.ar      1 <0>        -0.1613
      7 F1         -0.0622    5.1968    0.0287 F         1 <0>        -0.1300
      8 N1         -2.4256    1.0410    0.0196 N.pl3     1 <0>        -0.4858
      9 C7         -2.4831    0.1101    1.1553 C.3       1 <0>         0.0236
     10 C8         -3.7752   -0.7065    1.0772 C.3       1 <0>         0.0009
     11 C9         -4.8710    1.1351   -0.0482 C.3       1 <0>         0.0017
     12 C10        -3.5789    1.9517    0.0300 C.3       1 <0>         0.0159
     13 H1          2.1162    1.2551   -0.0114 H         1 <0>         0.1441
     14 H2          0.0021   -0.0041    0.0020 H         1 <0>         0.1358
     15 H3         -2.1810    3.6732    0.0408 H         1 <0>         0.1396
     16 H4          2.0867    3.7154    0.0016 H         1 <0>         0.1439
     17 H5         -1.6256   -0.5617    1.1186 H         1 <0>         0.1304
     18 H6         -2.4646    0.6732    2.0884 H         1 <0>         0.0720
     19 H7         -3.8339   -1.3772    1.9343 H         1 <0>         0.1428
     20 H8         -3.7812   -1.2905    0.1569 H         1 <0>         0.1415
     21 H9         -5.7286    1.8070   -0.0115 H         1 <0>         0.1427
     22 H10        -4.8897    0.5723   -0.9814 H         1 <0>         0.1415
     23 H11        -3.5729    2.5357    0.9503 H         1 <0>         0.0738
     24 H12        -3.5200    2.6228   -0.8270 H         1 <0>         0.1306
     25 N2         -4.9357    0.2041    1.0943 N.4       1 <0>        -0.5194
     26 H13        -4.9325    0.7409    1.9696 H         1 <0>         0.4319
     27 H14        -5.7999   -0.3470    1.0339 H         1 <0>         0.4411
@<TRIPOS>BOND
     1    1    6 ar
     2    1    2 ar
     3    1   13 1
     4    2    3 ar
     5    2   14 1
     6    3    4 ar
     7    3    8 1
     8    4    5 ar
     9    4   15 1
    10    5    6 ar
    11    5    7 1
    12    6   16 1
    13    8   12 1
    14    8    9 1
    15    9   10 1
    16    9   17 1
    17    9   18 1
    18   10   19 1
    19   10   20 1
    20   10   25 1
    21   11   12 1
    22   11   21 1
    23   11   22 1
    24   11   25 1
    25   12   23 1
    26   12   24 1
    27   25   26 1
    28   25   27 1
@<TRIPOS>MOLECULE
ZINC00120262
   34    35     0     0     0
SMALL
USER_CHARGES
1-(2-ethoxyphenyl)piperazine
@<TRIPOS>ATOM
      1 C1         -2.4730   -2.7327    0.1169 C.3       1 <0>        -0.1519
      2 C2         -1.0685   -2.1270    0.0802 C.3       1 <0>         0.0509
      3 O1         -1.1649   -0.7014    0.0621 O.3       1 <0>        -0.3107
      4 C3          0.0023   -0.0040    0.0289 C.ar      1 <0>         0.1338
      5 C4          1.2129   -0.6768    0.0136 C.ar      1 <0>        -0.1884
      6 C5          2.3988    0.0335   -0.0211 C.ar      1 <0>        -0.0794
      7 C6          2.3807    1.4158   -0.0402 C.ar      1 <0>        -0.1327
      8 C7          1.1769    2.0949   -0.0247 C.ar      1 <0>        -0.1242
      9 C8         -0.0168    1.3889    0.0097 C.ar      1 <0>         0.0468
     10 N1         -1.2372    2.0741    0.0192 N.pl3     1 <0>        -0.4766
     11 C9         -1.0313    3.5139    0.2294 C.3       1 <0>         0.0194
     12 C10        -2.3897    4.2141    0.3127 C.3       1 <0>         0.0022
     13 C11        -3.3475    2.5280   -1.1359 C.3       1 <0>         0.0025
     14 C12        -1.9891    1.8279   -1.2192 C.3       1 <0>         0.0251
     15 H1         -3.0279   -2.4173   -0.7666 H         1 <0>         0.0643
     16 H2         -2.3995   -3.8201    0.1307 H         1 <0>         0.0836
     17 H3         -2.9922   -2.3922    1.0128 H         1 <0>         0.0675
     18 H4         -0.5493   -2.4675   -0.8157 H         1 <0>         0.0647
     19 H5         -0.5136   -2.4425    0.9638 H         1 <0>         0.0667
     20 H6          1.2306   -1.7566    0.0284 H         1 <0>         0.1367
     21 H7          3.3417   -0.4929   -0.0337 H         1 <0>         0.1331
     22 H8          3.3094    1.9664   -0.0677 H         1 <0>         0.1318
     23 H9          1.1656    3.1747   -0.0400 H         1 <0>         0.1324
     24 H10        -0.4835    3.6711    1.1586 H         1 <0>         0.1274
     25 H11        -0.4607    3.9250   -0.6034 H         1 <0>         0.0689
     26 H12        -2.2390    5.2861    0.4396 H         1 <0>         0.1403
     27 H13        -2.9493    3.8221    1.1619 H         1 <0>         0.1399
     28 H14        -3.8952    2.3709   -2.0651 H         1 <0>         0.1392
     29 H15        -3.9182    2.1166   -0.3034 H         1 <0>         0.1404
     30 H16        -1.4294    2.2198   -2.0685 H         1 <0>         0.0637
     31 H17        -2.1394    0.7558   -1.3463 H         1 <0>         0.1318
     32 N2         -3.1447    3.9749   -0.9319 N.4       1 <0>        -0.5188
     33 H18        -2.6194    4.3588   -1.7262 H         1 <0>         0.4304
     34 H19        -4.0581    4.4396   -0.8689 H         1 <0>         0.4391
@<TRIPOS>BOND
     1    1    2 1
     2    1   15 1
     3    1   16 1
     4    1   17 1
     5    2    3 1
     6    2   18 1
     7    2   19 1
     8    3    4 1
     9    4    9 ar
    10    4    5 ar
    11    5    6 ar
    12    5   20 1
    13    6    7 ar
    14    6   21 1
    15    7    8 ar
    16    7   22 1
    17    8    9 ar
    18    8   23 1
    19    9   10 1
    20   10   14 1
    21   10   11 1
    22   11   12 1
    23   11   24 1
    24   11   25 1
    25   12   26 1
    26   12   27 1
    27   12   32 1
    28   13   14 1
    29   13   28 1
    30   13   29 1
    31   13   32 1
    32   14   30 1
    33   14   31 1
    34   32   33 1
    35   32   34 1
@<TRIPOS>MOLECULE
ZINC00597802
   63    68     0     0     0
SMALL
USER_CHARGES
2-[4-[(5-fluoro-1H-indol-3-yl)methyl]-1-piperidyl]ethylBLAH dioxide
@<TRIPOS>ATOM
      1 C1         -0.8689   -2.1597    0.5174 C.ar      1 <0>        -0.1004
      2 C2         -0.9714   -0.7792    0.5839 C.ar      1 <0>        -0.0944
      3 C3          0.0021   -0.0041    0.0020 C.ar      1 <0>        -0.0528
      4 C4          1.0824   -0.6187   -0.6412 C.ar      1 <0>         0.0861
      5 C5          1.1943   -1.9887   -0.7207 C.ar      1 <0>         0.0806
      6 C6          0.1931   -2.7639   -0.1247 C.ar      1 <0>        -0.1041
      7 N1          2.3387   -2.4341   -1.4169 N.pl3     1 <0>        -0.9275
      8 S1          3.1397   -1.0359   -1.8726 S.o2      1 <0>         2.7740
      9 O1          4.3597   -0.9824   -1.1461 O.2       1 <0>        -0.9434
     10 O2          3.0682   -0.9409   -3.2886 O.2       1 <0>        -0.9508
     11 N2          2.1307    0.1104   -1.2416 N.pl3     1 <0>        -0.9328
     12 C7          2.1895    1.5642   -1.2263 C.3       1 <0>         0.1460
     13 C8          1.4062    2.0582   -0.0003 C.3       1 <0>        -0.1328
     14 C9         -0.0183    1.5014    0.0103 C.3       1 <0>        -0.0840
     15 C10         2.7383   -3.8181   -1.6833 C.3       1 <0>         0.1282
     16 C11         2.0346   -4.3181   -2.9465 C.3       1 <0>        -0.0374
     17 C12         3.8631   -5.7864   -3.5475 C.3       1 <0>        -0.0126
     18 C13         4.2763   -7.2543   -3.6760 C.3       1 <0>        -0.1469
     19 C14         3.4386   -7.9214   -4.7704 C.3       1 <0>        -0.0943
     20 C15         1.9540   -7.7812   -4.4227 C.3       1 <0>        -0.1440
     21 C16         1.6081   -6.2980   -4.2726 C.3       1 <0>         0.0000
     22 C17         3.8041   -9.4042   -4.8636 C.3       1 <0>        -0.0359
     23 C18         5.2320   -9.5415   -5.3252 C.2       1 <0>        -0.1885
     24 C19         5.6483   -9.7315   -6.5872 C.2       1 <0>         0.0769
     25 N3          7.0140   -9.8058   -6.6218 N.pl3     1 <0>        -0.5892
     26 H1          7.5448   -9.9380   -7.4229 H         1 <0>         0.4226
     27 C20         7.5227   -9.6708   -5.3481 C.ar      1 <0>         0.0849
     28 C21         6.4285   -9.4995   -4.4810 C.ar      1 <0>        -0.0769
     29 C22         6.6431   -9.3364   -3.1110 C.ar      1 <0>        -0.1213
     30 C23         7.9298   -9.3446   -2.6171 C.ar      1 <0>         0.0807
     31 C24         9.0100   -9.5144   -3.4752 C.ar      1 <0>        -0.1306
     32 C25         8.8127   -9.6760   -4.8289 C.ar      1 <0>        -0.0906
     33 F1          8.1423   -9.1871   -1.2922 F         1 <0>        -0.1387
     34 H2         -1.6319   -2.7722    0.9746 H         1 <0>         0.1390
     35 H3         -1.8079   -0.3178    1.0876 H         1 <0>         0.1424
     36 H4          0.2517   -3.8415   -0.1676 H         1 <0>         0.1304
     37 H5          3.2273    1.8903   -1.1566 H         1 <0>         0.0929
     38 H6          1.7384    1.9608   -2.1359 H         1 <0>         0.0836
     39 H7          1.3635    3.1472   -0.0191 H         1 <0>         0.0971
     40 H8          1.9213    1.7379    0.9053 H         1 <0>         0.0774
     41 H9         -0.5505    1.8585   -0.8714 H         1 <0>         0.0887
     42 H10        -0.5335    1.8490    0.9058 H         1 <0>         0.0924
     43 H11         3.8179   -3.8634   -1.8267 H         1 <0>         0.1078
     44 H12         2.4574   -4.4465   -0.8381 H         1 <0>         0.1143
     45 H13         0.9551   -4.2728   -2.8031 H         1 <0>         0.1407
     46 H14         2.3155   -3.6897   -3.7917 H         1 <0>         0.1415
     47 H15         4.0445   -5.2740   -4.4923 H         1 <0>         0.1339
     48 H16         4.4477   -5.3122   -2.7592 H         1 <0>         0.1273
     49 H17         4.1080   -7.7641   -2.7273 H         1 <0>         0.0888
     50 H18         5.3324   -7.3140   -3.9388 H         1 <0>         0.1193
     51 H19         3.6361   -7.4368   -5.7266 H         1 <0>         0.0901
     52 H20         1.7492   -8.2992   -3.4858 H         1 <0>         0.0901
     53 H21         1.3509   -8.2167   -5.2194 H         1 <0>         0.1142
     54 H22         0.5550   -6.1953   -4.0110 H         1 <0>         0.1299
     55 H23         1.8003   -5.7833   -5.2140 H         1 <0>         0.1314
     56 H24         3.6928   -9.8681   -3.8835 H         1 <0>         0.0767
     57 H25         3.1428   -9.8973   -5.5761 H         1 <0>         0.0816
     58 H26         5.0011   -9.8111   -7.4481 H         1 <0>         0.1735
     59 H27         5.8055   -9.2049   -2.4420 H         1 <0>         0.1311
     60 H28        10.0138   -9.5195   -3.0767 H         1 <0>         0.1424
     61 H29         9.6594   -9.8065   -5.4866 H         1 <0>         0.1344
     62 N4          2.4304   -5.7209   -3.1881 N.4       1 <0>        -0.3904
     63 H30         2.2774   -6.2631   -2.3297 H         1 <0>         0.4274
@<TRIPOS>BOND
     1    1    6 ar
     2    1    2 ar
     3    1   34 1
     4    2    3 ar
     5    2   35 1
     6    3   14 1
     7    3    4 ar
     8    4   11 1
     9    4    5 ar
    10    5    6 ar
    11    5    7 1
    12    6   36 1
    13    7    8 1
    14    7   15 1
    15    8    9 2
    16    8   10 2
    17    8   11 1
    18   11   12 1
    19   12   13 1
    20   12   37 1
    21   12   38 1
    22   13   14 1
    23   13   39 1
    24   13   40 1
    25   14   41 1
    26   14   42 1
    27   15   16 1
    28   15   43 1
    29   15   44 1
    30   16   45 1
    31   16   46 1
    32   16   62 1
    33   17   18 1
    34   17   47 1
    35   17   48 1
    36   17   62 1
    37   18   19 1
    38   18   49 1
    39   18   50 1
    40   19   20 1
    41   19   22 1
    42   19   51 1
    43   20   21 1
    44   20   52 1
    45   20   53 1
    46   21   54 1
    47   21   55 1
    48   21   62 1
    49   22   23 1
    50   22   56 1
    51   22   57 1
    52   23   28 1
    53   23   24 2
    54   24   25 1
    55   24   58 1
    56   25   26 1
    57   25   27 1
    58   27   32 ar
    59   27   28 ar
    60   28   29 ar
    61   29   30 ar
    62   29   59 1
    63   30   31 ar
    64   30   33 1
    65   31   32 ar
    66   31   60 1
    67   32   61 1
    68   62   63 1
@<TRIPOS>MOLECULE
ZINC00056464
   30    31     0     0     0
SMALL
USER_CHARGES

@<TRIPOS>ATOM
      1 C1          2.3803    1.4154    0.0012 C.ar      1 <0>        -0.0679
      2 C2          1.1706    2.0859    0.0021 C.ar      1 <0>        -0.1090
      3 C3         -0.0163    1.3769   -0.0041 C.ar      1 <0>        -0.1302
      4 C4          0.0024   -0.0042   -0.0117 C.ar      1 <0>        -0.1396
      5 C5          1.2154   -0.6807   -0.0131 C.ar      1 <0>         0.1972
      6 C6          2.4063    0.0349   -0.0064 C.ar      1 <0>        -0.1554
      7 N1          1.2380   -2.0772   -0.0208 N.pl3     1 <0>        -0.6444
      8 C7          2.5064   -2.8125   -0.1411 C.3       1 <0>         0.0969
      9 C8          2.5675   -3.8614    0.9742 C.3       1 <0>        -0.0235
     10 N2          1.3686   -4.7073    0.9155 N.4       1 <0>        -0.5041
     11 C9          0.1737   -3.9014    1.1960 C.3       1 <0>        -0.0226
     12 C10        -0.0054   -2.8545    0.0974 C.3       1 <0>         0.0946
     13 C11        -1.3320    2.1118   -0.0021 C.3       1 <0>         0.5058
     14 F1         -1.0960    3.4907    0.0064 F         1 <0>        -0.1705
     15 F2         -2.0588    1.7701   -1.1476 F         1 <0>        -0.1737
     16 F3         -2.0627    1.7568    1.1369 F         1 <0>        -0.1752
     17 H1          3.3057    1.9723    0.0018 H         1 <0>         0.1434
     18 H2          1.1532    3.1658    0.0080 H         1 <0>         0.1444
     19 H3         -0.9251   -0.5574   -0.0162 H         1 <0>         0.1345
     20 H4          3.3512   -0.4881   -0.0074 H         1 <0>         0.1338
     21 H5          2.5527   -3.3067   -1.1115 H         1 <0>         0.0922
     22 H6          3.3422   -2.1203   -0.0390 H         1 <0>         0.1279
     23 H7          3.4554   -4.4799    0.8433 H         1 <0>         0.1458
     24 H8          2.6122   -3.3612    1.9416 H         1 <0>         0.1353
     25 H9          1.2902   -5.1139   -0.0047 H         1 <0>         0.4291
     26 H10        -0.7022   -4.5493    1.2286 H         1 <0>         0.1464
     27 H11         0.2909   -3.3999    2.1567 H         1 <0>         0.1354
     28 H12        -0.8295   -2.1900    0.3570 H         1 <0>         0.1263
     29 H13        -0.2170   -3.3529   -0.8486 H         1 <0>         0.0922
     30 H14         1.4444   -5.4441    1.6007 H         1 <0>         0.4350
@<TRIPOS>BOND
     1    1    6 ar
     2    1    2 ar
     3    1   17 1
     4    2    3 ar
     5    2   18 1
     6    3    4 ar
     7    3   13 1
     8    4    5 ar
     9    4   19 1
    10    5    6 ar
    11    5    7 1
    12    6   20 1
    13    7   12 1
    14    7    8 1
    15    8    9 1
    16    8   21 1
    17    8   22 1
    18    9   10 1
    19    9   23 1
    20    9   24 1
    21   10   11 1
    22   10   25 1
    23   10   30 1
    24   11   12 1
    25   11   26 1
    26   11   27 1
    27   12   28 1
    28   12   29 1
    29   13   14 1
    30   13   15 1
    31   13   16 1
@<TRIPOS>MOLECULE
ZINC02390001
   28    29     0     0     0
SMALL
USER_CHARGES
2-piperazin-1-ylbenzonitrile
@<TRIPOS>ATOM
      1 C1          2.4023    0.0346    0.0024 C.ar      1 <0>        -0.1213
      2 C2          1.2061   -0.6641    0.0352 C.ar      1 <0>        -0.0616
      3 C3          0.0023    0.0110    0.0389 C.ar      1 <0>        -0.1639
      4 C4         -0.0170    1.3994    0.0097 C.ar      1 <0>         0.1295
      5 C5          1.1929    2.1103   -0.0235 C.ar      1 <0>        -0.0328
      6 C6          2.4033    1.4122   -0.0268 C.ar      1 <0>        -0.0464
      7 C7          1.1868    3.5419   -0.0533 C.1       1 <0>         0.2494
      8 N1          1.1820    4.6777   -0.0770 N.1       1 <0>        -0.4009
      9 N2         -1.2283    2.0818    0.0192 N.pl3     1 <0>        -0.4936
     10 C8         -2.3536    1.1601   -0.1903 C.3       1 <0>         0.0201
     11 C9         -3.6582    1.9580   -0.2526 C.3       1 <0>         0.0004
     12 C10        -2.7012    3.6365    1.2053 C.3       1 <0>         0.0012
     13 C11        -1.3966    2.8387    1.2676 C.3       1 <0>         0.0223
     14 H1          3.3388   -0.5035    0.0001 H         1 <0>         0.1431
     15 H2          1.2158   -1.7438    0.0579 H         1 <0>         0.1396
     16 H3         -0.9256   -0.5409    0.0645 H         1 <0>         0.1377
     17 H4          3.3386    1.9517   -0.0520 H         1 <0>         0.1432
     18 H5         -2.2122    0.6206   -1.1268 H         1 <0>         0.1329
     19 H6         -2.4006    0.4500    0.6353 H         1 <0>         0.0766
     20 H7         -4.4972    1.2738   -0.3790 H         1 <0>         0.1443
     21 H8         -3.6220    2.6490   -1.0948 H         1 <0>         0.1408
     22 H9         -2.8426    4.1760    2.1418 H         1 <0>         0.1439
     23 H10        -2.6540    4.3469    0.3799 H         1 <0>         0.1409
     24 H11        -1.4328    2.1476    2.1097 H         1 <0>         0.0772
     25 H12        -0.5574    3.5226    1.3942 H         1 <0>         0.1221
     26 N3         -3.8342    2.7139    1.0019 N.4       1 <0>        -0.5181
     27 H13        -3.8821    2.0570    1.7896 H         1 <0>         0.4320
     28 H14        -4.7062    3.2537    0.9529 H         1 <0>         0.4416
@<TRIPOS>BOND
     1    1    6 ar
     2    1    2 ar
     3    1   14 1
     4    2    3 ar
     5    2   15 1
     6    3    4 ar
     7    3   16 1
     8    4    5 ar
     9    4    9 1
    10    5    6 ar
    11    5    7 1
    12    6   17 1
    13    7    8 3
    14    9   13 1
    15    9   10 1
    16   10   11 1
    17   10   18 1
    18   10   19 1
    19   11   20 1
    20   11   21 1
    21   11   26 1
    22   12   13 1
    23   12   22 1
    24   12   23 1
    25   12   26 1
    26   13   24 1
    27   13   25 1
    28   26   27 1
    29   26   28 1
@<TRIPOS>MOLECULE
ZINC03716182
   36    37     0     0     0
SMALL
USER_CHARGES
1-(2-isopropylphenyl)piperazine
@<TRIPOS>ATOM
      1 C1         -2.4599   -0.4599    2.5717 C.3       1 <0>        -0.1538
      2 C2         -1.0369    0.0242    2.2857 C.3       1 <0>        -0.0594
      3 C3         -0.1520   -0.2449    3.5044 C.3       1 <0>        -0.1479
      4 C4         -0.4860   -0.7128    1.0922 C.ar      1 <0>        -0.0727
      5 C5         -0.2791   -2.0769    1.1571 C.ar      1 <0>        -0.0950
      6 C6          0.2255   -2.7540    0.0623 C.ar      1 <0>        -0.1173
      7 C7          0.5252   -2.0684   -1.1009 C.ar      1 <0>        -0.1004
      8 C8          0.3164   -0.7054   -1.1741 C.ar      1 <0>        -0.1587
      9 C9         -0.1860   -0.0212   -0.0743 C.ar      1 <0>         0.0790
     10 N1         -0.3944    1.3582   -0.1434 N.pl3     1 <0>        -0.4846
     11 C10         0.2245    1.9245   -1.3500 C.3       1 <0>         0.0182
     12 C11         0.0429    3.4442   -1.3480 C.3       1 <0>         0.0025
     13 N2         -1.3906    3.7636   -1.2955 N.4       1 <0>        -0.5381
     14 C12        -2.0095    3.1973   -0.0889 C.3       1 <0>        -0.0005
     15 C13        -1.8279    1.6776   -0.0909 C.3       1 <0>         0.0083
     16 H1         -3.0961   -0.2664    1.6954 H         1 <0>         0.0515
     17 H2         -2.8621    0.0781    3.4428 H         1 <0>         0.0652
     18 H3         -2.4445   -1.5394    2.7825 H         1 <0>         0.0645
     19 H4         -1.0461    1.1009    2.0608 H         1 <0>         0.0859
     20 H5          0.8710    0.1032    3.2987 H         1 <0>         0.0582
     21 H6         -0.1366   -1.3244    3.7152 H         1 <0>         0.0601
     22 H7         -0.5542    0.2931    4.3755 H         1 <0>         0.0621
     23 H8         -0.5122   -2.6153    2.0638 H         1 <0>         0.1303
     24 H9          0.3856   -3.8207    0.1153 H         1 <0>         0.1293
     25 H10         0.9189   -2.6003   -1.9544 H         1 <0>         0.1282
     26 H11         0.5465   -0.1713   -2.0842 H         1 <0>         0.1245
     27 H12         1.2975    1.6825   -1.3598 H         1 <0>         0.1267
     28 H13        -0.2557    1.4980   -2.2431 H         1 <0>         0.0693
     29 H14         0.5474    3.8726   -0.4694 H         1 <0>         0.1374
     30 H15         0.4804    3.8670   -2.2644 H         1 <0>         0.1406
     31 H16        -1.5227    4.8556   -1.2817 H         1 <0>         0.4580
     32 H17        -1.5293    3.6238    0.8041 H         1 <0>         0.1373
     33 H18        -3.0825    3.4393   -0.0791 H         1 <0>         0.1409
     34 H19        -2.3316    1.2483   -0.9695 H         1 <0>         0.0668
     35 H20        -2.2647    1.2540    0.8255 H         1 <0>         0.1355
     36 H21        -1.8922    3.3448   -2.1803 H         1 <0>         0.4482
@<TRIPOS>BOND
     1    1    2 1
     2    1   16 1
     3    1   17 1
     4    1   18 1
     5    2    3 1
     6    2    4 1
     7    2   19 1
     8    3   20 1
     9    3   21 1
    10    3   22 1
    11    4    9 ar
    12    4    5 ar
    13    5    6 ar
    14    5   23 1
    15    6    7 ar
    16    6   24 1
    17    7    8 ar
    18    7   25 1
    19    8    9 ar
    20    8   26 1
    21    9   10 1
    22   10   15 1
    23   10   11 1
    24   11   12 1
    25   11   27 1
    26   11   28 1
    27   12   13 1
    28   12   29 1
    29   12   30 1
    30   13   14 1
    31   13   31 1
    32   13   36 1
    33   14   15 1
    34   14   32 1
    35   14   33 1
    36   15   34 1
    37   15   35 1
@<TRIPOS>MOLECULE
ZINC02516045
   33    35     0     0     0
SMALL
USER_CHARGES

@<TRIPOS>ATOM
      1 C1         -0.0164    1.3568    0.0095 C.ar      1 <0>        -0.1126
      2 C2          1.1685    2.0902    0.0021 C.ar      1 <0>        -0.1056
      3 C3          2.3785    1.4660   -0.0127 C.ar      1 <0>        -0.1107
      4 C4          2.4369    0.0637   -0.0208 C.ar      1 <0>        -0.0518
      5 C5          1.2329   -0.6830   -0.0133 C.ar      1 <0>        -0.0490
      6 C6          0.0021   -0.0041    0.0020 C.ar      1 <0>        -0.1001
      7 C7          1.2897   -2.0870   -0.0204 C.ar      1 <0>        -0.0877
      8 C8          2.4960   -2.7188   -0.0343 C.ar      1 <0>        -0.1184
      9 C9          3.6853   -1.9966   -0.0413 C.ar      1 <0>        -0.1083
     10 C10         3.6728   -0.6178   -0.0357 C.ar      1 <0>         0.1496
     11 N1          4.8691    0.0961   -0.0437 N.pl3     1 <0>        -0.6725
     12 C11         5.5338    0.4724    1.2136 C.3       1 <0>         0.1164
     13 C12         7.0032    0.0457    1.1328 C.3       1 <0>        -0.0236
     14 N2          7.6138    0.6222   -0.0717 N.4       1 <0>        -0.5026
     15 C13         6.9746    0.0667   -1.2713 C.3       1 <0>        -0.0233
     16 C14         5.5067    0.4896   -1.3097 C.3       1 <0>         0.1159
     17 H1         -0.9633    1.8759    0.0259 H         1 <0>         0.1287
     18 H2          1.1264    3.1693    0.0079 H         1 <0>         0.1252
     19 H3          3.2888    2.0471   -0.0187 H         1 <0>         0.1205
     20 H4         -0.9241   -0.5595    0.0082 H         1 <0>         0.1330
     21 H5          0.3773   -2.6647   -0.0144 H         1 <0>         0.1332
     22 H6          2.5301   -3.7982   -0.0396 H         1 <0>         0.1296
     23 H7          4.6289   -2.5219   -0.0517 H         1 <0>         0.1206
     24 H8          5.4729    1.5520    1.3511 H         1 <0>         0.0790
     25 H9          5.0507   -0.0340    2.0491 H         1 <0>         0.1164
     26 H10         7.5342    0.4020    2.0155 H         1 <0>         0.1398
     27 H11         7.0639   -1.0416    1.0862 H         1 <0>         0.1321
     28 H12         7.4939    1.6240   -0.0616 H         1 <0>         0.4274
     29 H13         7.4845    0.4385   -2.1601 H         1 <0>         0.1402
     30 H14         7.0361   -1.0212   -1.2452 H         1 <0>         0.1320
     31 H15         5.0057   -0.0055   -2.1415 H         1 <0>         0.1165
     32 H16         5.4430    1.5709   -1.4312 H         1 <0>         0.0785
     33 H17         8.5988    0.4040   -0.0854 H         1 <0>         0.4316
@<TRIPOS>BOND
     1    1    6 ar
     2    1    2 ar
     3    1   17 1
     4    2    3 ar
     5    2   18 1
     6    3    4 ar
     7    3   19 1
     8    4   10 ar
     9    4    5 ar
    10    5    6 ar
    11    5    7 ar
    12    6   20 1
    13    7    8 ar
    14    7   21 1
    15    8    9 ar
    16    8   22 1
    17    9   10 ar
    18    9   23 1
    19   10   11 1
    20   11   16 1
    21   11   12 1
    22   12   13 1
    23   12   24 1
    24   12   25 1
    25   13   14 1
    26   13   26 1
    27   13   27 1
    28   14   15 1
    29   14   28 1
    30   14   33 1
    31   15   16 1
    32   15   29 1
    33   15   30 1
    34   16   31 1
    35   16   32 1
@<TRIPOS>MOLECULE
ZINC03716177
   33    35     0     0     0
SMALL
USER_CHARGES
1-(2-naphthyl)piperazine
@<TRIPOS>ATOM
      1 C1         -0.0126    1.0758    0.0080 C.ar      1 <0>        -0.1119
      2 C2         -1.2348    1.7455    0.0175 C.ar      1 <0>        -0.0997
      3 C3         -1.2880    3.1053    0.0310 C.ar      1 <0>        -0.1149
      4 C4         -0.0946    3.8484    0.0236 C.ar      1 <0>        -0.0318
      5 C5         -0.1122    5.2526    0.0308 C.ar      1 <0>        -0.1143
      6 C6          1.0780    5.9460    0.0227 C.ar      1 <0>         0.0845
      7 C7          2.3015    5.2649    0.0079 C.ar      1 <0>        -0.1631
      8 C8          2.3444    3.9066    0.0002 C.ar      1 <0>        -0.0683
      9 C9          1.1485    3.1673    0.0081 C.ar      1 <0>        -0.0637
     10 C10         1.1628    1.7621    0.0004 C.ar      1 <0>        -0.1017
     11 N1          1.0644    7.3421    0.0298 N.pl3     1 <0>        -0.4868
     12 C11         0.3072    7.8555    1.1799 C.3       1 <0>         0.0231
     13 C12         0.2487    9.3832    1.1078 C.3       1 <0>         0.0009
     14 C13         2.3726    9.4098   -0.0529 C.3       1 <0>         0.0010
     15 C14         2.4311    7.8821    0.0192 C.3       1 <0>         0.0188
     16 H1          0.0021   -0.0041    0.0020 H         1 <0>         0.1295
     17 H2         -2.1530    1.1770    0.0188 H         1 <0>         0.1295
     18 H3         -2.2422    3.6111    0.0429 H         1 <0>         0.1298
     19 H4         -1.0519    5.7849    0.0430 H         1 <0>         0.1314
     20 H5          3.2237    5.8268    0.0024 H         1 <0>         0.1274
     21 H6          3.2959    3.3957   -0.0113 H         1 <0>         0.1341
     22 H7          2.1021    1.2291   -0.0118 H         1 <0>         0.1315
     23 H8         -0.7049    7.4514    1.1587 H         1 <0>         0.1276
     24 H9          0.8003    7.5537    2.1040 H         1 <0>         0.0697
     25 H10        -0.2876    9.7679    1.9753 H         1 <0>         0.1412
     26 H11        -0.2685    9.6847    0.1970 H         1 <0>         0.1406
     27 H12         3.3847    9.8139   -0.0316 H         1 <0>         0.1413
     28 H13         1.8798    9.7116   -0.9771 H         1 <0>         0.1404
     29 H14         2.9483    7.5806    0.9301 H         1 <0>         0.0716
     30 H15         2.9675    7.4971   -0.8480 H         1 <0>         0.1296
     31 N2          1.6190    9.9295    1.1040 N.4       1 <0>        -0.5189
     32 H16         2.0960    9.6543    1.9705 H         1 <0>         0.4313
     33 H17         1.5754   10.9537    1.0477 H         1 <0>         0.4401
@<TRIPOS>BOND
     1    1   10 ar
     2    1    2 ar
     3    1   16 1
     4    2    3 ar
     5    2   17 1
     6    3    4 ar
     7    3   18 1
     8    4    9 ar
     9    4    5 ar
    10    5    6 ar
    11    5   19 1
    12    6    7 ar
    13    6   11 1
    14    7    8 ar
    15    7   20 1
    16    8    9 ar
    17    8   21 1
    18    9   10 ar
    19   10   22 1
    20   11   15 1
    21   11   12 1
    22   12   13 1
    23   12   23 1
    24   12   24 1
    25   13   25 1
    26   13   26 1
    27   13   31 1
    28   14   15 1
    29   14   27 1
    30   14   28 1
    31   14   31 1
    32   15   29 1
    33   15   30 1
    34   31   32 1
    35   31   33 1
@<TRIPOS>MOLECULE
ZINC04040206
   40    43     0     0     0
SMALL
USER_CHARGES

@<TRIPOS>ATOM
      1 C1         -0.0178    1.4648    0.0101 C.3       1 <0>        -0.0532
      2 N1          0.0021   -0.0041    0.0020 N.4       1 <0>        -0.3834
      3 C2         -1.3753   -0.5099    0.0000 C.3       1 <0>        -0.0016
      4 C3         -1.3581   -2.0373   -0.0957 C.3       1 <0>        -0.1068
      5 H1         -0.8539   -2.3391   -1.0137 H         1 <0>         0.1036
      6 C4         -0.6082   -2.6074    1.1112 C.3       1 <0>        -0.1270
      7 C5          0.8038   -2.0144    1.1539 C.3       1 <0>        -0.0365
      8 H2          1.3477   -2.3187    0.2596 H         1 <0>         0.1044
      9 C6          0.7127   -0.4885    1.1925 C.3       1 <0>         0.0390
     10 H3          0.1392   -0.2011    2.0737 H         1 <0>         0.1335
     11 C7          2.0789    0.2088    1.2715 C.3       1 <0>        -0.0491
     12 C8          2.8167   -0.3473    2.4626 C.2       1 <0>        -0.2002
     13 C9          3.7661    0.0841    3.2785 C.2       1 <0>         0.0912
     14 N2          4.0598   -0.8834    4.2279 N.pl3     1 <0>        -0.5884
     15 H4          4.7237   -0.7880    4.9287 H         1 <0>         0.4242
     16 C10         3.2835   -1.9862    4.0371 C.ar      1 <0>         0.1153
     17 C11         2.4836   -1.6942    2.9263 C.ar      1 <0>        -0.1359
     18 C12         1.5239   -2.5229    2.3659 C.ar      1 <0>        -0.0486
     19 C13         1.3751   -3.7202    2.9917 C.ar      1 <0>        -0.1188
     20 C14         2.1424   -4.0293    4.1139 C.ar      1 <0>        -0.0965
     21 C15         3.1121   -3.2323    4.6376 C.ar      1 <0>        -0.1039
     22 C16        -2.7940   -2.5654   -0.1034 C.3       1 <0>         0.0813
     23 O1         -3.4588   -2.1205   -1.2875 O.3       1 <0>        -0.5784
     24 H5          1.0047    1.8421    0.0024 H         1 <0>         0.1281
     25 H6         -0.5450    1.8259   -0.8730 H         1 <0>         0.1266
     26 H7         -0.5280    1.8163    0.9069 H         1 <0>         0.1225
     27 H8         -1.8741   -0.2092    0.9214 H         1 <0>         0.1274
     28 H9         -1.9122   -0.0984   -0.8547 H         1 <0>         0.1401
     29 H10        -1.1400   -2.3474    2.0264 H         1 <0>         0.0886
     30 H11        -0.5450   -3.6919    1.0215 H         1 <0>         0.1018
     31 H12         2.6463    0.0122    0.3618 H         1 <0>         0.0929
     32 H13         1.9380    1.2828    1.3938 H         1 <0>         0.0992
     33 H14         4.2436    1.0506    3.2138 H         1 <0>         0.1741
     34 H15         0.6580   -4.4360    2.6179 H         1 <0>         0.1252
     35 H16         1.9903   -4.9914    4.5805 H         1 <0>         0.1261
     36 H17         3.6909   -3.5294    5.4997 H         1 <0>         0.1364
     37 H18        -2.7805   -3.6551   -0.0819 H         1 <0>         0.0681
     38 H19        -3.3235   -2.1913    0.7729 H         1 <0>         0.0583
     39 H20        -4.3759   -2.4188   -1.3594 H         1 <0>         0.3976
     40 H21         0.4776   -0.3280   -0.8269 H         1 <0>         0.4230
@<TRIPOS>BOND
     1    1    2 1
     2    1   24 1
     3    1   25 1
     4    1   26 1
     5    2    9 1
     6    2    3 1
     7    2   40 1
     8    3    4 1
     9    3   27 1
    10    3   28 1
    11    4    5 1
    12    4    6 1
    13    4   22 1
    14    6    7 1
    15    6   29 1
    16    6   30 1
    17    7    8 1
    18    7   18 1
    19    7    9 1
    20    9   10 1
    21    9   11 1
    22   11   12 1
    23   11   31 1
    24   11   32 1
    25   12   17 1
    26   12   13 2
    27   13   14 1
    28   13   33 1
    29   14   15 1
    30   14   16 1
    31   16   21 ar
    32   16   17 ar
    33   17   18 ar
    34   18   19 ar
    35   19   20 ar
    36   19   34 1
    37   20   21 ar
    38   20   35 1
    39   21   36 1
    40   22   23 1
    41   22   37 1
    42   22   38 1
    43   23   39 1
@<TRIPOS>MOLECULE
ZINC03778441
   61    63     0     0     0
SMALL
USER_CHARGES
diethylsulfamoylamino-hydroxy-propyl-BLAH
@<TRIPOS>ATOM
      1 C1         -2.0685    7.1638    0.7922 C.3       1 <0>        -0.1551
      2 C2         -1.8026    5.6616    0.9081 C.3       1 <0>        -0.1549
      3 C3         -1.1393    5.1605   -0.3764 C.3       1 <0>        -0.0121
      4 C4         -0.3471    3.2955    0.9446 C.3       1 <0>        -0.0295
      5 C5         -0.3749    1.7671    1.0422 C.3       1 <0>         0.1369
      6 H1          0.0903    1.4532    1.9766 H         1 <0>         0.1305
      7 C6          0.4035    1.1863   -0.1387 C.3       1 <0>        -0.1381
      8 C7         -0.2182    1.6622   -1.4560 C.3       1 <0>        -0.1001
      9 H2         -1.2246    1.2570   -1.5610 H         1 <0>         0.0995
     10 C8         -0.2642    3.1940   -1.4868 C.3       1 <0>         0.0372
     11 H3          0.7486    3.5960   -1.5142 H         1 <0>         0.1504
     12 C9         -1.0337    3.6298   -2.7371 C.3       1 <0>        -0.0983
     13 C10        -0.5007    2.9491   -3.9676 C.ar      1 <0>        -0.0754
     14 C11        -0.8184    3.4998   -5.2033 C.ar      1 <0>        -0.1195
     15 C12        -0.3663    2.9186   -6.3699 C.ar      1 <0>        -0.0934
     16 C13         0.4092    1.7765   -6.3127 C.ar      1 <0>        -0.1322
     17 C14         0.7302    1.2256   -5.0841 C.ar      1 <0>         0.1143
     18 C15         0.2766    1.8161   -3.9055 C.ar      1 <0>        -0.1095
     19 C16         0.6765    1.1819   -2.6021 C.3       1 <0>        -0.0627
     20 O1          1.4929    0.1023   -5.0263 O.3       1 <0>        -0.4941
     21 N1         -1.7610    1.2952    0.9969 N.pl3     1 <0>        -1.1398
     22 S1         -2.5673    0.9583    2.4036 S.o2      1 <0>         2.7747
     23 O2         -2.3657    2.0712    3.2639 O.2       1 <0>        -0.9651
     24 O3         -3.8627    0.5080    2.0314 O.2       1 <0>        -0.9588
     25 N2         -1.8031   -0.3301    3.1095 N.pl3     1 <0>        -0.9984
     26 C17        -0.7862   -0.1041    4.1396 C.3       1 <0>         0.1173
     27 C18        -1.4325   -0.1971    5.5233 C.3       1 <0>        -0.1777
     28 C19        -2.1439   -1.6960    2.7038 C.3       1 <0>         0.1060
     29 C20        -1.1326   -2.1871    1.6660 C.3       1 <0>        -0.1734
     30 H4         -1.1254    7.6892    0.6414 H         1 <0>         0.0674
     31 H5         -2.7285    7.3517   -0.0547 H         1 <0>         0.0662
     32 H6         -2.5411    7.5208    1.7072 H         1 <0>         0.0781
     33 H7         -2.7457    5.1363    1.0588 H         1 <0>         0.0845
     34 H8         -1.1427    5.4737    1.7550 H         1 <0>         0.0914
     35 H9         -0.1588    5.6244   -0.4838 H         1 <0>         0.1353
     36 H10        -1.7610    5.4225   -1.2325 H         1 <0>         0.1302
     37 H11         0.6853    3.6448    0.9583 H         1 <0>         0.1472
     38 H12        -0.8895    3.7267    1.7860 H         1 <0>         0.1468
     39 H13         0.3691    0.0977   -0.0947 H         1 <0>         0.1064
     40 H14         1.4405    1.5181   -0.0871 H         1 <0>         0.1016
     41 H15        -2.0866    3.3753   -2.6156 H         1 <0>         0.0954
     42 H16        -0.9394    4.7092   -2.8566 H         1 <0>         0.1026
     43 H17        -1.4257    4.3916   -5.2509 H         1 <0>         0.1288
     44 H18        -0.6185    3.3547   -7.3252 H         1 <0>         0.1357
     45 H19         0.7631    1.3153   -7.2229 H         1 <0>         0.1369
     46 H20         1.7116    1.4422   -2.3806 H         1 <0>         0.0927
     47 H21         0.5927    0.0988   -2.6911 H         1 <0>         0.0955
     48 H22         0.9840   -0.7198   -5.0415 H         1 <0>         0.3951
     49 H23        -2.2065    1.1801    0.1430 H         1 <0>         0.4161
     50 H24        -0.0057   -0.8598    4.0516 H         1 <0>         0.0857
     51 H25        -0.3498    0.8860    4.0082 H         1 <0>         0.0790
     52 H26        -1.8689   -1.1872    5.6546 H         1 <0>         0.0642
     53 H27        -0.6759   -0.0289    6.2897 H         1 <0>         0.0745
     54 H28        -2.2130    0.5587    5.6112 H         1 <0>         0.0616
     55 H29        -2.1178   -2.3509    3.5748 H         1 <0>         0.0904
     56 H30        -3.1439   -1.7075    2.2704 H         1 <0>         0.0928
     57 H31        -1.0951   -1.4838    0.8341 H         1 <0>         0.0526
     58 H32        -0.1467   -2.2595    2.1253 H         1 <0>         0.0632
     59 H33        -1.4355   -3.1678    1.2993 H         1 <0>         0.0744
     60 N3         -1.0209    3.6917   -0.3126 N.4       1 <0>        -0.3919
     61 H34        -1.9618    3.2810   -0.3273 H         1 <0>         0.4208
@<TRIPOS>BOND
     1    1    2 1
     2    1   30 1
     3    1   31 1
     4    1   32 1
     5    2    3 1
     6    2   33 1
     7    2   34 1
     8    3   35 1
     9    3   36 1
    10    3   60 1
    11    4    5 1
    12    4   37 1
    13    4   38 1
    14    4   60 1
    15    5    6 1
    16    5    7 1
    17    5   21 1
    18    7    8 1
    19    7   39 1
    20    7   40 1
    21    8    9 1
    22    8   19 1
    23    8   10 1
    24   10   11 1
    25   10   12 1
    26   10   60 1
    27   12   13 1
    28   12   41 1
    29   12   42 1
    30   13   18 ar
    31   13   14 ar
    32   14   15 ar
    33   14   43 1
    34   15   16 ar
    35   15   44 1
    36   16   17 ar
    37   16   45 1
    38   17   18 ar
    39   17   20 1
    40   18   19 1
    41   19   46 1
    42   19   47 1
    43   20   48 1
    44   21   22 1
    45   21   49 1
    46   22   23 2
    47   22   24 2
    48   22   25 1
    49   25   26 1
    50   25   28 1
    51   26   27 1
    52   26   50 1
    53   26   51 1
    54   27   52 1
    55   27   53 1
    56   27   54 1
    57   28   29 1
    58   28   55 1
    59   28   56 1
    60   29   57 1
    61   29   58 1
    62   29   59 1
    63   60   61 1
@<TRIPOS>MOLECULE
ZINC04721990
   25    26     0     0     0
SMALL
USER_CHARGES
(2R)-tetralin-2-amine
@<TRIPOS>ATOM
      1 C1         -0.1874    4.2686    0.0344 C.ar      1 <0>        -0.1038
      2 C2         -1.3424    3.5086    0.0376 C.ar      1 <0>        -0.1115
      3 C3         -1.2563    2.1320    0.0315 C.ar      1 <0>        -0.1108
      4 C4         -0.0184    1.5021    0.0103 C.ar      1 <0>        -0.0956
      5 C5          1.1315    2.2589    0.0034 C.ar      1 <0>        -0.0853
      6 C6          1.0428    3.6451    0.0178 C.ar      1 <0>        -0.1141
      7 C7          2.5066    1.6443   -0.0221 C.3       1 <0>        -0.0787
      8 C8          2.4464    0.1758    0.3934 C.3       1 <0>        -0.1405
      9 C9          1.3681   -0.5202   -0.4455 C.3       1 <0>         0.0306
     10 H1          1.5191   -0.2921   -1.5007 H         1 <0>         0.1477
     11 C10         0.0021   -0.0041    0.0020 C.3       1 <0>        -0.0951
     12 H2         -0.2483    5.3469    0.0453 H         1 <0>         0.1313
     13 H3         -2.3086    3.9911    0.0487 H         1 <0>         0.1310
     14 H4         -2.1589    1.5389    0.0381 H         1 <0>         0.1259
     15 H5          1.9445    4.2395    0.0155 H         1 <0>         0.1286
     16 H6          3.1554    2.1863    0.6659 H         1 <0>         0.0973
     17 H7          2.9128    1.7160   -1.0310 H         1 <0>         0.0891
     18 H8          2.1923    0.1036    1.4509 H         1 <0>         0.0929
     19 H9          3.4124   -0.2963    0.2144 H         1 <0>         0.0940
     20 H10        -0.2099   -0.3719    1.0059 H         1 <0>         0.0961
     21 H11        -0.7621   -0.3701   -0.6836 H         1 <0>         0.0990
     22 H12         0.7269   -2.4497   -0.7683 H         1 <0>         0.4390
     23 H13         2.3578   -2.3253   -0.4670 H         1 <0>         0.4397
     24 N1          1.4361   -1.9737   -0.2131 N.4       1 <0>        -0.6444
     25 H14         1.2669   -2.1647    0.7814 H         1 <0>         0.4377
@<TRIPOS>BOND
     1    1    6 ar
     2    1    2 ar
     3    1   12 1
     4    2    3 ar
     5    2   13 1
     6    3    4 ar
     7    3   14 1
     8    4   11 1
     9    4    5 ar
    10    5    6 ar
    11    5    7 1
    12    6   15 1
    13    7    8 1
    14    7   16 1
    15    7   17 1
    16    8    9 1
    17    8   18 1
    18    8   19 1
    19    9   10 1
    20    9   11 1
    21    9   24 1
    22   11   20 1
    23   11   21 1
    24   22   24 1
    25   23   24 1
    26   24   25 1
@<TRIPOS>MOLECULE
ZINC05934789
   25    26     0     0     0
SMALL
USER_CHARGES
(2S)-tetralin-2-amine
@<TRIPOS>ATOM
      1 C1         -1.2195    1.7435    0.0173 C.ar      1 <0>        -0.1038
      2 C2         -1.2393    3.1259    0.0305 C.ar      1 <0>        -0.1114
      3 C3         -0.0521    3.8279    0.0260 C.ar      1 <0>        -0.1107
      4 C4          1.1645    3.1574    0.0131 C.ar      1 <0>        -0.0953
      5 C5          1.1842    1.7810    0.0003 C.ar      1 <0>        -0.0854
      6 C6         -0.0126    1.0758    0.0080 C.ar      1 <0>        -0.1141
      7 C7          2.4650    0.9888   -0.0306 C.3       1 <0>        -0.0787
      8 C8          3.6459    1.8599    0.3927 C.3       1 <0>        -0.1403
      9 C9          3.6175    3.1497   -0.4359 C.3       1 <0>         0.0303
     10 H1          3.5154    2.9047   -1.4930 H         1 <0>         0.1443
     11 C10         2.4222    3.9863    0.0162 C.3       1 <0>        -0.0920
     12 H2         -2.1459    1.1882    0.0186 H         1 <0>         0.1313
     13 H3         -2.1812    3.6543    0.0403 H         1 <0>         0.1311
     14 H4         -0.0683    4.9078    0.0323 H         1 <0>         0.1260
     15 H5          0.0021   -0.0041    0.0020 H         1 <0>         0.1286
     16 H6          2.3805    0.1422    0.6506 H         1 <0>         0.0972
     17 H7          2.6350    0.6198   -1.0421 H         1 <0>         0.0891
     18 H8          4.5791    1.3270    0.2103 H         1 <0>         0.0937
     19 H9          3.5621    2.1023    1.4521 H         1 <0>         0.0932
     20 H10         2.2978    4.8309   -0.6615 H         1 <0>         0.0987
     21 H11         2.6052    4.3582    1.0243 H         1 <0>         0.0962
     22 H12         4.8537    4.7668   -0.7444 H         1 <0>         0.4389
     23 H13         5.0108    4.0789    0.7615 H         1 <0>         0.4358
     24 N1          4.8761    3.8879   -0.2300 N.4       1 <0>        -0.6445
     25 H14         5.6603    3.3198   -0.5713 H         1 <0>         0.4422
@<TRIPOS>BOND
     1    1    6 ar
     2    1    2 ar
     3    1   12 1
     4    2    3 ar
     5    2   13 1
     6    3    4 ar
     7    3   14 1
     8    4   11 1
     9    4    5 ar
    10    5    6 ar
    11    5    7 1
    12    6   15 1
    13    7    8 1
    14    7   16 1
    15    7   17 1
    16    8    9 1
    17    8   18 1
    18    8   19 1
    19    9   10 1
    20    9   11 1
    21    9   24 1
    22   11   20 1
    23   11   21 1
    24   22   24 1
    25   23   24 1
    26   24   25 1
@<TRIPOS>MOLECULE
ZINC26150491
   41    41     0     0     0
SMALL
USER_CHARGES
(2S)-1-(2,5-dimethoxyphenyl)-N-propyl-propan-2-amine
@<TRIPOS>ATOM
      1 C1         -5.3109    2.0205    3.0027 C.3       1 <0>        -0.1581
      2 C2         -4.3589    1.1501    2.1799 C.3       1 <0>        -0.1508
      3 C3         -2.9798    1.8106    2.1283 C.3       1 <0>        -0.0049
      4 N1         -2.0659    0.9749    1.3382 N.4       1 <0>        -0.5443
      5 C4         -0.7288    1.5792    1.2668 C.3       1 <0>         0.0390
      6 H1         -0.8645    2.6702    1.2312 H         1 <0>         0.1340
      7 C5          0.0786    1.1786    2.5031 C.3       1 <0>        -0.1812
      8 C6         -0.0127    1.0858    0.0080 C.3       1 <0>        -0.0902
      9 C7         -0.7416    1.5850   -1.2129 C.ar      1 <0>        -0.1196
     10 C8         -1.6768    0.7813   -1.8358 C.ar      1 <0>        -0.1422
     11 C9         -2.3509    1.2426   -2.9565 C.ar      1 <0>         0.1087
     12 C10        -2.0783    2.5067   -3.4585 C.ar      1 <0>        -0.1552
     13 C11        -1.1396    3.3081   -2.8388 C.ar      1 <0>        -0.1533
     14 C12        -0.4694    2.8489   -1.7144 C.ar      1 <0>         0.1054
     15 O1          0.4548    3.6380   -1.1043 O.3       1 <0>        -0.3156
     16 C13         0.6847    4.9279   -1.6748 C.3       1 <0>         0.0193
     17 O2         -3.2752    0.4535   -3.5666 O.3       1 <0>        -0.3140
     18 C14        -3.9268    0.9902   -4.7196 C.3       1 <0>         0.0194
     19 H2         -6.3024    1.5455    3.0397 H         1 <0>         0.0774
     20 H3         -5.3968    3.0127    2.5355 H         1 <0>         0.0660
     21 H4         -4.9179    2.1290    4.0244 H         1 <0>         0.0672
     22 H5         -4.2730    0.1579    2.6471 H         1 <0>         0.0867
     23 H6         -4.7519    1.0415    1.1582 H         1 <0>         0.0846
     24 H7         -3.0657    2.8028    1.6612 H         1 <0>         0.1248
     25 H8         -2.5867    1.9191    3.1499 H         1 <0>         0.1285
     26 H9         -1.9801   -0.0173    1.8053 H         1 <0>         0.4439
     27 H10         1.0798    1.6311    2.4496 H         1 <0>         0.1069
     28 H11         0.1728    0.0833    2.5404 H         1 <0>         0.0839
     29 H12        -0.4363    1.5334    3.4081 H         1 <0>         0.0804
     30 H13         1.0193    1.4666    0.0002 H         1 <0>         0.1255
     31 H14         0.0023   -0.0141    0.0019 H         1 <0>         0.0998
     32 H15        -1.8855   -0.2047   -1.4479 H         1 <0>         0.1409
     33 H16        -2.5999    2.8640   -4.3341 H         1 <0>         0.1403
     34 H17        -0.9272    4.2922   -3.2298 H         1 <0>         0.1405
     35 H18         1.4498    5.4573   -1.0879 H         1 <0>         0.1100
     36 H19        -0.2511    5.5059   -1.6635 H         1 <0>         0.0598
     37 H20         1.0324    4.8133   -2.7121 H         1 <0>         0.0624
     38 H21        -4.6442    0.2540   -5.1113 H         1 <0>         0.1106
     39 H22        -3.1771    1.2182   -5.4916 H         1 <0>         0.0618
     40 H23        -4.4607    1.9114   -4.4435 H         1 <0>         0.0601
     41 H24        -2.4589    0.8664    0.3166 H         1 <0>         0.4415
@<TRIPOS>BOND
     1    1    2 1
     2    1   19 1
     3    1   20 1
     4    1   21 1
     5    2    3 1
     6    2   22 1
     7    2   23 1
     8    3    4 1
     9    3   24 1
    10    3   25 1
    11    4    5 1
    12    4   26 1
    13    4   41 1
    14    5    6 1
    15    5    7 1
    16    5    8 1
    17    7   27 1
    18    7   28 1
    19    7   29 1
    20    8    9 1
    21    8   30 1
    22    8   31 1
    23    9   14 ar
    24    9   10 ar
    25   10   11 ar
    26   10   32 1
    27   11   12 ar
    28   11   17 1
    29   12   13 ar
    30   12   33 1
    31   13   14 ar
    32   13   34 1
    33   14   15 1
    34   15   16 1
    35   16   35 1
    36   16   36 1
    37   16   37 1
    38   17   18 1
    39   18   38 1
    40   18   39 1
    41   18   40 1
@<TRIPOS>MOLECULE
ZINC26150498
   41    41     0     0     0
SMALL
USER_CHARGES
(2R)-1-(2,5-dimethoxyphenyl)-N-propyl-propan-2-amine
@<TRIPOS>ATOM
      1 C1          5.1706    5.0690   -5.5261 C.3       1 <0>        -0.1583
      2 C2          5.2331    5.1421   -3.9992 C.3       1 <0>        -0.1486
      3 C3          3.8783    5.5990   -3.4546 C.3       1 <0>        -0.0070
      4 N1          3.9383    5.6691   -1.9885 N.4       1 <0>        -0.5425
      5 C4          2.6520    6.1055   -1.4292 C.3       1 <0>         0.0391
      6 H1          1.8593    5.6827   -2.0639 H         1 <0>         0.1315
      7 C5          2.5860    7.6341   -1.4341 C.3       1 <0>        -0.1825
      8 C6          2.5203    5.5940    0.0067 C.3       1 <0>        -0.0938
      9 C7          2.4618    4.0881    0.0001 C.ar      1 <0>        -0.1039
     10 C8          1.2395    3.4443    0.0030 C.ar      1 <0>        -0.1065
     11 C9          1.1858    2.0586    0.0018 C.ar      1 <0>         0.1189
     12 C10         2.3593    1.3190   -0.0134 C.ar      1 <0>        -0.1624
     13 C11         3.5811    1.9626   -0.0215 C.ar      1 <0>        -0.1439
     14 C12         3.6350    3.3488   -0.0146 C.ar      1 <0>         0.0502
     15 O1          4.8380    3.9825   -0.0226 O.3       1 <0>        -0.3383
     16 C13         6.0054    3.1584   -0.0382 C.3       1 <0>         0.0136
     17 O2         -0.0173    1.4248    0.0099 O.3       1 <0>        -0.3102
     18 C14         0.0021   -0.0041    0.0020 C.3       1 <0>         0.0189
     19 H2          6.1447    4.7405   -5.9176 H         1 <0>         0.0769
     20 H3          4.9288    6.0627   -5.9311 H         1 <0>         0.0679
     21 H4          4.3934    4.3512   -5.8273 H         1 <0>         0.0661
     22 H5          5.4749    4.1484   -3.5942 H         1 <0>         0.0806
     23 H6          6.0103    5.8598   -3.6980 H         1 <0>         0.0865
     24 H7          3.6366    6.5927   -3.8596 H         1 <0>         0.1273
     25 H8          3.1010    4.8813   -3.7559 H         1 <0>         0.1234
     26 H9          4.1800    4.6753   -1.5835 H         1 <0>         0.4413
     27 H10         1.6228    7.9608   -1.0153 H         1 <0>         0.1060
     28 H11         2.6806    8.0019   -2.4665 H         1 <0>         0.0808
     29 H12         3.4072    8.0385   -0.8241 H         1 <0>         0.0842
     30 H13         3.3891    5.9246    0.5948 H         1 <0>         0.1056
     31 H14         1.5996    5.9948    0.4557 H         1 <0>         0.1222
     32 H15         0.3259    4.0201    0.0104 H         1 <0>         0.1476
     33 H16         2.3174    0.2398   -0.0185 H         1 <0>         0.1418
     34 H17         4.4948    1.3868   -0.0337 H         1 <0>         0.1413
     35 H18         6.9030    3.7942   -0.0433 H         1 <0>         0.1144
     36 H19         5.9973    2.5282   -0.9398 H         1 <0>         0.0641
     37 H20         6.0144    2.5184    0.8564 H         1 <0>         0.0723
     38 H21        -1.0299   -0.3848    0.0098 H         1 <0>         0.1116
     39 H22         0.5342   -0.3685    0.8931 H         1 <0>         0.0618
     40 H23         0.5170   -0.3588   -0.9031 H         1 <0>         0.0605
     41 H24         4.7156    6.3868   -1.6872 H         1 <0>         0.4417
@<TRIPOS>BOND
     1    1    2 1
     2    1   19 1
     3    1   20 1
     4    1   21 1
     5    2    3 1
     6    2   22 1
     7    2   23 1
     8    3    4 1
     9    3   24 1
    10    3   25 1
    11    4    5 1
    12    4   26 1
    13    4   41 1
    14    5    6 1
    15    5    7 1
    16    5    8 1
    17    7   27 1
    18    7   28 1
    19    7   29 1
    20    8    9 1
    21    8   30 1
    22    8   31 1
    23    9   14 ar
    24    9   10 ar
    25   10   11 ar
    26   10   32 1
    27   11   12 ar
    28   11   17 1
    29   12   13 ar
    30   12   33 1
    31   13   14 ar
    32   13   34 1
    33   14   15 1
    34   15   16 1
    35   16   35 1
    36   16   36 1
    37   16   37 1
    38   17   18 1
    39   18   38 1
    40   18   39 1
    41   18   40 1
@<TRIPOS>MOLECULE
ZINC05765126
   35    35     0     0     0
SMALL
USER_CHARGES
1-(2,5-dimethoxy-4-methyl-phenyl)propan-2-amine
@<TRIPOS>ATOM
      1 C1         -2.8078    3.0062   -4.6789 C.3       1 <0>        -0.1187
      2 C2         -2.0793    2.5072   -3.4577 C.ar      1 <0>        -0.0609
      3 C3         -1.1396    3.3085   -2.8384 C.ar      1 <0>        -0.1567
      4 C4         -0.4734    2.8515   -1.7112 C.ar      1 <0>         0.0706
      5 C5         -0.7416    1.5850   -1.2129 C.ar      1 <0>        -0.1188
      6 C6         -1.6806    0.7838   -1.8323 C.ar      1 <0>        -0.1592
      7 C7         -2.3518    1.2435   -2.9559 C.ar      1 <0>         0.1109
      8 O1         -3.2767    0.4547   -3.5654 O.3       1 <0>        -0.3070
      9 C8         -3.5066   -0.8351   -2.9950 C.3       1 <0>         0.0235
     10 C9         -0.0127    1.0858    0.0080 C.3       1 <0>        -0.0885
     11 C10        -0.7288    1.5792    1.2668 C.3       1 <0>         0.0388
     12 H1         -1.7755    1.2768    1.2315 H         1 <0>         0.1373
     13 C11        -0.0638    0.9713    2.5033 C.3       1 <0>        -0.1846
     14 O2          0.4468    3.6428   -1.0978 O.3       1 <0>        -0.3434
     15 C12         0.6726    4.9348   -1.6650 C.3       1 <0>         0.0190
     16 H2         -3.7175    3.5231   -4.3734 H         1 <0>         0.0789
     17 H3         -2.1660    3.6946   -5.2288 H         1 <0>         0.0724
     18 H4         -3.0667    2.1619   -5.3178 H         1 <0>         0.0802
     19 H5         -0.9274    4.2927   -3.2292 H         1 <0>         0.1433
     20 H6         -1.8926   -0.2005   -1.4416 H         1 <0>         0.1426
     21 H7         -2.5794   -1.4082   -3.0069 H         1 <0>         0.0589
     22 H8         -3.8504   -0.7217   -1.9668 H         1 <0>         0.0567
     23 H9         -4.2653   -1.3594   -3.5760 H         1 <0>         0.1087
     24 H10         0.0021   -0.0041    0.0020 H         1 <0>         0.1175
     25 H11         1.0099    1.4631    0.0003 H         1 <0>         0.1029
     26 H12         0.9829    1.2737    2.5386 H         1 <0>         0.0834
     27 H13        -0.5739    1.3228    3.4001 H         1 <0>         0.0833
     28 H14        -0.1264   -0.1157    2.4522 H         1 <0>         0.1062
     29 H15         0.3165    3.3498    1.3694 H         1 <0>         0.4362
     30 H16        -1.1329    3.4713    0.5630 H         1 <0>         0.4332
     31 H17        -0.2569    5.5040   -1.6539 H         1 <0>         0.0623
     32 H18         1.4278    5.4610   -1.0811 H         1 <0>         0.1095
     33 H19         1.0192    4.8250   -2.6926 H         1 <0>         0.0671
     34 N1         -0.6564    3.0482    1.3577 N.4       1 <0>        -0.6413
     35 H20        -1.1129    3.3556    2.2245 H         1 <0>         0.4355
@<TRIPOS>BOND
     1    1    2 1
     2    1   16 1
     3    1   17 1
     4    1   18 1
     5    2    7 ar
     6    2    3 ar
     7    3    4 ar
     8    3   19 1
     9    4    5 ar
    10    4   14 1
    11    5    6 ar
    12    5   10 1
    13    6    7 ar
    14    6   20 1
    15    7    8 1
    16    8    9 1
    17    9   21 1
    18    9   22 1
    19    9   23 1
    20   10   11 1
    21   10   24 1
    22   10   25 1
    23   11   12 1
    24   11   13 1
    25   11   34 1
    26   13   26 1
    27   13   27 1
    28   13   28 1
    29   14   15 1
    30   15   31 1
    31   15   32 1
    32   15   33 1
    33   29   34 1
    34   30   34 1
    35   34   35 1
@<TRIPOS>MOLECULE
ZINC00077360
   29    30     0     0     0
SMALL
USER_CHARGES

@<TRIPOS>ATOM
      1 C1         -0.0173    1.4248    0.0099 C.3       1 <0>         0.0260
      2 O1          0.0021   -0.0041    0.0020 O.3       1 <0>        -0.3138
      3 C2         -1.2006   -0.6377    0.0101 C.ar      1 <0>         0.1564
      4 C3         -2.3754    0.1105    0.0196 C.ar      1 <0>        -0.2121
      5 C4         -3.5918   -0.5101    0.0282 C.ar      1 <0>        -0.0422
      6 C5         -3.6602   -1.9049    0.0271 C.ar      1 <0>        -0.1363
      7 C6         -2.4782   -2.6674    0.0171 C.ar      1 <0>         0.1371
      8 C7         -1.2477   -2.0189    0.0031 C.ar      1 <0>        -0.1690
      9 N1         -2.8498   -3.9933    0.0179 N.pl3     1 <0>        -0.5876
     10 H1         -2.2357   -4.7442    0.0122 H         1 <0>         0.4244
     11 C8         -4.2157   -4.0937    0.0281 C.2       1 <0>         0.0794
     12 C9         -4.7641   -2.8690    0.0340 C.2       1 <0>        -0.1982
     13 C10        -6.2360   -2.5461    0.0463 C.3       1 <0>        -0.0616
     14 C11        -6.7186   -2.3112   -1.3864 C.3       1 <0>        -0.0083
     15 N2         -8.1535   -1.9965   -1.3744 N.4       1 <0>        -0.6389
     16 H2          1.0053    1.8021    0.0021 H         1 <0>         0.1060
     17 H3         -0.5445    1.7859   -0.8732 H         1 <0>         0.0580
     18 H4         -0.5275    1.7763    0.9067 H         1 <0>         0.0588
     19 H5         -2.3239    1.1893    0.0205 H         1 <0>         0.1340
     20 H6         -4.4986    0.0763    0.0363 H         1 <0>         0.1226
     21 H7         -0.3327   -2.5925   -0.0087 H         1 <0>         0.1339
     22 H8         -4.7693   -5.0210    0.0309 H         1 <0>         0.1736
     23 H9         -6.7870   -3.3788    0.4834 H         1 <0>         0.0921
     24 H10        -6.4058   -1.6471    0.6389 H         1 <0>         0.0920
     25 H11        -6.1676   -1.4785   -1.8235 H         1 <0>         0.1334
     26 H12        -6.5488   -3.2102   -1.9790 H         1 <0>         0.1332
     27 H13        -8.6635   -2.7673   -0.9698 H         1 <0>         0.4346
     28 H14        -8.3106   -1.1643   -0.8259 H         1 <0>         0.4348
     29 H15        -8.4717   -1.8416   -2.3193 H         1 <0>         0.4378
@<TRIPOS>BOND
     1    1    2 1
     2    1   16 1
     3    1   17 1
     4    1   18 1
     5    2    3 1
     6    3    8 ar
     7    3    4 ar
     8    4    5 ar
     9    4   19 1
    10    5    6 ar
    11    5   20 1
    12    6   12 1
    13    6    7 ar
    14    7    8 ar
    15    7    9 1
    16    8   21 1
    17    9   10 1
    18    9   11 1
    19   11   12 2
    20   11   22 1
    21   12   13 1
    22   13   14 1
    23   13   23 1
    24   13   24 1
    25   14   15 1
    26   14   25 1
    27   14   26 1
    28   15   27 1
    29   15   28 1
    30   15   29 1
@<TRIPOS>MOLECULE
ZINC05734222
   29    30     0     0     0
SMALL
USER_CHARGES
2-(4-methoxy-1H-indol-3-yl)ethanamine
@<TRIPOS>ATOM
      1 C1         -0.0127    1.0858    0.0080 C.3       1 <0>         0.0231
      2 O1         -0.6816    1.5467    1.1837 O.3       1 <0>        -0.3249
      3 C2         -1.9747    1.1631    1.3482 C.ar      1 <0>         0.1656
      4 C3         -2.5883    0.3629    0.4036 C.ar      1 <0>        -0.2308
      5 C4         -3.9086   -0.0299    0.5696 C.ar      1 <0>        -0.0517
      6 C5         -4.6280    0.3694    1.6745 C.ar      1 <0>        -0.1608
      7 C6         -4.0317    1.1756    2.6397 C.ar      1 <0>         0.1330
      8 C7         -2.6925    1.5713    2.4789 C.ar      1 <0>        -0.1273
      9 C8         -2.3681    2.3913    3.6486 C.2       1 <0>        -0.1850
     10 C9         -3.4702    2.4375    4.4131 C.2       1 <0>         0.0740
     11 N1         -4.4777    1.7227    3.8220 N.pl3     1 <0>        -0.5870
     12 H1         -5.3695    1.6105    4.1866 H         1 <0>         0.4256
     13 C10        -1.0473    3.0563    3.9388 C.3       1 <0>        -0.0617
     14 C11        -0.9906    4.4098    3.2277 C.3       1 <0>        -0.0009
     15 H2          0.3589    5.9545    3.0517 H         1 <0>         0.4386
     16 H3          0.4451    5.1495    4.5044 H         1 <0>         0.4353
     17 H4          0.0021   -0.0041    0.0020 H         1 <0>         0.0614
     18 H5          1.0099    1.4631    0.0003 H         1 <0>         0.1012
     19 H6         -0.5399    1.4469   -0.8751 H         1 <0>         0.0597
     20 H7         -2.0376    0.0420   -0.4683 H         1 <0>         0.1328
     21 H8         -4.3776   -0.6551   -0.1757 H         1 <0>         0.1348
     22 H9         -5.6549    0.0564    1.7919 H         1 <0>         0.1279
     23 H10        -3.5530    2.9670    5.3507 H         1 <0>         0.1746
     24 H11        -0.9442    3.2059    5.0136 H         1 <0>         0.0895
     25 H12        -0.2354    2.4234    3.5806 H         1 <0>         0.0967
     26 H13        -1.0937    4.2602    2.1530 H         1 <0>         0.1318
     27 H14        -1.8025    5.0427    3.5860 H         1 <0>         0.1318
     28 N2          0.3127    5.0411    3.5002 N.4       1 <0>        -0.6469
     29 H15         1.0609    4.4458    3.1260 H         1 <0>         0.4395
@<TRIPOS>BOND
     1    1    2 1
     2    1   17 1
     3    1   18 1
     4    1   19 1
     5    2    3 1
     6    3    8 ar
     7    3    4 ar
     8    4    5 ar
     9    4   20 1
    10    5    6 ar
    11    5   21 1
    12    6    7 ar
    13    6   22 1
    14    7   11 1
    15    7    8 ar
    16    8    9 1
    17    9   10 2
    18    9   13 1
    19   10   11 1
    20   10   23 1
    21   11   12 1
    22   13   14 1
    23   13   24 1
    24   13   25 1
    25   14   26 1
    26   14   27 1
    27   14   28 1
    28   15   28 1
    29   16   28 1
    30   28   29 1
@<TRIPOS>MOLECULE
ZINC07274819
   35    36     0     0     0
SMALL
USER_CHARGES
1-(4-bromo-2,5-dimethoxy-phenyl)piperazine
@<TRIPOS>ATOM
      1 C1          0.0322    1.1512    0.0088 C.3       1 <0>         0.0244
      2 O1         -0.6517    1.5901    1.1842 O.3       1 <0>        -0.2955
      3 C2         -0.1334    1.2038    2.3807 C.ar      1 <0>         0.1481
      4 C3          1.0092    0.4190    2.4198 C.ar      1 <0>        -0.2128
      5 C4          1.5370    0.0256    3.6403 C.ar      1 <0>         0.1063
      6 C5          0.9176    0.4200    4.8242 C.ar      1 <0>         0.1003
      7 C6         -0.2229    1.2035    4.7800 C.ar      1 <0>        -0.1205
      8 C7         -0.7448    1.5997    3.5613 C.ar      1 <0>        -0.0959
      9 Br1        -2.2981    2.6768    3.5049 Br        1 <0>        -0.0115
     10 O2          1.4332    0.0350    6.0234 O.3       1 <0>        -0.3074
     11 C8          0.7464    0.4759    7.1965 C.3       1 <0>         0.0195
     12 N1          2.6902   -0.7670    3.6826 N.pl3     1 <0>        -0.4756
     13 C9          3.0380   -1.2627    2.3436 C.3       1 <0>         0.0171
     14 C10         4.2539   -2.1867    2.4445 C.3       1 <0>         0.0025
     15 C11         5.0302   -0.9541    4.3775 C.3       1 <0>         0.0024
     16 C12         3.8143   -0.0301    4.2766 C.3       1 <0>         0.0250
     17 H1          0.0479    0.0616   -0.0169 H         1 <0>         0.0575
     18 H2          1.0545    1.5291    0.0208 H         1 <0>         0.0548
     19 H3         -0.4842    1.5280   -0.8741 H         1 <0>         0.1111
     20 H4          1.4873    0.1143    1.5006 H         1 <0>         0.1471
     21 H5         -0.7034    1.5091    5.6977 H         1 <0>         0.1536
     22 H6          1.2604    0.1002    8.0812 H         1 <0>         0.1079
     23 H7          0.7311    1.5656    7.2205 H         1 <0>         0.0601
     24 H8         -0.2760    0.0984    7.1824 H         1 <0>         0.0621
     25 H9          2.1945   -1.8155    1.9300 H         1 <0>         0.1284
     26 H10         3.2746   -0.4200    1.6940 H         1 <0>         0.0696
     27 H11         4.5314   -2.5326    1.4488 H         1 <0>         0.1417
     28 H12         4.0085   -3.0434    3.0721 H         1 <0>         0.1417
     29 H13         5.8737   -0.4013    4.7911 H         1 <0>         0.1414
     30 H14         4.7938   -1.7966    5.0274 H         1 <0>         0.1421
     31 H15         4.0597    0.8267    3.6490 H         1 <0>         0.0669
     32 H16         3.5366    0.3162    5.2722 H         1 <0>         0.1355
     33 N2          5.3867   -1.4483    3.0341 N.4       1 <0>        -0.5193
     34 H17         5.6223   -0.6512    2.4312 H         1 <0>         0.4307
     35 H18         6.1978   -2.0737    3.1072 H         1 <0>         0.4404
@<TRIPOS>BOND
     1    1    2 1
     2    1   17 1
     3    1   18 1
     4    1   19 1
     5    2    3 1
     6    3    8 ar
     7    3    4 ar
     8    4    5 ar
     9    4   20 1
    10    5    6 ar
    11    5   12 1
    12    6    7 ar
    13    6   10 1
    14    7    8 ar
    15    7   21 1
    16    8    9 1
    17   10   11 1
    18   11   22 1
    19   11   23 1
    20   11   24 1
    21   12   16 1
    22   12   13 1
    23   13   14 1
    24   13   25 1
    25   13   26 1
    26   14   27 1
    27   14   28 1
    28   14   33 1
    29   15   16 1
    30   15   29 1
    31   15   30 1
    32   15   33 1
    33   16   31 1
    34   16   32 1
    35   33   34 1
    36   33   35 1
@<TRIPOS>MOLECULE
ZINC06019879
   43    46     0     0     0
SMALL
USER_CHARGES
(4-methylsulfanylphenyl)BLAH
@<TRIPOS>ATOM
      1 C1          0.0021   -0.0041    0.0020 C.3       1 <0>        -0.1514
      2 H1          0.5293   -0.3651    0.8851 H         1 <0>         0.0868
      3 H2         -1.0205   -0.3814    0.0098 H         1 <0>         0.1179
      4 H3          0.5123   -0.3556   -0.8948 H         1 <0>         0.0862
      5 S1         -0.0225    1.8097    0.0120 S.3       1 <0>        -0.0886
      6 C2          1.6811    2.2592   -0.0019 C.ar      1 <0>        -0.0705
      7 C3          2.6614    1.2741   -0.0108 C.ar      1 <0>        -0.1215
      8 C4          3.9954    1.6302   -0.0274 C.ar      1 <0>        -0.1067
      9 C5          4.3567    2.9652   -0.0232 C.ar      1 <0>        -0.1112
     10 C6          3.3840    3.9482   -0.0091 C.ar      1 <0>        -0.0775
     11 C7          2.0479    3.5997    0.0018 C.ar      1 <0>        -0.0840
     12 C8          5.8138    3.3496   -0.0346 C.3       1 <0>        -0.0262
     13 H4          5.8936    4.4366   -0.0503 H         1 <0>         0.1343
     14 C9          6.4700    2.7824   -1.2999 C.3       1 <0>         0.0149
     15 C10         7.1618    0.5464   -2.1909 C.3       1 <0>        -0.0051
     16 C11         7.7796   -0.7062   -1.5101 C.3       1 <0>        -0.1519
     17 C12         8.2096   -0.2222   -0.0999 C.3       1 <0>        -0.1449
     18 C13         7.8811    1.2718   -0.1069 C.3       1 <0>         0.0789
     19 H5          8.7316    1.8358   -0.4899 H         1 <0>         0.1481
     20 C14         7.4373    1.8390    1.2019 C.ar      1 <0>        -0.1312
     21 C15         6.4681    2.8294    1.2189 C.ar      1 <0>        -0.0827
     22 C16         6.0747    3.3670    2.4359 C.ar      1 <0>        -0.0946
     23 C17         6.6311    2.9168    3.6155 C.ar      1 <0>        -0.0909
     24 C18         7.5886    1.9202    3.5931 C.ar      1 <0>        -0.1033
     25 C19         7.9897    1.3843    2.3843 C.ar      1 <0>        -0.0865
     26 H6          2.3800    0.2314   -0.0092 H         1 <0>         0.1316
     27 H7          4.7577    0.8652   -0.0388 H         1 <0>         0.1008
     28 H8          3.6697    4.9897   -0.0062 H         1 <0>         0.1388
     29 H9          1.2888    4.3679    0.0129 H         1 <0>         0.1401
     30 H10         5.7932    2.8881   -2.1478 H         1 <0>         0.1434
     31 H11         7.4031    3.3086   -1.5014 H         1 <0>         0.1357
     32 H12         6.3043    0.2676   -2.8033 H         1 <0>         0.1393
     33 H13         7.9096    1.0673   -2.7888 H         1 <0>         0.1372
     34 H14         7.0360   -1.4990   -1.4286 H         1 <0>         0.1006
     35 H15         8.6463   -1.0545   -2.0720 H         1 <0>         0.1145
     36 H16         7.6365   -0.7360    0.6718 H         1 <0>         0.1008
     37 H17         9.2781   -0.3780    0.0485 H         1 <0>         0.1172
     38 H18         5.3260    4.1451    2.4601 H         1 <0>         0.1334
     39 H19         6.3180    3.3431    4.5571 H         1 <0>         0.1369
     40 H20         8.0214    1.5625    4.5156 H         1 <0>         0.1385
     41 H21         8.7382    0.6060    2.3635 H         1 <0>         0.1355
     42 N1          6.7673    1.3448   -1.0033 N.4       1 <0>        -0.4042
     43 H22         5.9360    0.9222   -0.5736 H         1 <0>         0.4214
@<TRIPOS>BOND
     1    1    2 1
     2    1    3 1
     3    1    4 1
     4    1    5 1
     5    5    6 1
     6    6   11 ar
     7    6    7 ar
     8    7    8 ar
     9    7   26 1
    10    8    9 ar
    11    8   27 1
    12    9   10 ar
    13    9   12 1
    14   10   11 ar
    15   10   28 1
    16   11   29 1
    17   12   13 1
    18   12   21 1
    19   12   14 1
    20   14   30 1
    21   14   31 1
    22   14   42 1
    23   15   16 1
    24   15   32 1
    25   15   33 1
    26   15   42 1
    27   16   17 1
    28   16   34 1
    29   16   35 1
    30   17   18 1
    31   17   36 1
    32   17   37 1
    33   18   19 1
    34   18   20 1
    35   18   42 1
    36   20   25 ar
    37   20   21 ar
    38   21   22 ar
    39   22   23 ar
    40   22   38 1
    41   23   24 ar
    42   23   39 1
    43   24   25 ar
    44   24   40 1
    45   25   41 1
    46   42   43 1
@<TRIPOS>MOLECULE
ZINC00057058
   26    27     0     0     0
SMALL
USER_CHARGES

@<TRIPOS>ATOM
      1 C1         -0.0168    1.3880    0.0097 C.ar      1 <0>        -0.1182
      2 C2          1.1587    2.1055    0.0023 C.ar      1 <0>        -0.1024
      3 C3          2.3795    1.4398   -0.0129 C.ar      1 <0>         0.0862
      4 C4          2.4019    0.0334   -0.0206 C.ar      1 <0>        -0.0842
      5 C5          1.2039   -0.6838   -0.0130 C.ar      1 <0>        -0.1143
      6 C6          0.0021   -0.0041    0.0020 C.ar      1 <0>         0.0953
      7 O1         -1.1679   -0.6972    0.0094 O.3       1 <0>        -0.4959
      8 C7          3.8159   -0.3493   -0.0361 C.2       1 <0>        -0.2101
      9 C8          4.5307    0.7870   -0.0369 C.2       1 <0>         0.0918
     10 N1          3.6908    1.8667   -0.0231 N.pl3     1 <0>        -0.5866
     11 H1          3.9751    2.7941   -0.0208 H         1 <0>         0.4248
     12 C9          4.3642   -1.7530   -0.0489 C.3       1 <0>        -0.0616
     13 C10         4.4190   -2.2661   -1.4892 C.3       1 <0>        -0.0080
     14 N2          4.9535   -3.6343   -1.5017 N.4       1 <0>        -0.6389
     15 H2         -0.9621    1.9101    0.0260 H         1 <0>         0.1389
     16 H3          1.1325    3.1852    0.0080 H         1 <0>         0.1315
     17 H4          1.2172   -1.7637   -0.0192 H         1 <0>         0.1256
     18 H5         -1.5147   -0.8930   -0.8718 H         1 <0>         0.3922
     19 H6          5.6093    0.8408   -0.0472 H         1 <0>         0.1750
     20 H7          5.3681   -1.7548    0.3759 H         1 <0>         0.0927
     21 H8          3.7180   -2.4009    0.5433 H         1 <0>         0.0925
     22 H9          3.4152   -2.2643   -1.9140 H         1 <0>         0.1329
     23 H10         5.0652   -1.6182   -2.0814 H         1 <0>         0.1331
     24 H11         5.8827   -3.6360   -1.1085 H         1 <0>         0.4347
     25 H12         4.3553   -4.2341   -0.9535 H         1 <0>         0.4353
     26 H13         4.9896   -3.9727   -2.4515 H         1 <0>         0.4379
@<TRIPOS>BOND
     1    1    6 ar
     2    1    2 ar
     3    1   15 1
     4    2    3 ar
     5    2   16 1
     6    3   10 1
     7    3    4 ar
     8    4    5 ar
     9    4    8 1
    10    5    6 ar
    11    5   17 1
    12    6    7 1
    13    7   18 1
    14    8    9 2
    15    8   12 1
    16    9   10 1
    17    9   19 1
    18   10   11 1
    19   12   13 1
    20   12   20 1
    21   12   21 1
    22   13   14 1
    23   13   22 1
    24   13   23 1
    25   14   24 1
    26   14   25 1
    27   14   26 1
@<TRIPOS>MOLECULE
ZINC03983953
   38    41     0     0     0
SMALL
USER_CHARGES

@<TRIPOS>ATOM
      1 C1         -0.0178    1.4648    0.0101 C.3       1 <0>        -0.0510
      2 N1          0.0021   -0.0041    0.0020 N.4       1 <0>        -0.3777
      3 C2         -1.3754   -0.4993   -0.0449 C.3       1 <0>        -0.0034
      4 C3         -1.3391   -2.0218   -0.2225 C.3       1 <0>        -0.0824
      5 H1         -0.8629   -2.2705   -1.1709 H         1 <0>         0.1184
      6 C4         -0.5439   -2.6067    0.9146 C.2       1 <0>        -0.1164
      7 C5          0.3768   -1.8985    1.5458 C.2       1 <0>        -0.0841
      8 C6          0.7085   -0.4753    1.1856 C.3       1 <0>         0.0752
      9 H2          0.3826    0.1485    2.0180 H         1 <0>         0.1363
     10 C7          2.2130   -0.2207    1.0164 C.3       1 <0>        -0.0406
     11 C8          2.9587   -0.8186    2.1801 C.2       1 <0>        -0.2003
     12 C9          4.1251   -0.5831    2.7719 C.2       1 <0>         0.0944
     13 N2          4.3203   -1.4690    3.8202 N.pl3     1 <0>        -0.5873
     14 H3          5.1026   -1.4842    4.3935 H         1 <0>         0.4245
     15 C10         3.2584   -2.3147    3.9318 C.ar      1 <0>         0.1114
     16 C11         2.3748   -1.9318    2.9188 C.ar      1 <0>        -0.1273
     17 C12         1.1188   -2.5191    2.6604 C.ar      1 <0>        -0.0255
     18 C13         0.7737   -3.5699    3.4796 C.ar      1 <0>        -0.1050
     19 C14         1.6454   -3.9745    4.4883 C.ar      1 <0>        -0.0981
     20 C15         2.8761   -3.3811    4.7447 C.ar      1 <0>        -0.1005
     21 C16        -2.7639   -2.5789   -0.1981 C.3       1 <0>         0.0881
     22 O1         -2.7325   -3.9796   -0.4797 O.3       1 <0>        -0.5671
     23 H4          1.0047    1.8421    0.0024 H         1 <0>         0.1283
     24 H5         -0.5450    1.8259   -0.8730 H         1 <0>         0.1302
     25 H6         -0.5280    1.8163    0.9069 H         1 <0>         0.1251
     26 H7         -1.8858   -0.2512    0.8857 H         1 <0>         0.1357
     27 H8         -1.8995   -0.0450   -0.8858 H         1 <0>         0.1432
     28 H9         -0.7298   -3.6255    1.2211 H         1 <0>         0.1478
     29 H10         2.5571   -0.6801    0.0898 H         1 <0>         0.0923
     30 H11         2.3978    0.8529    0.9796 H         1 <0>         0.0989
     31 H12         4.8218    0.1879    2.4777 H         1 <0>         0.1757
     32 H13        -0.1689   -4.0785    3.3412 H         1 <0>         0.1287
     33 H14         1.3451   -4.8033    5.1122 H         1 <0>         0.1311
     34 H15         3.5124   -3.7331    5.5432 H         1 <0>         0.1369
     35 H16        -3.2009   -2.4161    0.7871 H         1 <0>         0.0603
     36 H17        -3.3658   -2.0703   -0.9511 H         1 <0>         0.0624
     37 H18        -3.6033   -4.4001   -0.4807 H         1 <0>         0.3975
     38 H19         0.4922   -0.3211   -0.8210 H         1 <0>         0.4243
@<TRIPOS>BOND
     1    1    2 1
     2    1   23 1
     3    1   24 1
     4    1   25 1
     5    2    8 1
     6    2    3 1
     7    2   38 1
     8    3    4 1
     9    3   26 1
    10    3   27 1
    11    4    5 1
    12    4    6 1
    13    4   21 1
    14    6    7 2
    15    6   28 1
    16    7   17 1
    17    7    8 1
    18    8    9 1
    19    8   10 1
    20   10   11 1
    21   10   29 1
    22   10   30 1
    23   11   16 1
    24   11   12 2
    25   12   13 1
    26   12   31 1
    27   13   14 1
    28   13   15 1
    29   15   20 ar
    30   15   16 ar
    31   16   17 ar
    32   17   18 ar
    33   18   19 ar
    34   18   32 1
    35   19   20 ar
    36   19   33 1
    37   20   34 1
    38   21   22 1
    39   21   35 1
    40   21   36 1
    41   22   37 1
@<TRIPOS>MOLECULE
ZINC06021033
   24    24     0     0     0
SMALL
USER_CHARGES

@<TRIPOS>ATOM
      1 C1         -0.0187    1.5258    0.0104 C.3       1 <0>        -0.1848
      2 C2          0.0021   -0.0041    0.0020 C.3       1 <0>         0.0327
      3 H1          0.5123   -0.3556   -0.8948 H         1 <0>         0.1424
      4 C3          0.7421   -0.5109    1.2415 C.3       1 <0>        -0.1004
      5 C4          0.8700   -2.0108    1.1719 C.ar      1 <0>        -0.1297
      6 C5         -0.1174   -2.8145    1.7105 C.ar      1 <0>        -0.1427
      7 C6         -0.0001   -4.1904    1.6467 C.ar      1 <0>        -0.1078
      8 C7          1.1044   -4.7626    1.0438 C.ar      1 <0>        -0.1042
      9 C8          2.0914   -3.9590    0.5043 C.ar      1 <0>        -0.1052
     10 C9          1.9720   -2.5831    0.5644 C.ar      1 <0>        -0.1058
     11 N1         -1.3761   -0.5125    0.0124 N.4       1 <0>        -0.6383
     12 H2          1.0039    1.9031    0.0027 H         1 <0>         0.1079
     13 H3         -0.5459    1.8868   -0.8726 H         1 <0>         0.0845
     14 H4         -0.5289    1.8773    0.9072 H         1 <0>         0.0833
     15 H5          1.7350   -0.0630    1.2804 H         1 <0>         0.1203
     16 H6          0.1838   -0.2350    2.1361 H         1 <0>         0.0980
     17 H7         -0.9803   -2.3674    2.1815 H         1 <0>         0.1214
     18 H8         -0.7712   -4.8182    2.0681 H         1 <0>         0.1318
     19 H9          1.1964   -5.8375    0.9945 H         1 <0>         0.1325
     20 H10         2.9545   -4.4061    0.0336 H         1 <0>         0.1329
     21 H11         2.7413   -1.9552    0.1397 H         1 <0>         0.1297
     22 H12        -1.8641   -0.1783   -0.8050 H         1 <0>         0.4362
     23 H13        -1.3624   -1.5214    0.0069 H         1 <0>         0.4335
     24 H14        -1.8484   -0.1871    0.8426 H         1 <0>         0.4319
@<TRIPOS>BOND
     1    1    2 1
     2    1   12 1
     3    1   13 1
     4    1   14 1
     5    2    3 1
     6    2    4 1
     7    2   11 1
     8    4    5 1
     9    4   15 1
    10    4   16 1
    11    5   10 ar
    12    5    6 ar
    13    6    7 ar
    14    6   17 1
    15    7    8 ar
    16    7   18 1
    17    8    9 ar
    18    8   19 1
    19    9   10 ar
    20    9   20 1
    21   10   21 1
    22   11   22 1
    23   11   23 1
    24   11   24 1
@<TRIPOS>MOLECULE
ZINC06036847
   24    24     0     0     0
SMALL
USER_CHARGES
(2R)-1-phenylpropan-2-amine
@<TRIPOS>ATOM
      1 C1         -4.3194    0.0384    1.4672 C.3       1 <0>        -0.1825
      2 C2         -2.9450    0.7107    1.4624 C.3       1 <0>         0.0370
      3 H1         -2.9998    1.6534    2.0069 H         1 <0>         0.1402
      4 C3         -2.5137    0.9795    0.0193 C.3       1 <0>        -0.1012
      5 C4         -1.2190    1.7506    0.0173 C.ar      1 <0>        -0.1297
      6 C5         -0.0126    1.0758    0.0080 C.ar      1 <0>        -0.1432
      7 C6          1.1750    1.7832    0.0004 C.ar      1 <0>        -0.1076
      8 C7          1.1563    3.1654    0.0076 C.ar      1 <0>        -0.1042
      9 C8         -0.0501    3.8402    0.0223 C.ar      1 <0>        -0.1051
     10 C9         -1.2377    3.1328    0.0299 C.ar      1 <0>        -0.1060
     11 H2         -4.2646   -0.9043    0.9227 H         1 <0>         0.0828
     12 H3         -4.6267   -0.1531    2.4953 H         1 <0>         0.0840
     13 H4         -5.0461    0.6937    0.9868 H         1 <0>         0.1076
     14 H5         -3.2837    1.5610   -0.4877 H         1 <0>         0.1197
     15 H6         -2.3729    0.0317   -0.5003 H         1 <0>         0.0980
     16 H7          0.0021   -0.0041    0.0020 H         1 <0>         0.1217
     17 H8          2.1175    1.2560   -0.0115 H         1 <0>         0.1319
     18 H9          2.0841    3.7181    0.0014 H         1 <0>         0.1325
     19 H10        -0.0647    4.9201    0.0276 H         1 <0>         0.1329
     20 H11        -2.1802    3.6600    0.0410 H         1 <0>         0.1296
     21 H12        -2.2284   -0.3651    3.0648 H         1 <0>         0.4378
     22 H13        -1.8491   -1.0276    1.5872 H         1 <0>         0.4335
     23 N1         -1.9451   -0.1577    2.1085 N.4       1 <0>        -0.6473
     24 H14        -1.0390    0.3249    2.1247 H         1 <0>         0.4376
@<TRIPOS>BOND
     1    1    2 1
     2    1   11 1
     3    1   12 1
     4    1   13 1
     5    2    3 1
     6    2    4 1
     7    2   23 1
     8    4    5 1
     9    4   14 1
    10    4   15 1
    11    5   10 ar
    12    5    6 ar
    13    6    7 ar
    14    6   16 1
    15    7    8 ar
    16    7   17 1
    17    8    9 ar
    18    8   18 1
    19    9   10 ar
    20    9   19 1
    21   10   20 1
    22   21   23 1
    23   22   23 1
    24   23   24 1
@<TRIPOS>MOLECULE
ZINC01530637
   41    42     0     0     0
SMALL
USER_CHARGES

@<TRIPOS>ATOM
      1 C1         -0.4120    1.0349    0.3013 C.3       1 <0>        -0.0488
      2 N1         -0.2330   -0.4168    0.1652 N.4       1 <0>        -0.5073
      3 C2          0.5049   -0.7054   -1.0718 C.3       1 <0>        -0.0229
      4 C3          0.6913   -2.2174   -1.2135 C.3       1 <0>        -0.1675
      5 C4          1.4598   -2.5179   -2.5019 C.3       1 <0>         0.1351
      6 H1          2.3976   -1.9623   -2.5036 H         1 <0>         0.0995
      7 C5          1.7506   -3.9945   -2.5806 C.ar      1 <0>        -0.1149
      8 C6          0.8070   -4.8578   -3.1052 C.ar      1 <0>        -0.0895
      9 C7          1.0737   -6.2123   -3.1773 C.ar      1 <0>        -0.1179
     10 C8          2.2842   -6.7034   -2.7252 C.ar      1 <0>        -0.1006
     11 C9          3.2282   -5.8399   -2.2014 C.ar      1 <0>        -0.1161
     12 C10         2.9632   -4.4849   -2.1333 C.ar      1 <0>        -0.1045
     13 O1          0.6724   -2.1269   -3.6285 O.3       1 <0>        -0.2928
     14 C11         0.8838   -0.8800   -4.1260 C.ar      1 <0>         0.1505
     15 C12         1.8748   -0.0745   -3.5841 C.ar      1 <0>        -0.2338
     16 C13         2.0880    1.1924   -4.0920 C.ar      1 <0>        -0.0253
     17 C14         1.3144    1.6580   -5.1391 C.ar      1 <0>        -0.2127
     18 C15         0.3257    0.8573   -5.6806 C.ar      1 <0>        -0.0216
     19 C16         0.1127   -0.4127   -5.1804 C.ar      1 <0>        -0.1468
     20 C17         1.5488    3.0406   -5.6908 C.3       1 <0>         0.5091
     21 F1          2.4914    2.9774   -6.7227 F         1 <0>        -0.1716
     22 F2          0.3464    3.5542   -6.1884 F         1 <0>        -0.1742
     23 F3          2.0262    3.8739   -4.6735 F         1 <0>        -0.1775
     24 H2          0.5637    1.5193    0.3388 H         1 <0>         0.1248
     25 H3         -0.9730    1.4134   -0.5531 H         1 <0>         0.1241
     26 H4         -0.9595    1.2490    1.2192 H         1 <0>         0.1296
     27 H5          0.2863   -0.7673    0.9561 H         1 <0>         0.4310
     28 H6         -0.0562   -0.3268   -1.9262 H         1 <0>         0.1339
     29 H7          1.4806   -0.2209   -1.0343 H         1 <0>         0.1355
     30 H8          1.2523   -2.5959   -0.3591 H         1 <0>         0.1101
     31 H9         -0.2844   -2.7018   -1.2511 H         1 <0>         0.1053
     32 H10        -0.1388   -4.4741   -3.4583 H         1 <0>         0.1283
     33 H11         0.3362   -6.8868   -3.5865 H         1 <0>         0.1298
     34 H12         2.4924   -7.7616   -2.7809 H         1 <0>         0.1301
     35 H13         4.1738   -6.2237   -1.8480 H         1 <0>         0.1308
     36 H14         3.7021   -3.8099   -1.7275 H         1 <0>         0.1243
     37 H15         2.4789   -0.4374   -2.7657 H         1 <0>         0.1409
     38 H16         2.8594    1.8199   -3.6705 H         1 <0>         0.1434
     39 H17        -0.2775    1.2233   -6.4983 H         1 <0>         0.1498
     40 H18        -0.6567   -1.0394   -5.6066 H         1 <0>         0.1488
     41 H19        -1.1362   -0.8653    0.1305 H         1 <0>         0.4318
@<TRIPOS>BOND
     1    1    2 1
     2    1   24 1
     3    1   25 1
     4    1   26 1
     5    2    3 1
     6    2   27 1
     7    2   41 1
     8    3    4 1
     9    3   28 1
    10    3   29 1
    11    4    5 1
    12    4   30 1
    13    4   31 1
    14    5    6 1
    15    5    7 1
    16    5   13 1
    17    7   12 ar
    18    7    8 ar
    19    8    9 ar
    20    8   32 1
    21    9   10 ar
    22    9   33 1
    23   10   11 ar
    24   10   34 1
    25   11   12 ar
    26   11   35 1
    27   12   36 1
    28   13   14 1
    29   14   19 ar
    30   14   15 ar
    31   15   16 ar
    32   15   37 1
    33   16   17 ar
    34   16   38 1
    35   17   18 ar
    36   17   20 1
    37   18   19 ar
    38   18   39 1
    39   19   40 1
    40   20   21 1
    41   20   22 1
    42   20   23 1
@<TRIPOS>MOLECULE
ZINC01530638
   41    42     0     0     0
SMALL
USER_CHARGES

@<TRIPOS>ATOM
      1 C1         -0.0117    1.2584    0.2941 C.3       1 <0>        -0.0489
      2 N1          0.0187   -0.2059    0.1807 N.4       1 <0>        -0.5073
      3 C2          0.6940   -0.5864   -1.0672 C.3       1 <0>        -0.0223
      4 C3          0.7257   -2.1115   -1.1853 C.3       1 <0>        -0.1659
      5 C4          1.4290   -2.5079   -2.4850 C.3       1 <0>         0.1346
      6 H1          0.9406   -2.0169   -3.3267 H         1 <0>         0.0995
      7 C5          1.3524   -4.0025   -2.6620 C.ar      1 <0>        -0.1166
      8 C6          2.2239   -4.8256   -1.9736 C.ar      1 <0>        -0.0896
      9 C7          2.1536   -6.1966   -2.1360 C.ar      1 <0>        -0.1183
     10 C8          1.2115   -6.7445   -2.9863 C.ar      1 <0>        -0.1002
     11 C9          0.3394   -5.9215   -3.6740 C.ar      1 <0>        -0.1161
     12 C10         0.4069   -4.5507   -3.5084 C.ar      1 <0>        -0.1036
     13 O1          2.7987   -2.1046   -2.4276 O.3       1 <0>        -0.2939
     14 C11         3.1290   -0.9498   -3.0632 C.ar      1 <0>         0.1513
     15 C12         4.4578   -0.5614   -3.1526 C.ar      1 <0>        -0.1453
     16 C13         4.7911    0.6128   -3.7997 C.ar      1 <0>        -0.0215
     17 C14         3.8014    1.4009   -4.3576 C.ar      1 <0>        -0.2121
     18 C15         2.4763    1.0162   -4.2695 C.ar      1 <0>        -0.0254
     19 C16         2.1384   -0.1601   -3.6288 C.ar      1 <0>        -0.2331
     20 C17         4.1677    2.6815   -5.0625 C.3       1 <0>         0.5092
     21 F1          4.3972    2.4189   -6.4174 F         1 <0>        -0.1720
     22 F2          3.1196    3.5994   -4.9365 F         1 <0>        -0.1774
     23 F3          5.3265    3.2150   -4.4881 F         1 <0>        -0.1740
     24 H2          1.0080    1.6436    0.3006 H         1 <0>         0.1243
     25 H3         -0.5529    1.6774   -0.5543 H         1 <0>         0.1247
     26 H4         -0.5127    1.5408    1.2200 H         1 <0>         0.1295
     27 H5          0.5197   -0.5937    0.9660 H         1 <0>         0.4319
     28 H6          0.1528   -0.1675   -1.9155 H         1 <0>         0.1348
     29 H7          1.7136   -0.2013   -1.0606 H         1 <0>         0.1349
     30 H8          1.2669   -2.5305   -0.3370 H         1 <0>         0.1053
     31 H9         -0.2940   -2.4967   -1.1919 H         1 <0>         0.1101
     32 H10         2.9600   -4.3975   -1.3092 H         1 <0>         0.1272
     33 H11         2.8350   -6.8396   -1.5987 H         1 <0>         0.1297
     34 H12         1.1571   -7.8156   -3.1137 H         1 <0>         0.1301
     35 H13        -0.3964   -6.3495   -4.3386 H         1 <0>         0.1308
     36 H14        -0.2770   -3.9079   -4.0428 H         1 <0>         0.1243
     37 H15         5.2311   -1.1763   -2.7163 H         1 <0>         0.1487
     38 H16         5.8254    0.9155   -3.8695 H         1 <0>         0.1498
     39 H17         1.7051    1.6337   -4.7058 H         1 <0>         0.1430
     40 H18         1.1036   -0.4624   -3.5641 H         1 <0>         0.1387
     41 H19        -0.9251   -0.5624    0.1746 H         1 <0>         0.4310
@<TRIPOS>BOND
     1    1    2 1
     2    1   24 1
     3    1   25 1
     4    1   26 1
     5    2    3 1
     6    2   27 1
     7    2   41 1
     8    3    4 1
     9    3   28 1
    10    3   29 1
    11    4    5 1
    12    4   30 1
    13    4   31 1
    14    5    6 1
    15    5    7 1
    16    5   13 1
    17    7   12 ar
    18    7    8 ar
    19    8    9 ar
    20    8   32 1
    21    9   10 ar
    22    9   33 1
    23   10   11 ar
    24   10   34 1
    25   11   12 ar
    26   11   35 1
    27   12   36 1
    28   13   14 1
    29   14   19 ar
    30   14   15 ar
    31   15   16 ar
    32   15   37 1
    33   16   17 ar
    34   16   38 1
    35   17   18 ar
    36   17   20 1
    37   18   19 ar
    38   18   39 1
    39   19   40 1
    40   20   21 1
    41   20   22 1
    42   20   23 1
@<TRIPOS>MOLECULE
ZINC00020248
   46    48     0     0     0
SMALL
USER_CHARGES

@<TRIPOS>ATOM
      1 C1         -5.6600    1.3618    0.4597 C.3       1 <0>        -0.0474
      2 N1         -5.6471   -0.0878    0.2218 N.4       1 <0>        -0.3867
      3 C2         -6.3574   -0.3850   -1.0293 C.3       1 <0>        -0.0523
      4 C3         -4.2581   -0.5548    0.1191 C.3       1 <0>        -0.0083
      5 C4         -4.2405   -2.0797   -0.0038 C.3       1 <0>        -0.1741
      6 C5         -2.7938   -2.5661   -0.1108 C.3       1 <0>         0.1309
      7 N2         -2.7704   -4.0309   -0.1190 N.pl3     1 <0>        -0.5935
      8 C6         -2.7303   -4.6837   -1.3451 C.ar      1 <0>         0.1859
      9 C7         -1.8260   -4.1660   -2.2811 C.ar      1 <0>        -0.1574
     10 C8         -1.6797   -4.7476   -3.5192 C.ar      1 <0>        -0.0952
     11 C9         -2.4365   -5.8609   -3.8384 C.ar      1 <0>        -0.1332
     12 C10        -3.3330   -6.3646   -2.9249 C.ar      1 <0>        -0.0999
     13 C11        -3.5037   -5.7750   -1.6688 C.ar      1 <0>        -0.1089
     14 C12        -4.5743   -6.4166   -0.8216 C.3       1 <0>        -0.0721
     15 C13        -4.9918   -5.6033    0.3783 C.3       1 <0>        -0.0690
     16 C14        -3.8887   -5.4681    1.3836 C.ar      1 <0>        -0.0980
     17 C15        -2.7839   -4.6994    1.1019 C.ar      1 <0>         0.1741
     18 C16        -1.7322   -4.5882    1.9998 C.ar      1 <0>        -0.1187
     19 C17        -1.8086   -5.2524    3.2126 C.ar      1 <0>        -0.0223
     20 C18        -2.9248   -6.0132    3.5136 C.ar      1 <0>        -0.1131
     21 C19        -3.9754   -6.1256    2.6005 C.ar      1 <0>        -0.0889
     22 Cl1        -0.5058   -5.1313    4.3535 Cl        1 <0>        -0.0554
     23 H1         -6.6906    1.7083    0.5359 H         1 <0>         0.1247
     24 H2         -5.1330    1.5823    1.3879 H         1 <0>         0.1236
     25 H3         -5.1660    1.8703   -0.3683 H         1 <0>         0.1224
     26 H4         -5.8633    0.1235   -1.8572 H         1 <0>         0.1230
     27 H5         -6.3478   -1.4606   -1.2058 H         1 <0>         0.1233
     28 H6         -7.3880   -0.0385   -0.9531 H         1 <0>         0.1247
     29 H7         -3.7907   -0.1139   -0.7614 H         1 <0>         0.1315
     30 H8         -3.7074   -0.2558    1.0110 H         1 <0>         0.1322
     31 H9         -4.7079   -2.5206    0.8766 H         1 <0>         0.0896
     32 H10        -4.7912   -2.3787   -0.8957 H         1 <0>         0.0908
     33 H11        -2.3515   -2.1905   -1.0335 H         1 <0>         0.0902
     34 H12        -2.2229   -2.1984    0.7418 H         1 <0>         0.0815
     35 H13        -1.2357   -3.2979   -2.0274 H         1 <0>         0.1217
     36 H14        -0.9815   -4.3392   -4.2348 H         1 <0>         0.1273
     37 H15        -2.3238   -6.3333   -4.8030 H         1 <0>         0.1262
     38 H16        -3.9182   -7.2346   -3.1839 H         1 <0>         0.1241
     39 H17        -5.4518   -6.5884   -1.4450 H         1 <0>         0.0825
     40 H18        -4.2074   -7.3823   -0.4739 H         1 <0>         0.0763
     41 H19        -5.2905   -4.6094    0.0453 H         1 <0>         0.0673
     42 H20        -5.8457   -6.0866    0.8532 H         1 <0>         0.0790
     43 H21        -0.8653   -3.9919    1.7562 H         1 <0>         0.1372
     44 H22        -2.9858   -6.5230    4.4638 H         1 <0>         0.1382
     45 H23        -4.8449   -6.7215    2.8354 H         1 <0>         0.1390
     46 H24        -6.1044   -0.5585    0.9882 H         1 <0>         0.4269
@<TRIPOS>BOND
     1    1    2 1
     2    1   23 1
     3    1   24 1
     4    1   25 1
     5    2    3 1
     6    2    4 1
     7    2   46 1
     8    3   26 1
     9    3   27 1
    10    3   28 1
    11    4    5 1
    12    4   29 1
    13    4   30 1
    14    5    6 1
    15    5   31 1
    16    5   32 1
    17    6    7 1
    18    6   33 1
    19    6   34 1
    20    7   17 1
    21    7    8 1
    22    8   13 ar
    23    8    9 ar
    24    9   10 ar
    25    9   35 1
    26   10   11 ar
    27   10   36 1
    28   11   12 ar
    29   11   37 1
    30   12   13 ar
    31   12   38 1
    32   13   14 1
    33   14   15 1
    34   14   39 1
    35   14   40 1
    36   15   16 1
    37   15   41 1
    38   15   42 1
    39   16   21 ar
    40   16   17 ar
    41   17   18 ar
    42   18   19 ar
    43   18   43 1
    44   19   20 ar
    45   19   22 1
    46   20   21 ar
    47   20   44 1
    48   21   45 1
