@<TRIPOS>MOLECULE
ZINC52956332
   66    69     0     0     0
SMALL
USER_CHARGES

@<TRIPOS>ATOM
      1 C1         -0.2570   -0.0396   -0.2249 C.3       1 <0>        -0.1481
      2 C2         -0.4777   -1.5512   -0.1410 C.3       1 <0>         0.0719
      3 C3          0.2510   -2.1058    1.0847 C.3       1 <0>        -0.1743
      4 O1         -1.8760   -1.8229   -0.0272 O.3       1 <0>        -0.2968
      5 C4         -2.3308   -2.9699   -0.5993 C.ar      1 <0>         0.1238
      6 C5         -1.4369   -3.8709   -1.1538 C.ar      1 <0>        -0.2108
      7 C6         -1.9007   -5.0365   -1.7356 C.ar      1 <0>        -0.0833
      8 C7         -3.2562   -5.3067   -1.7656 C.ar      1 <0>        -0.1528
      9 C8         -4.1549   -4.4130   -1.2140 C.ar      1 <0>        -0.0865
     10 C9         -3.6965   -3.2442   -0.6239 C.ar      1 <0>         0.1375
     11 N1         -4.6040   -2.3403   -0.0596 N.pl3     1 <0>        -0.6674
     12 C10        -5.1972   -1.2631   -0.8665 C.3       1 <0>         0.1547
     13 C11        -5.0050    0.0635   -0.1240 C.3       1 <0>         0.0426
     14 N2         -5.5408   -0.0593    1.2382 N.3       1 <0>        -0.5278
     15 C12        -4.8056   -1.0693    2.0110 C.3       1 <0>         0.0391
     16 C13        -4.9943   -2.4462    1.3545 C.3       1 <0>         0.1554
     17 C14        -5.5326    1.2387    1.9262 C.3       1 <0>         0.0947
     18 C15        -6.3064    1.1292    3.2147 C.ar      1 <0>        -0.0813
     19 C16        -7.6662    1.3854    3.2273 C.ar      1 <0>        -0.0744
     20 C17        -8.3840    1.2867    4.4058 C.ar      1 <0>        -0.1211
     21 C18        -7.7471    0.9321    5.5774 C.ar      1 <0>        -0.0675
     22 C19        -6.3760    0.6723    5.5716 C.ar      1 <0>        -0.1273
     23 C20        -5.6587    0.7682    4.3778 C.ar      1 <0>        -0.0879
     24 C21        -5.6870    0.2923    6.8233 C.2       1 <0>         0.5617
     25 O2         -6.1780   -0.5424    7.5580 O.2       1 <0>        -0.5326
     26 N3         -4.5146    0.8713    7.1497 N.am      1 <0>        -0.6059
     27 C22        -3.8640    1.8148    6.2303 C.3       1 <0>         0.0916
     28 C23        -3.5771    3.1180    6.9827 C.3       1 <0>        -0.1360
     29 C24        -2.7654    2.8071    8.2423 C.3       1 <0>        -0.1214
     30 C25        -3.5758    1.8882    9.1594 C.3       1 <0>        -0.1356
     31 C26        -3.8657    0.5757    8.4343 C.3       1 <0>         0.1105
     32 H1          0.8096    0.1676   -0.3117 H         1 <0>         0.0754
     33 H2         -0.7761    0.3555   -1.0981 H         1 <0>         0.0627
     34 H3         -0.6472    0.4351    0.6754 H         1 <0>         0.0636
     35 H4         -0.0875   -2.0259   -1.0413 H         1 <0>         0.0742
     36 H5         -0.1393   -1.6311    1.9850 H         1 <0>         0.0650
     37 H6          0.0937   -3.1828    1.1445 H         1 <0>         0.0608
     38 H7          1.3176   -1.8986    0.9979 H         1 <0>         0.0710
     39 H8         -0.3773   -3.6629   -1.1321 H         1 <0>         0.1279
     40 H9         -1.2021   -5.7375   -2.1681 H         1 <0>         0.1235
     41 H10        -3.6139   -6.2182   -2.2214 H         1 <0>         0.1239
     42 H11        -5.2133   -4.6264   -1.2391 H         1 <0>         0.1282
     43 H12        -4.7006   -1.2157   -1.8356 H         1 <0>         0.0685
     44 H13        -6.2613   -1.4538   -1.0061 H         1 <0>         0.0563
     45 H14        -3.9427    0.3033   -0.0768 H         1 <0>         0.0406
     46 H15        -5.5341    0.8563   -0.6529 H         1 <0>         0.0772
     47 H16        -3.7461   -0.8138    2.0285 H         1 <0>         0.0394
     48 H17        -5.1901   -1.0982    3.0305 H         1 <0>         0.0783
     49 H18        -6.0393   -2.7483    1.4243 H         1 <0>         0.0563
     50 H19        -4.3636   -3.1812    1.8544 H         1 <0>         0.0674
     51 H20        -4.5044    1.5283    2.1433 H         1 <0>         0.0422
     52 H21        -5.9950    1.9913    1.2875 H         1 <0>         0.0858
     53 H22        -8.1693    1.6640    2.3132 H         1 <0>         0.1285
     54 H23        -9.4450    1.4880    4.4089 H         1 <0>         0.1309
     55 H24        -8.3085    0.8561    6.4969 H         1 <0>         0.1292
     56 H25        -4.5982    0.5642    4.3658 H         1 <0>         0.1264
     57 H26        -2.9283    1.3874    5.8698 H         1 <0>         0.0700
     58 H27        -4.5244    2.0175    5.3871 H         1 <0>         0.0990
     59 H28        -3.0089    3.7912    6.3407 H         1 <0>         0.0765
     60 H29        -4.5182    3.5906    7.2637 H         1 <0>         0.0681
     61 H30        -1.8355    2.3122    7.9621 H         1 <0>         0.0648
     62 H31        -2.5388    3.7354    8.7666 H         1 <0>         0.0672
     63 H32        -3.0066    1.6860   10.0668 H         1 <0>         0.0777
     64 H33        -4.5169    2.3723    9.4200 H         1 <0>         0.0669
     65 H34        -4.5272   -0.0389    9.0449 H         1 <0>         0.0936
     66 H35        -2.9302    0.0450    8.2576 H         1 <0>         0.0683
@<TRIPOS>BOND
     1    1    2 1
     2    1   32 1
     3    1   33 1
     4    1   34 1
     5    2    3 1
     6    2    4 1
     7    2   35 1
     8    3   36 1
     9    3   37 1
    10    3   38 1
    11    4    5 1
    12    5   10 ar
    13    5    6 ar
    14    6    7 ar
    15    6   39 1
    16    7    8 ar
    17    7   40 1
    18    8    9 ar
    19    8   41 1
    20    9   10 ar
    21    9   42 1
    22   10   11 1
    23   11   16 1
    24   11   12 1
    25   12   13 1
    26   12   43 1
    27   12   44 1
    28   13   14 1
    29   13   45 1
    30   13   46 1
    31   14   15 1
    32   14   17 1
    33   15   16 1
    34   15   47 1
    35   15   48 1
    36   16   49 1
    37   16   50 1
    38   17   18 1
    39   17   51 1
    40   17   52 1
    41   18   23 ar
    42   18   19 ar
    43   19   20 ar
    44   19   53 1
    45   20   21 ar
    46   20   54 1
    47   21   22 ar
    48   21   55 1
    49   22   23 ar
    50   22   24 1
    51   23   56 1
    52   24   25 2
    53   24   26 am
    54   26   31 1
    55   26   27 1
    56   27   28 1
    57   27   57 1
    58   27   58 1
    59   28   29 1
    60   28   59 1
    61   28   60 1
    62   29   30 1
    63   29   61 1
    64   29   62 1
    65   30   31 1
    66   30   63 1
    67   30   64 1
    68   31   65 1
    69   31   66 1
@<TRIPOS>MOLECULE
ZINC01488294
   49    52     0     0     0
SMALL
USER_CHARGES
4-fluoro-N-[3-(1-methyl-4-piperidyl)-1H-indol-5-yl]-benzamide
@<TRIPOS>ATOM
      1 C1         -8.7658   -6.3171   -0.6517 C.3       1 <0>        -0.0426
      2 C2         -6.7436   -5.5577   -1.7447 C.3       1 <0>        -0.0023
      3 C3         -5.2182   -5.6804   -1.7417 C.3       1 <0>        -0.1409
      4 C4         -4.6683   -5.1161   -0.4288 C.3       1 <0>        -0.0138
      5 C5         -5.2977   -5.8709    0.7454 C.3       1 <0>        -0.1414
      6 C6         -6.8208   -5.7426    0.6703 C.3       1 <0>        -0.0024
      7 C7         -3.1716   -5.2887   -0.3942 C.2       1 <0>        -0.1906
      8 C8         -2.5002   -6.4494   -0.4581 C.2       1 <0>         0.0731
      9 N1         -1.1539   -6.2137   -0.3978 N.pl3     1 <0>        -0.5885
     10 H1         -0.4666   -6.8976   -0.4259 H         1 <0>         0.4216
     11 C9         -0.9198   -4.8591   -0.2907 C.ar      1 <0>         0.0854
     12 C10        -2.1738   -4.2216   -0.2838 C.ar      1 <0>        -0.0776
     13 C11        -2.2497   -2.8313   -0.1836 C.ar      1 <0>        -0.1102
     14 C12        -1.0869   -2.0891   -0.0915 C.ar      1 <0>         0.1376
     15 C13         0.1538   -2.7240   -0.1044 C.ar      1 <0>        -0.0919
     16 C14         0.2386   -4.0950   -0.1972 C.ar      1 <0>        -0.1034
     17 N2         -1.1558   -0.6938    0.0094 N.am      1 <0>        -0.6708
     18 C15        -0.2361   -0.0241    0.7320 C.2       1 <0>         0.5645
     19 O1          0.5956   -0.6358    1.3741 O.2       1 <0>        -0.5103
     20 C16        -0.2385    1.4528    0.7437 C.ar      1 <0>        -0.1554
     21 C17        -1.1891    2.1580    0.0024 C.ar      1 <0>        -0.0559
     22 C18        -1.1910    3.5362    0.0224 C.ar      1 <0>        -0.1611
     23 C19        -0.2434    4.2226    0.7663 C.ar      1 <0>         0.1345
     24 C20         0.7065    3.5275    1.4991 C.ar      1 <0>        -0.1592
     25 C21         0.7134    2.1492    1.4917 C.ar      1 <0>        -0.0243
     26 F1         -0.2459    5.5736    0.7775 F         1 <0>        -0.1285
     27 H2         -9.0923   -6.8002   -1.5726 H         1 <0>         0.1211
     28 H3         -9.1500   -6.8707    0.2050 H         1 <0>         0.1212
     29 H4         -9.1444   -5.2953   -0.6234 H         1 <0>         0.1223
     30 H5         -7.0236   -4.5071   -1.6675 H         1 <0>         0.1298
     31 H6         -7.1394   -5.9717   -2.6721 H         1 <0>         0.1283
     32 H7         -4.8062   -5.1187   -2.5801 H         1 <0>         0.1131
     33 H8         -4.9374   -6.7297   -1.8327 H         1 <0>         0.0866
     34 H9         -4.9145   -4.0568   -0.3561 H         1 <0>         0.0923
     35 H10        -5.0181   -6.9231    0.6935 H         1 <0>         0.0867
     36 H11        -4.9425   -5.4452    1.6839 H         1 <0>         0.1132
     37 H12        -7.1004   -4.6911    0.7362 H         1 <0>         0.1299
     38 H13        -7.2727   -6.2909    1.4969 H         1 <0>         0.1284
     39 H14        -2.9554   -7.4249   -0.5447 H         1 <0>         0.1659
     40 H15        -3.2107   -2.3386   -0.1776 H         1 <0>         0.1239
     41 H16         1.0568   -2.1354   -0.0365 H         1 <0>         0.1422
     42 H17         1.2051   -4.5770   -0.2022 H         1 <0>         0.1292
     43 H18        -1.8655   -0.2094   -0.4408 H         1 <0>         0.4099
     44 H19        -1.9247    1.6244   -0.5812 H         1 <0>         0.1351
     45 H20        -1.9289    4.0825   -0.5464 H         1 <0>         0.1457
     46 H21         1.4422    4.0671    2.0771 H         1 <0>         0.1482
     47 H22         1.4533    1.6088    2.0634 H         1 <0>         0.1497
     48 N3         -7.2890   -6.3255   -0.6052 N.4       1 <0>        -0.3961
     49 H23        -6.9590   -7.2957   -0.6690 H         1 <0>         0.4279
@<TRIPOS>BOND
     1    1   27 1
     2    1   28 1
     3    1   29 1
     4    1   48 1
     5    2    3 1
     6    2   30 1
     7    2   31 1
     8    2   48 1
     9    3    4 1
    10    3   32 1
    11    3   33 1
    12    4    5 1
    13    4    7 1
    14    4   34 1
    15    5    6 1
    16    5   35 1
    17    5   36 1
    18    6   37 1
    19    6   38 1
    20    6   48 1
    21    7   12 1
    22    7    8 2
    23    8    9 1
    24    8   39 1
    25    9   10 1
    26    9   11 1
    27   11   16 ar
    28   11   12 ar
    29   12   13 ar
    30   13   14 ar
    31   13   40 1
    32   14   15 ar
    33   14   17 1
    34   15   16 ar
    35   15   41 1
    36   16   42 1
    37   17   18 am
    38   17   43 1
    39   18   19 2
    40   18   20 1
    41   20   25 ar
    42   20   21 ar
    43   21   22 ar
    44   21   44 1
    45   22   23 ar
    46   22   45 1
    47   23   24 ar
    48   23   26 1
    49   24   25 ar
    50   24   46 1
    51   25   47 1
    52   48   49 1
@<TRIPOS>MOLECULE
ZINC00200993
   31    32     0     0     0
SMALL
USER_CHARGES
2-(5-ethyl-1H-indol-3-yl)ethanamine
@<TRIPOS>ATOM
      1 C1          4.9139    4.0881    2.4716 C.3       1 <0>        -0.1472
      2 C2          3.7539    4.4310    3.4085 C.3       1 <0>        -0.0863
      3 C3          2.9491    3.1878    3.6875 C.ar      1 <0>        -0.0907
      4 C4          3.2803    2.3810    4.7677 C.ar      1 <0>        -0.0904
      5 C5          2.5580    1.2401    5.0400 C.ar      1 <0>        -0.1179
      6 C6          1.4854    0.8906    4.2259 C.ar      1 <0>         0.0900
      7 C7          1.1578    1.7080    3.1289 C.ar      1 <0>        -0.0968
      8 C8          1.8996    2.8634    2.8750 C.ar      1 <0>        -0.0842
      9 C9          0.0000    1.0800    2.4877 C.2       1 <0>        -0.2092
     10 C10        -0.2849   -0.0276    3.1905 C.2       1 <0>         0.0853
     11 N1          0.5921   -0.1571    4.2328 N.pl3     1 <0>        -0.5876
     12 H1          0.5858   -0.8797    4.8799 H         1 <0>         0.4231
     13 C11        -0.7288    1.5792    1.2668 C.3       1 <0>        -0.0613
     14 C12        -0.0127    1.0858    0.0080 C.3       1 <0>        -0.0037
     15 H2          5.5520    3.3401    2.9421 H         1 <0>         0.0573
     16 H3          4.5200    3.6926    1.5354 H         1 <0>         0.0512
     17 H4          5.4959    4.9873    2.2699 H         1 <0>         0.0611
     18 H5          3.1157    5.1790    2.9380 H         1 <0>         0.0710
     19 H6          4.1478    4.8265    4.3448 H         1 <0>         0.0754
     20 H7          4.1129    2.6504    5.4006 H         1 <0>         0.1308
     21 H8          2.8233    0.6192    5.8829 H         1 <0>         0.1260
     22 H9          1.6480    3.4956    2.0363 H         1 <0>         0.1171
     23 H10        -1.0874   -0.7147    2.9665 H         1 <0>         0.1726
     24 H11        -0.7436    2.6691    1.2728 H         1 <0>         0.0916
     25 H12        -1.7514    1.2020    1.2746 H         1 <0>         0.0910
     26 H13         0.0021   -0.0041    0.0020 H         1 <0>         0.1307
     27 H14         1.0099    1.4631    0.0003 H         1 <0>         0.1341
     28 H15        -0.8068    2.5779   -1.1674 H         1 <0>         0.4367
     29 H16        -0.2694    1.2597   -2.0273 H         1 <0>         0.4395
     30 N2         -0.7456    1.5611   -1.1787 N.4       1 <0>        -0.6479
     31 H17        -1.6942    1.1683   -1.1693 H         1 <0>         0.4385
@<TRIPOS>BOND
     1    1    2 1
     2    1   15 1
     3    1   16 1
     4    1   17 1
     5    2    3 1
     6    2   18 1
     7    2   19 1
     8    3    8 ar
     9    3    4 ar
    10    4    5 ar
    11    4   20 1
    12    5    6 ar
    13    5   21 1
    14    6   11 1
    15    6    7 ar
    16    7    8 ar
    17    7    9 1
    18    8   22 1
    19    9   10 2
    20    9   13 1
    21   10   11 1
    22   10   23 1
    23   11   12 1
    24   13   14 1
    25   13   24 1
    26   13   25 1
    27   14   26 1
    28   14   27 1
    29   14   30 1
    30   28   30 1
    31   29   30 1
    32   30   31 1
@<TRIPOS>MOLECULE
ZINC03807663
   33    35     0     0     0
SMALL
USER_CHARGES
6-methoxy-2,3,4,9-tetrahydro-1H-carbazol-3-amine
@<TRIPOS>ATOM
      1 C1          2.3408    7.9260   -1.5234 C.3       1 <0>         0.0245
      2 O1          1.4699    6.8158   -1.2975 O.3       1 <0>        -0.3190
      3 C2          2.0488    5.6422   -0.9275 C.ar      1 <0>         0.1136
      4 C3          3.4305    5.5839   -0.7909 C.ar      1 <0>        -0.1772
      5 C4          4.0863    4.4241   -0.4184 C.ar      1 <0>        -0.0814
      6 C5          3.3007    3.2984   -0.1806 C.ar      1 <0>         0.0662
      7 C6          1.8905    3.3550   -0.3189 C.ar      1 <0>        -0.0568
      8 C7          1.2439    4.5364   -0.6966 C.ar      1 <0>        -0.1183
      9 C8          1.4037    2.0287   -0.0004 C.2       1 <0>        -0.1928
     10 C9          2.4806    1.2713    0.3008 C.2       1 <0>         0.0866
     11 N1          3.6210    2.0232    0.1943 N.pl3     1 <0>        -0.5765
     12 H1          4.5203    1.6995    0.3602 H         1 <0>         0.4213
     13 C10         2.3989   -0.1854    0.6926 C.3       1 <0>        -0.0570
     14 C11         0.9541   -0.5038    1.0924 C.3       1 <0>        -0.1322
     15 C12         0.0021   -0.0041    0.0020 C.3       1 <0>         0.0304
     16 H2          0.3449   -0.3579   -0.9703 H         1 <0>         0.1441
     17 C13        -0.0187    1.5290    0.0104 C.3       1 <0>        -0.0563
     18 H3          3.0421    7.6811   -2.3211 H         1 <0>         0.0573
     19 H4          1.7521    8.7968   -1.8118 H         1 <0>         0.1040
     20 H5          2.8925    8.1468   -0.6096 H         1 <0>         0.0574
     21 H6          4.0119    6.4737   -0.9822 H         1 <0>         0.1351
     22 H7          5.1610    4.3926   -0.3167 H         1 <0>         0.1371
     23 H8          0.1704    4.5850   -0.8038 H         1 <0>         0.1374
     24 H9          3.0623   -0.3752    1.5363 H         1 <0>         0.1006
     25 H10         2.6914   -0.8109   -0.1508 H         1 <0>         0.0966
     26 H11         0.7200   -0.0080    2.0345 H         1 <0>         0.0962
     27 H12         0.8385   -1.5812    1.2100 H         1 <0>         0.0976
     28 H13        -0.5412    1.8928   -0.8743 H         1 <0>         0.0970
     29 H14        -0.5242    1.8832    0.9088 H         1 <0>         0.0918
     30 H15        -1.3633   -1.5231    0.2604 H         1 <0>         0.4386
     31 H16        -1.7155   -0.1486    1.1279 H         1 <0>         0.4361
     32 N2         -1.3631   -0.5047    0.2409 N.4       1 <0>        -0.6446
     33 H17        -1.9776   -0.1840   -0.5166 H         1 <0>         0.4426
@<TRIPOS>BOND
     1    1    2 1
     2    1   18 1
     3    1   19 1
     4    1   20 1
     5    2    3 1
     6    3    8 ar
     7    3    4 ar
     8    4    5 ar
     9    4   21 1
    10    5    6 ar
    11    5   22 1
    12    6   11 1
    13    6    7 ar
    14    7    8 ar
    15    7    9 1
    16    8   23 1
    17    9   17 1
    18    9   10 2
    19   10   11 1
    20   10   13 1
    21   11   12 1
    22   13   14 1
    23   13   24 1
    24   13   25 1
    25   14   15 1
    26   14   26 1
    27   14   27 1
    28   15   16 1
    29   15   17 1
    30   15   32 1
    31   17   28 1
    32   17   29 1
    33   30   32 1
    34   31   32 1
    35   32   33 1
@<TRIPOS>MOLECULE
ZINC13745611
   33    35     0     0     0
SMALL
USER_CHARGES
(3S)-6-methoxy-2,3,4,9-tetrahydro-1H-carbazol-3-amine
@<TRIPOS>ATOM
      1 C1         -0.0127    1.0858    0.0080 C.3       1 <0>         0.0251
      2 O1         -0.6816    1.5467    1.1837 O.3       1 <0>        -0.3169
      3 C2         -0.1484    1.1819    2.3804 C.ar      1 <0>         0.1170
      4 C3          0.9991    0.3937    2.4169 C.ar      1 <0>        -0.1724
      5 C4          1.5516    0.0158    3.6200 C.ar      1 <0>        -0.0814
      6 C5          0.9644    0.4210    4.8138 C.ar      1 <0>         0.0655
      7 C6         -0.1955    1.2180    4.7809 C.ar      1 <0>        -0.0525
      8 C7         -0.7436    1.5991    3.5536 C.ar      1 <0>        -0.1239
      9 C8         -0.5508    1.4634    6.1750 C.2       1 <0>        -0.1960
     10 C9          0.3628    0.8358    6.9400 C.2       1 <0>         0.0945
     11 N1          1.2763    0.2086    6.1412 N.pl3     1 <0>        -0.5801
     12 H1          2.0321   -0.3093    6.4598 H         1 <0>         0.4204
     13 C10         0.3405    0.8484    8.4514 C.3       1 <0>        -0.0567
     14 C11        -1.0520    1.2911    8.9141 C.3       1 <0>        -0.1358
     15 C12        -1.4476    2.5782    8.1848 C.3       1 <0>         0.0306
     16 H2         -0.6383    3.3041    8.2630 H         1 <0>         0.1472
     17 C13        -1.7117    2.2635    6.7073 C.3       1 <0>        -0.0565
     18 H3          0.0021   -0.0041    0.0020 H         1 <0>         0.0577
     19 H4          1.0099    1.4631    0.0003 H         1 <0>         0.0576
     20 H5         -0.5399    1.4469   -0.8751 H         1 <0>         0.1046
     21 H6          1.4596    0.0757    1.4932 H         1 <0>         0.1384
     22 H7          2.4418   -0.5955    3.6367 H         1 <0>         0.1297
     23 H8         -1.6308    2.2141    3.5231 H         1 <0>         0.1303
     24 H9          0.5509   -0.1522    8.8290 H         1 <0>         0.1011
     25 H10         1.0894    1.5479    8.8228 H         1 <0>         0.0973
     26 H11        -1.7759    0.5083    8.6879 H         1 <0>         0.0964
     27 H12        -1.0370    1.4725    9.9888 H         1 <0>         0.0981
     28 H13        -1.8044    3.1929    6.1454 H         1 <0>         0.0972
     29 H14        -2.6297    1.6830    6.6150 H         1 <0>         0.0912
     30 H15        -2.5154    3.3461    9.7687 H         1 <0>         0.4387
     31 H16        -2.9819    3.9469    8.2897 H         1 <0>         0.4402
     32 N2         -2.6798    3.1130    8.7908 N.4       1 <0>        -0.6445
     33 H17        -3.4190    2.4027    8.7354 H         1 <0>         0.4382
@<TRIPOS>BOND
     1    1    2 1
     2    1   18 1
     3    1   19 1
     4    1   20 1
     5    2    3 1
     6    3    8 ar
     7    3    4 ar
     8    4    5 ar
     9    4   21 1
    10    5    6 ar
    11    5   22 1
    12    6   11 1
    13    6    7 ar
    14    7    8 ar
    15    7    9 1
    16    8   23 1
    17    9   17 1
    18    9   10 2
    19   10   11 1
    20   10   13 1
    21   11   12 1
    22   13   14 1
    23   13   24 1
    24   13   25 1
    25   14   15 1
    26   14   26 1
    27   14   27 1
    28   15   16 1
    29   15   17 1
    30   15   32 1
    31   17   28 1
    32   17   29 1
    33   30   32 1
    34   31   32 1
    35   32   33 1
@<TRIPOS>MOLECULE
ZINC13745590
   35    36     0     0     0
SMALL
USER_CHARGES
2-(5-propoxy-1H-indol-3-yl)ethanamine
@<TRIPOS>ATOM
      1 C1          6.6277    6.1815    4.8511 C.3       1 <0>        -0.1529
      2 C2          5.4676    5.8823    3.8995 C.3       1 <0>        -0.1231
      3 C3          4.7712    4.5912    4.3344 C.3       1 <0>         0.0576
      4 O1          3.6877    4.3118    3.4456 O.3       1 <0>        -0.3165
      5 C4          2.9594    3.1904    3.6934 C.ar      1 <0>         0.1216
      6 C5          3.2863    2.3761    4.7749 C.ar      1 <0>        -0.1756
      7 C6          2.5592    1.2374    5.0403 C.ar      1 <0>        -0.0783
      8 C7          1.4870    0.8911    4.2247 C.ar      1 <0>         0.0601
      9 C8          1.1578    1.7083    3.1287 C.ar      1 <0>        -0.0592
     10 C9          1.8990    2.8640    2.8721 C.ar      1 <0>        -0.1303
     11 C10         0.0000    1.0800    2.4877 C.2       1 <0>        -0.2147
     12 C11        -0.2851   -0.0277    3.1904 C.2       1 <0>         0.0949
     13 N1          0.5920   -0.1580    4.2321 N.pl3     1 <0>        -0.5862
     14 H1          0.5857   -0.8808    4.8790 H         1 <0>         0.4234
     15 C12        -0.7288    1.5792    1.2668 C.3       1 <0>        -0.0611
     16 C13        -0.0127    1.0858    0.0080 C.3       1 <0>        -0.0043
     17 H2          7.1238    7.1012    4.5413 H         1 <0>         0.0679
     18 H3          6.2450    6.2988    5.8649 H         1 <0>         0.0592
     19 H4          7.3408    5.3575    4.8251 H         1 <0>         0.0587
     20 H5          5.8503    5.7649    2.8857 H         1 <0>         0.0735
     21 H6          4.7545    6.7063    3.9256 H         1 <0>         0.0743
     22 H7          4.3885    4.7086    5.3482 H         1 <0>         0.0643
     23 H8          5.4843    3.7673    4.3083 H         1 <0>         0.0638
     24 H9          4.1176    2.6405    5.4115 H         1 <0>         0.1368
     25 H10         2.8212    0.6133    5.8819 H         1 <0>         0.1297
     26 H11         1.6465    3.4963    2.0337 H         1 <0>         0.1268
     27 H12        -1.0879   -0.7145    2.9663 H         1 <0>         0.1741
     28 H13        -0.7436    2.6691    1.2728 H         1 <0>         0.0923
     29 H14        -1.7514    1.2020    1.2746 H         1 <0>         0.0913
     30 H15         0.0021   -0.0041    0.0020 H         1 <0>         0.1306
     31 H16         1.0099    1.4631    0.0003 H         1 <0>         0.1347
     32 H17        -0.8068    2.5779   -1.1674 H         1 <0>         0.4370
     33 H18        -0.2694    1.2597   -2.0273 H         1 <0>         0.4394
     34 N2         -0.7456    1.5611   -1.1787 N.4       1 <0>        -0.6479
     35 H19        -1.6942    1.1683   -1.1693 H         1 <0>         0.4382
@<TRIPOS>BOND
     1    1    2 1
     2    1   17 1
     3    1   18 1
     4    1   19 1
     5    2    3 1
     6    2   20 1
     7    2   21 1
     8    3    4 1
     9    3   22 1
    10    3   23 1
    11    4    5 1
    12    5   10 ar
    13    5    6 ar
    14    6    7 ar
    15    6   24 1
    16    7    8 ar
    17    7   25 1
    18    8   13 1
    19    8    9 ar
    20    9   10 ar
    21    9   11 1
    22   10   26 1
    23   11   12 2
    24   11   15 1
    25   12   13 1
    26   12   27 1
    27   13   14 1
    28   15   16 1
    29   15   28 1
    30   15   29 1
    31   16   30 1
    32   16   31 1
    33   16   34 1
    34   32   34 1
    35   33   34 1
    36   34   35 1
@<TRIPOS>MOLECULE
ZINC00000870
   30    31     0     0     0
SMALL
USER_CHARGES
1-[3-(2-aminoethyl)-1H-indol-5-yl]ethanone
@<TRIPOS>ATOM
      1 C1          3.4936    5.2197    2.2199 C.3       1 <0>        -0.1928
      2 C2          3.7629    4.3909    3.4494 C.2       1 <0>         0.3904
      3 O1          4.6340    4.7225    4.2254 O.2       1 <0>        -0.4491
      4 C3          2.9701    3.1812    3.7081 C.ar      1 <0>        -0.1829
      5 C4          3.2957    2.3458    4.7896 C.ar      1 <0>        -0.0422
      6 C5          2.5701    1.2207    5.0408 C.ar      1 <0>        -0.1306
      7 C6          1.4905    0.8836    4.2249 C.ar      1 <0>         0.1244
      8 C7          1.1558    1.7100    3.1335 C.ar      1 <0>        -0.1172
      9 C8          1.8944    2.8620    2.8797 C.ar      1 <0>        -0.0299
     10 C9         -0.0073    1.0862    2.4954 C.2       1 <0>        -0.1983
     11 C10        -0.2870   -0.0243    3.1948 C.2       1 <0>         0.0851
     12 N1          0.5977   -0.1597    4.2304 N.pl3     1 <0>        -0.5839
     13 H1          0.5947   -0.8861    4.8732 H         1 <0>         0.4263
     14 C11        -0.7440    1.5919    1.2819 C.3       1 <0>        -0.0641
     15 C12        -0.0363    1.1047    0.0159 C.3       1 <0>        -0.0044
     16 H2          2.6965    4.8540    1.7394 H         1 <0>         0.0699
     17 H3          3.2995    6.2515    2.5126 H         1 <0>         0.0961
     18 H4          4.3618    5.1859    1.5617 H         1 <0>         0.0971
     19 H5          4.1297    2.5979    5.4278 H         1 <0>         0.1421
     20 H6          2.8317    0.5872    5.8754 H         1 <0>         0.1327
     21 H7          1.6396    3.5003    2.0466 H         1 <0>         0.1322
     22 H8         -1.0913   -0.7102    2.9731 H         1 <0>         0.1765
     23 H9         -0.7584    2.6817    1.2936 H         1 <0>         0.0939
     24 H10        -1.7667    1.2149    1.2944 H         1 <0>         0.0939
     25 H11        -0.0220    0.0149    0.0042 H         1 <0>         0.1318
     26 H12         0.9863    1.4817    0.0034 H         1 <0>         0.1348
     27 H13        -0.8377    2.6030   -1.1466 H         1 <0>         0.4370
     28 H14        -0.3063    1.2891   -2.0167 H         1 <0>         0.4404
     29 N2         -0.7768    1.5863   -1.1635 N.4       1 <0>        -0.6481
     30 H15        -1.7254    1.1937   -1.1499 H         1 <0>         0.4391
@<TRIPOS>BOND
     1    1    2 1
     2    1   16 1
     3    1   17 1
     4    1   18 1
     5    2    3 2
     6    2    4 1
     7    4    9 ar
     8    4    5 ar
     9    5    6 ar
    10    5   19 1
    11    6    7 ar
    12    6   20 1
    13    7   12 1
    14    7    8 ar
    15    8    9 ar
    16    8   10 1
    17    9   21 1
    18   10   11 2
    19   10   14 1
    20   11   12 1
    21   11   22 1
    22   12   13 1
    23   14   15 1
    24   14   23 1
    25   14   24 1
    26   15   25 1
    27   15   26 1
    28   15   29 1
    29   27   29 1
    30   28   29 1
    31   29   30 1
@<TRIPOS>MOLECULE
ZINC00015515
   43    45     0     0     0
SMALL
USER_CHARGES

@<TRIPOS>ATOM
      1 C1         -0.0178    1.4648    0.0101 C.3       1 <0>        -0.0471
      2 N1          0.0021   -0.0041    0.0020 N.4       1 <0>        -0.3886
      3 C2          0.7126   -0.4907    1.1921 C.3       1 <0>        -0.0527
      4 C3         -1.3761   -0.5125    0.0124 C.3       1 <0>        -0.0087
      5 C4         -1.3584   -2.0365   -0.1216 C.3       1 <0>        -0.0607
      6 C5         -2.7722   -2.5582   -0.1109 C.2       1 <0>        -0.2038
      7 C6         -3.4483   -3.0106    0.9568 C.2       1 <0>         0.0869
      8 N2         -4.7052   -3.4010    0.5822 N.pl3     1 <0>        -0.5871
      9 H1         -5.3778   -3.7624    1.1803 H         1 <0>         0.4240
     10 C7         -4.8728   -3.2042   -0.7702 C.ar      1 <0>         0.0959
     11 C8         -3.6716   -2.6617   -1.2627 C.ar      1 <0>        -0.0955
     12 C9         -3.5517   -2.3510   -2.6183 C.ar      1 <0>        -0.0825
     13 C10        -4.6048   -2.5723   -3.4607 C.ar      1 <0>        -0.0995
     14 C11        -5.7932   -3.1034   -2.9792 C.ar      1 <0>        -0.0885
     15 C12        -5.9299   -3.4260   -1.6465 C.ar      1 <0>        -0.1148
     16 C13        -4.4748   -2.2367   -4.9240 C.3       1 <0>        -0.0841
     17 C14        -3.9414   -3.4545   -5.6812 C.3       1 <0>         0.0969
     18 H2         -4.5631   -4.3296   -5.4923 H         1 <0>         0.1029
     19 C15        -3.8474   -3.1625   -7.1977 C.3       1 <0>         0.0412
     20 O1         -2.6339   -3.8494   -7.5609 O.3       1 <0>        -0.3237
     21 C16        -1.8515   -3.9154   -6.4706 C.2       1 <0>         0.6446
     22 O2         -0.6563   -4.1299   -6.5129 O.2       1 <0>        -0.5150
     23 N3         -2.5346   -3.7218   -5.3222 N.am      1 <0>        -0.7365
     24 H3          1.0047    1.8421    0.0024 H         1 <0>         0.1243
     25 H4         -0.5450    1.8259   -0.8730 H         1 <0>         0.1226
     26 H5         -0.5280    1.8163    0.9069 H         1 <0>         0.1212
     27 H6          0.2024   -0.1392    2.0889 H         1 <0>         0.1217
     28 H7          0.7273   -1.5806    1.1861 H         1 <0>         0.1248
     29 H8          1.7352   -0.1134    1.1844 H         1 <0>         0.1241
     30 H9         -1.8584   -0.2358    0.9500 H         1 <0>         0.1288
     31 H10        -1.9290   -0.0808   -0.8218 H         1 <0>         0.1299
     32 H11        -0.8762   -2.3132   -1.0592 H         1 <0>         0.0914
     33 H12        -0.8055   -2.4683    0.7126 H         1 <0>         0.0919
     34 H13        -3.0579   -3.0597    1.9626 H         1 <0>         0.1733
     35 H14        -2.6302   -1.9368   -2.9999 H         1 <0>         0.1179
     36 H15        -6.6168   -3.2720   -3.6571 H         1 <0>         0.1334
     37 H16        -6.8592   -3.8377   -1.2812 H         1 <0>         0.1276
     38 H17        -5.4514   -1.9607   -5.3217 H         1 <0>         0.0989
     39 H18        -3.7841   -1.4022   -5.0454 H         1 <0>         0.0840
     40 H19        -4.7039   -3.5787   -7.7280 H         1 <0>         0.1254
     41 H20        -3.7591   -2.0920   -7.3832 H         1 <0>         0.0970
     42 H21        -2.1690   -3.7504   -4.4242 H         1 <0>         0.4311
     43 H22         0.4744   -0.3295   -0.8281 H         1 <0>         0.4271
@<TRIPOS>BOND
     1    1    2 1
     2    1   24 1
     3    1   25 1
     4    1   26 1
     5    2    3 1
     6    2    4 1
     7    2   43 1
     8    3   27 1
     9    3   28 1
    10    3   29 1
    11    4    5 1
    12    4   30 1
    13    4   31 1
    14    5    6 1
    15    5   32 1
    16    5   33 1
    17    6   11 1
    18    6    7 2
    19    7    8 1
    20    7   34 1
    21    8    9 1
    22    8   10 1
    23   10   15 ar
    24   10   11 ar
    25   11   12 ar
    26   12   13 ar
    27   12   35 1
    28   13   14 ar
    29   13   16 1
    30   14   15 ar
    31   14   36 1
    32   15   37 1
    33   16   17 1
    34   16   38 1
    35   16   39 1
    36   17   18 1
    37   17   23 1
    38   17   19 1
    39   19   20 1
    40   19   40 1
    41   19   41 1
    42   20   21 1
    43   21   22 2
    44   21   23 am
    45   23   42 1
@<TRIPOS>MOLECULE
ZINC00599925
   54    56     0     0     0
SMALL
USER_CHARGES

@<TRIPOS>ATOM
      1 C1         -0.0224    1.4620   -0.0128 C.3       1 <0>        -0.0477
      2 N1         -0.0039   -0.0069   -0.0210 N.4       1 <0>        -0.3874
      3 C2          0.7150   -0.4942    1.1637 C.3       1 <0>        -0.0535
      4 C3         -1.3824   -0.5141   -0.0003 C.3       1 <0>        -0.0117
      5 C4         -1.3672   -2.0381   -0.1345 C.3       1 <0>        -0.1448
      6 C5         -2.8029   -2.5664   -0.1128 C.3       1 <0>        -0.0709
      7 C6         -2.7879   -4.0675   -0.2450 C.ar      1 <0>        -0.1298
      8 C7         -2.9384   -4.8578    0.8728 C.ar      1 <0>        -0.0351
      9 C8         -2.9243   -6.2495    0.7491 C.ar      1 <0>        -0.1397
     10 C9         -2.7575   -6.8338   -0.5096 C.ar      1 <0>        -0.0626
     11 C10        -2.6077   -6.0367   -1.6221 C.ar      1 <0>        -0.1454
     12 C11        -2.6280   -4.6524   -1.4955 C.ar      1 <0>         0.1405
     13 O1         -2.4860   -3.8702   -2.5954 O.3       1 <0>        -0.4896
     14 C12        -3.0847   -7.1001    1.9443 C.2       1 <0>         0.5597
     15 O2         -3.2293   -6.5901    3.0386 O.2       1 <0>        -0.5127
     16 N2         -3.0708   -8.4423    1.8229 N.am      1 <0>        -0.6664
     17 C13        -3.1253   -9.2473    2.9632 C.ar      1 <0>         0.1455
     18 C14        -3.8827   -8.8486    4.0587 C.ar      1 <0>        -0.1167
     19 C15        -3.9380   -9.6413    5.1849 C.ar      1 <0>        -0.0826
     20 C16        -3.2338  -10.8441    5.2247 C.ar      1 <0>        -0.0638
     21 C17        -2.4752  -11.2422    4.1246 C.ar      1 <0>        -0.0818
     22 C18        -2.4268  -10.4487    2.9987 C.ar      1 <0>        -0.1394
     23 C19        -3.2913  -11.6984    6.4354 C.ar      1 <0>         0.0004
     24 C20        -4.0506  -11.3193    7.5465 C.ar      1 <0>        -0.1682
     25 C21        -4.0766  -12.1439    8.6521 C.ar      1 <0>         0.1054
     26 N3         -3.3981  -13.2753    8.6692 N.ar      1 <0>        -0.4862
     27 C22        -2.6697  -13.6697    7.6422 C.ar      1 <0>         0.1053
     28 C23        -2.5924  -12.9079    6.4948 C.ar      1 <0>        -0.1683
     29 H1          1.0004    1.8383   -0.0282 H         1 <0>         0.1247
     30 H2         -0.5559    1.8235   -0.8919 H         1 <0>         0.1240
     31 H3         -0.5255    1.8140    0.8878 H         1 <0>         0.1224
     32 H4          0.7288   -1.5841    1.1576 H         1 <0>         0.1239
     33 H5          1.7379   -0.1178    1.1483 H         1 <0>         0.1248
     34 H6          0.2119   -0.1422    2.0643 H         1 <0>         0.1234
     35 H7         -1.8574   -0.2370    0.9409 H         1 <0>         0.1321
     36 H8         -1.9412   -0.0818   -0.8304 H         1 <0>         0.1336
     37 H9         -0.8922   -2.3153   -1.0756 H         1 <0>         0.0837
     38 H10        -0.8084   -2.4704    0.6956 H         1 <0>         0.0902
     39 H11        -3.2779   -2.2892    0.8283 H         1 <0>         0.0873
     40 H12        -3.3617   -2.1341   -0.9429 H         1 <0>         0.0932
     41 H13        -3.0667   -4.4024    1.8437 H         1 <0>         0.1437
     42 H14        -2.7457   -7.9092   -0.6093 H         1 <0>         0.1353
     43 H15        -2.4788   -6.4875   -2.5950 H         1 <0>         0.1428
     44 H16        -1.5687   -3.6443   -2.8016 H         1 <0>         0.3905
     45 H17        -3.0230   -8.8494    0.9438 H         1 <0>         0.4118
     46 H18        -4.4279   -7.9168    4.0273 H         1 <0>         0.1428
     47 H19        -4.5259   -9.3308    6.0360 H         1 <0>         0.1327
     48 H20        -1.9287  -12.1733    4.1535 H         1 <0>         0.1341
     49 H21        -1.8426  -10.7586    2.1448 H         1 <0>         0.1312
     50 H22        -4.6081  -10.3943    7.5395 H         1 <0>         0.1373
     51 H23        -4.6600  -11.8593    9.5153 H         1 <0>         0.1591
     52 H24        -2.1301  -14.6035    7.6991 H         1 <0>         0.1591
     53 H25        -1.9977  -13.2389    5.6563 H         1 <0>         0.1373
     54 H26         0.4618   -0.3327   -0.8547 H         1 <0>         0.4263
@<TRIPOS>BOND
     1    1    2 1
     2    1   29 1
     3    1   30 1
     4    1   31 1
     5    2    3 1
     6    2    4 1
     7    2   54 1
     8    3   32 1
     9    3   33 1
    10    3   34 1
    11    4    5 1
    12    4   35 1
    13    4   36 1
    14    5    6 1
    15    5   37 1
    16    5   38 1
    17    6    7 1
    18    6   39 1
    19    6   40 1
    20    7   12 ar
    21    7    8 ar
    22    8    9 ar
    23    8   41 1
    24    9   10 ar
    25    9   14 1
    26   10   11 ar
    27   10   42 1
    28   11   12 ar
    29   11   43 1
    30   12   13 1
    31   13   44 1
    32   14   15 2
    33   14   16 am
    34   16   17 1
    35   16   45 1
    36   17   22 ar
    37   17   18 ar
    38   18   19 ar
    39   18   46 1
    40   19   20 ar
    41   19   47 1
    42   20   21 ar
    43   20   23 1
    44   21   22 ar
    45   21   48 1
    46   22   49 1
    47   23   28 ar
    48   23   24 ar
    49   24   25 ar
    50   24   50 1
    51   25   26 ar
    52   25   51 1
    53   26   27 ar
    54   27   28 ar
    55   27   52 1
    56   28   53 1
@<TRIPOS>MOLECULE
ZINC02022527
   54    55     0     0     0
SMALL
USER_CHARGES

@<TRIPOS>ATOM
      1 C1         -3.0730    2.2881   -4.2693 C.3       1 <0>        -0.1569
      2 C2         -2.3049    1.5870   -3.1471 C.3       1 <0>        -0.1270
      3 C3         -2.8110    2.0874   -1.7927 C.3       1 <0>        -0.1231
      4 C4         -2.0429    1.3862   -0.6705 C.3       1 <0>        -0.1174
      5 C5         -2.5490    1.8867    0.6839 C.3       1 <0>        -0.1006
      6 C6         -2.2117    3.3722    0.8391 C.3       1 <0>        -0.1451
      7 C7         -2.6658    3.8518    2.2196 C.3       1 <0>        -0.0114
      8 C8         -2.3347    1.6429    3.1595 C.3       1 <0>        -0.0001
      9 C9         -1.8707    1.0973    1.8070 C.3       1 <0>        -0.1442
     10 C10        -2.2939    3.5901    4.5974 C.3       1 <0>        -0.0052
     11 C11        -2.1583    5.1140    4.5919 C.3       1 <0>        -0.1459
     12 C12        -2.4764    5.6593    5.9856 C.3       1 <0>        -0.1543
     13 C13        -2.3428    7.1604    5.9803 C.2       1 <0>         0.3987
     14 O1         -2.0245    7.7371    4.9623 O.2       1 <0>        -0.4456
     15 C14        -2.5986    7.9263    7.2106 C.ar      1 <0>        -0.1885
     16 C15        -3.0878    7.2813    8.3513 C.ar      1 <0>        -0.0705
     17 C16        -3.3195    8.0047    9.5018 C.ar      1 <0>        -0.1389
     18 C17        -3.0801    9.3679    9.5265 C.ar      1 <0>        -0.0729
     19 C18        -2.6016   10.0143    8.4004 C.ar      1 <0>        -0.1345
     20 C19        -2.3594    9.3036    7.2436 C.ar      1 <0>        -0.0178
     21 C20        -1.8387   10.0095    6.0182 C.3       1 <0>        -0.1264
     22 H1         -4.1363    2.0676   -4.1746 H         1 <0>         0.0549
     23 H2         -2.9175    3.3647   -4.1985 H         1 <0>         0.0540
     24 H3         -2.7125    1.9316   -5.2342 H         1 <0>         0.0581
     25 H4         -1.2417    1.8075   -3.2417 H         1 <0>         0.0621
     26 H5         -2.4605    0.5104   -3.2179 H         1 <0>         0.0631
     27 H6         -3.8743    1.8669   -1.6981 H         1 <0>         0.0644
     28 H7         -2.6555    3.1639   -1.7219 H         1 <0>         0.0632
     29 H8         -2.1984    0.3097   -0.7413 H         1 <0>         0.0733
     30 H9         -0.9796    1.6067   -0.7651 H         1 <0>         0.0688
     31 H10        -3.6287    1.7492    0.7427 H         1 <0>         0.0884
     32 H11        -1.1354    3.5132    0.7407 H         1 <0>         0.0881
     33 H12        -2.7264    3.9447    0.0675 H         1 <0>         0.1133
     34 H13        -3.7442    3.7233    2.3122 H         1 <0>         0.1295
     35 H14        -2.4142    4.9057    2.3388 H         1 <0>         0.1342
     36 H15        -3.4146    1.5248    3.2476 H         1 <0>         0.1293
     37 H16        -1.8426    1.0924    3.9613 H         1 <0>         0.1282
     38 H17        -2.1418    0.0446    1.7270 H         1 <0>         0.1118
     39 H18        -0.7890    1.2025    1.7239 H         1 <0>         0.0880
     40 H19        -3.3133    3.3170    4.8704 H         1 <0>         0.1315
     41 H20        -1.5979    3.1659    5.3211 H         1 <0>         0.1302
     42 H21        -1.1389    5.3871    4.3190 H         1 <0>         0.0944
     43 H22        -2.8542    5.5382    3.8682 H         1 <0>         0.0968
     44 H23        -3.4115    5.4088    6.2361 H         1 <0>         0.0981
     45 H24        -1.7805    5.2352    6.7093 H         1 <0>         0.1100
     46 H25        -3.2793    6.2186    8.3321 H         1 <0>         0.1290
     47 H26        -3.6933    7.5074   10.3846 H         1 <0>         0.1322
     48 H27        -3.2682    9.9300   10.4293 H         1 <0>         0.1326
     49 H28        -2.4176   11.0782    8.4274 H         1 <0>         0.1332
     50 H29        -2.6709   10.2515    5.3572 H         1 <0>         0.0784
     51 H30        -1.3321   10.9277    6.3156 H         1 <0>         0.0652
     52 H31        -1.1365    9.3600    5.4956 H         1 <0>         0.0893
     53 N1         -1.9588    3.0696    3.2558 N.4       1 <0>        -0.3931
     54 H32        -0.9467    3.1581    3.1071 H         1 <0>         0.4272
@<TRIPOS>BOND
     1    1    2 1
     2    1   22 1
     3    1   23 1
     4    1   24 1
     5    2    3 1
     6    2   25 1
     7    2   26 1
     8    3    4 1
     9    3   27 1
    10    3   28 1
    11    4    5 1
    12    4   29 1
    13    4   30 1
    14    5    9 1
    15    5    6 1
    16    5   31 1
    17    6    7 1
    18    6   32 1
    19    6   33 1
    20    7   34 1
    21    7   35 1
    22    7   53 1
    23    8    9 1
    24    8   36 1
    25    8   37 1
    26    8   53 1
    27    9   38 1
    28    9   39 1
    29   10   11 1
    30   10   40 1
    31   10   41 1
    32   10   53 1
    33   11   12 1
    34   11   42 1
    35   11   43 1
    36   12   13 1
    37   12   44 1
    38   12   45 1
    39   13   14 2
    40   13   15 1
    41   15   20 ar
    42   15   16 ar
    43   16   17 ar
    44   16   46 1
    45   17   18 ar
    46   17   47 1
    47   18   19 ar
    48   18   48 1
    49   19   20 ar
    50   19   49 1
    51   20   21 1
    52   21   50 1
    53   21   51 1
    54   21   52 1
    55   53   54 1
@<TRIPOS>MOLECULE
ZINC00538337
   58    62     0     0     0
SMALL
USER_CHARGES

@<TRIPOS>ATOM
      1 C1         -0.0168    1.3842    0.0097 C.ar      1 <0>        -0.0898
      2 C2          1.1703    2.0901    0.0021 C.ar      1 <0>        -0.1344
      3 C3          2.3788    1.4141   -0.0135 C.ar      1 <0>         0.1119
      4 C4          2.3997    0.0295   -0.0216 C.ar      1 <0>        -0.1322
      5 C5          1.2148   -0.6800   -0.0137 C.ar      1 <0>        -0.0888
      6 C6          0.0021   -0.0041    0.0020 C.ar      1 <0>         0.1035
      7 N1         -1.2015   -0.7222    0.0101 N.pl3     1 <0>        -0.4255
      8 C7         -2.2407   -0.5077    0.8765 C.2       1 <0>         0.0751
      9 C8         -3.2397   -1.3652    0.6140 C.2       1 <0>        -0.1721
     10 C9         -2.8068   -2.1974   -0.5117 C.ar      1 <0>        -0.0841
     11 C10        -1.5194   -1.7470   -0.8569 C.ar      1 <0>         0.1032
     12 C11        -0.8430   -2.3517   -1.9103 C.ar      1 <0>        -0.1070
     13 C12        -1.4366   -3.3808   -2.6081 C.ar      1 <0>        -0.0841
     14 C13        -2.7089   -3.8239   -2.2706 C.ar      1 <0>        -0.0491
     15 C14        -3.3935   -3.2441   -1.2250 C.ar      1 <0>        -0.0671
     16 Cl1        -3.4366   -5.1218   -3.1648 Cl        1 <0>        -0.0596
     17 C15        -4.5571   -1.4553    1.3402 C.3       1 <0>        -0.0164
     18 C16        -4.3063   -1.7573    2.8204 C.3       1 <0>        -0.1397
     19 C17        -5.6422   -1.7687    3.5665 C.3       1 <0>        -0.0052
     20 N2         -6.2909   -0.4585    3.4359 N.4       1 <0>        -0.3798
     21 C18        -6.5994   -0.1937    2.0255 C.3       1 <0>        -0.0131
     22 C19        -5.3003   -0.1217    1.2201 C.3       1 <0>        -0.1392
     23 C20        -7.5345   -0.4493    4.2177 C.3       1 <0>        -0.0330
     24 C21        -8.1476    0.9521    4.1845 C.3       1 <0>         0.1326
     25 N3         -9.3878    0.9612    4.9641 N.am      1 <0>        -0.6351
     26 C22       -10.7283    0.6664    4.4362 C.3       1 <0>         0.0898
     27 C23       -11.6494    0.8170    5.6625 C.3       1 <0>         0.0871
     28 N4        -10.7301    1.1807    6.7511 N.am      1 <0>        -0.7327
     29 C24        -9.4802    1.2337    6.2723 C.2       1 <0>         0.7000
     30 O1         -8.5172    1.5083    6.9620 O.2       1 <0>        -0.5776
     31 F1          3.5389    2.1063   -0.0213 F         1 <0>        -0.1276
     32 H1         -0.9590    1.9118    0.0260 H         1 <0>         0.1391
     33 H2          1.1561    3.1700    0.0080 H         1 <0>         0.1488
     34 H3          3.3432   -0.4959   -0.0345 H         1 <0>         0.1499
     35 H4          1.2315   -1.7598   -0.0203 H         1 <0>         0.1411
     36 H5         -2.2541    0.2401    1.6556 H         1 <0>         0.1691
     37 H6          0.1466   -2.0149   -2.1816 H         1 <0>         0.1333
     38 H7         -0.9074   -3.8472   -3.4259 H         1 <0>         0.1426
     39 H8         -4.3833   -3.5900   -0.9659 H         1 <0>         0.1336
     40 H9         -5.1611   -2.2499    0.9021 H         1 <0>         0.0971
     41 H10        -3.8271   -2.7315    2.9171 H         1 <0>         0.1158
     42 H11        -3.6594   -0.9891    3.2440 H         1 <0>         0.0884
     43 H12        -6.2882   -2.5373    3.1423 H         1 <0>         0.1304
     44 H13        -5.4673   -1.9836    4.6207 H         1 <0>         0.1320
     45 H14        -7.2250   -0.9960    1.6341 H         1 <0>         0.1319
     46 H15        -7.1311    0.7541    1.9420 H         1 <0>         0.1316
     47 H16        -4.6740    0.6804    1.6106 H         1 <0>         0.0885
     48 H17        -5.5315    0.0731    0.1729 H         1 <0>         0.1159
     49 H18        -8.2379   -1.1638    3.7899 H         1 <0>         0.1318
     50 H19        -7.3173   -0.7265    5.2492 H         1 <0>         0.1351
     51 H20        -7.4442    1.6665    4.6123 H         1 <0>         0.1060
     52 H21        -8.3648    1.2293    3.1530 H         1 <0>         0.1030
     53 H22       -11.0011    1.3839    3.6624 H         1 <0>         0.0916
     54 H23       -10.7713   -0.3513    4.0481 H         1 <0>         0.0867
     55 H24       -12.3795    1.6093    5.4975 H         1 <0>         0.0926
     56 H25       -12.1498   -0.1259    5.8832 H         1 <0>         0.0914
     57 H26       -10.9875    1.3510    7.6707 H         1 <0>         0.4382
     58 H27        -5.6719    0.2583    3.7840 H         1 <0>         0.4243
@<TRIPOS>BOND
     1    1    6 ar
     2    1    2 ar
     3    1   32 1
     4    2    3 ar
     5    2   33 1
     6    3    4 ar
     7    3   31 1
     8    4    5 ar
     9    4   34 1
    10    5    6 ar
    11    5   35 1
    12    6    7 1
    13    7   11 1
    14    7    8 1
    15    8    9 2
    16    8   36 1
    17    9   10 1
    18    9   17 1
    19   10   15 ar
    20   10   11 ar
    21   11   12 ar
    22   12   13 ar
    23   12   37 1
    24   13   14 ar
    25   13   38 1
    26   14   15 ar
    27   14   16 1
    28   15   39 1
    29   17   22 1
    30   17   18 1
    31   17   40 1
    32   18   19 1
    33   18   41 1
    34   18   42 1
    35   19   20 1
    36   19   43 1
    37   19   44 1
    38   20   21 1
    39   20   23 1
    40   20   58 1
    41   21   22 1
    42   21   45 1
    43   21   46 1
    44   22   47 1
    45   22   48 1
    46   23   24 1
    47   23   49 1
    48   23   50 1
    49   24   25 1
    50   24   51 1
    51   24   52 1
    52   25   29 am
    53   25   26 1
    54   26   27 1
    55   26   53 1
    56   26   54 1
    57   27   28 1
    58   27   55 1
    59   27   56 1
    60   28   29 am
    61   28   57 1
    62   29   30 2
@<TRIPOS>MOLECULE
ZINC00004076
   49    51     0     0     0
SMALL
USER_CHARGES

@<TRIPOS>ATOM
      1 C1         -0.0178    1.4608    0.0101 C.3       1 <0>         0.0791
      2 N1          0.0021   -0.0041    0.0020 N.pl3     1 <0>        -1.1231
      3 S1          0.7184   -0.8155   -1.2513 S.o2      1 <0>         2.6114
      4 O1          0.5323   -2.1909   -0.9462 O.2       1 <0>        -0.9564
      5 O2          0.1475   -0.2497   -2.4231 O.2       1 <0>        -0.9490
      6 C2          2.4769   -0.3837   -1.1417 C.3       1 <0>        -0.6258
      7 C3          3.2451   -1.0851   -2.2637 C.3       1 <0>        -0.0696
      8 C4          4.7059   -0.7263   -2.1728 C.ar      1 <0>        -0.0915
      9 C5          5.1845    0.3886   -2.8476 C.ar      1 <0>        -0.0886
     10 C6          6.5162    0.7338   -2.7781 C.ar      1 <0>        -0.1201
     11 C7          7.3924   -0.0406   -2.0244 C.ar      1 <0>         0.0958
     12 C8          6.9024   -1.1689   -1.3421 C.ar      1 <0>        -0.0962
     13 C9          5.5477   -1.4976   -1.4223 C.ar      1 <0>        -0.0731
     14 C10         8.0540   -1.7580   -0.6546 C.2       1 <0>        -0.1861
     15 C11         9.1180   -0.9927   -0.9451 C.2       1 <0>         0.0687
     16 N2          8.7418    0.0382   -1.7624 N.pl3     1 <0>        -0.5890
     17 H1          9.3371    0.7228   -2.1057 H         1 <0>         0.4215
     18 C12         8.0458   -2.9892    0.2143 C.3       1 <0>        -0.0162
     19 C13         8.5253   -2.6254    1.6225 C.3       1 <0>        -0.1394
     20 C14         8.5904   -3.8933    2.4767 C.3       1 <0>        -0.0078
     21 N3          9.5262   -4.8482    1.8709 N.4       1 <0>        -0.3847
     22 C15         9.0353   -5.2566    0.5493 C.3       1 <0>        -0.0079
     23 C16         8.9873   -4.0411   -0.3791 C.3       1 <0>        -0.1397
     24 C17         9.6443   -6.0307    2.7346 C.3       1 <0>        -0.0475
     25 H2          1.0048    1.8381    0.0023 H         1 <0>         0.0585
     26 H3         -0.5450    1.8219   -0.8730 H         1 <0>         0.0714
     27 H4         -0.5280    1.8123    0.9069 H         1 <0>         0.0855
     28 H5         -0.4044   -0.4986    0.7308 H         1 <0>         0.4198
     29 H6          2.5929    0.6955   -1.2415 H         1 <0>         0.1339
     30 H7          2.8702   -0.7038   -0.1769 H         1 <0>         0.1327
     31 H8          3.1291   -2.1643   -2.1640 H         1 <0>         0.0890
     32 H9          2.8517   -0.7650   -3.2286 H         1 <0>         0.0923
     33 H10         4.5060    0.9910   -3.4333 H         1 <0>         0.1326
     34 H11         6.8790    1.6026   -3.3073 H         1 <0>         0.1264
     35 H12         5.1674   -2.3607   -0.8962 H         1 <0>         0.1218
     36 H13        10.1221   -1.1654   -0.5870 H         1 <0>         0.1660
     37 H14         7.0344   -3.3926    0.2653 H         1 <0>         0.0938
     38 H15         9.5160   -2.1744    1.5644 H         1 <0>         0.0866
     39 H16         7.8287   -1.9184    2.0729 H         1 <0>         0.1128
     40 H17         8.9313   -3.6378    3.4800 H         1 <0>         0.1305
     41 H18         7.5993   -4.3433    2.5343 H         1 <0>         0.1292
     42 H19         9.7046   -6.0075    0.1296 H         1 <0>         0.1308
     43 H20         8.0347   -5.6775    0.6480 H         1 <0>         0.1293
     44 H21         8.6209   -4.3460   -1.3593 H         1 <0>         0.1137
     45 H22         9.9876   -3.6195   -0.4787 H         1 <0>         0.0866
     46 H23         8.6664   -6.4994    2.8445 H         1 <0>         0.1218
     47 H24        10.3391   -6.7405    2.2856 H         1 <0>         0.1234
     48 H25        10.0151   -5.7295    3.7143 H         1 <0>         0.1233
     49 H26        10.4317   -4.4141    1.7729 H         1 <0>         0.4234
@<TRIPOS>BOND
     1    1    2 1
     2    1   25 1
     3    1   26 1
     4    1   27 1
     5    2    3 1
     6    2   28 1
     7    3    4 2
     8    3    5 2
     9    3    6 1
    10    6    7 1
    11    6   29 1
    12    6   30 1
    13    7    8 1
    14    7   31 1
    15    7   32 1
    16    8   13 ar
    17    8    9 ar
    18    9   10 ar
    19    9   33 1
    20   10   11 ar
    21   10   34 1
    22   11   16 1
    23   11   12 ar
    24   12   13 ar
    25   12   14 1
    26   13   35 1
    27   14   15 2
    28   14   18 1
    29   15   16 1
    30   15   36 1
    31   16   17 1
    32   18   23 1
    33   18   19 1
    34   18   37 1
    35   19   20 1
    36   19   38 1
    37   19   39 1
    38   20   21 1
    39   20   40 1
    40   20   41 1
    41   21   22 1
    42   21   24 1
    43   21   49 1
    44   22   23 1
    45   22   42 1
    46   22   43 1
    47   23   44 1
    48   23   45 1
    49   24   46 1
    50   24   47 1
    51   24   48 1
@<TRIPOS>MOLECULE
ZINC00018635
   36    38     0     0     0
SMALL
USER_CHARGES

@<TRIPOS>ATOM
      1 C1         -0.0178    1.4648    0.0101 C.3       1 <0>        -0.0518
      2 N1          0.0021   -0.0041    0.0020 N.4       1 <0>        -0.5073
      3 C2         -1.3761   -0.5125    0.0124 C.3       1 <0>         0.0240
      4 H1         -1.9294   -0.0810   -0.8217 H         1 <0>         0.1441
      5 C3         -2.0537   -0.1255    1.3300 C.3       1 <0>        -0.1358
      6 C4         -3.5525   -0.4328    1.2418 C.3       1 <0>        -0.0551
      7 C5         -3.7256   -1.8515    0.7522 C.2       1 <0>         0.0748
      8 C6         -2.7479   -2.5609    0.1494 C.2       1 <0>        -0.1709
      9 C7         -3.3002   -3.8628   -0.1656 C.ar      1 <0>        -0.1091
     10 C8         -2.7645   -4.9937   -0.7814 C.ar      1 <0>        -0.0006
     11 C9         -3.6158   -6.0942   -0.9175 C.ar      1 <0>        -0.1611
     12 C10        -4.9370   -6.0596   -0.4586 C.ar      1 <0>        -0.0638
     13 C11        -5.4723   -4.9535    0.1466 C.ar      1 <0>        -0.1286
     14 C12        -4.6437   -3.8400    0.2959 C.ar      1 <0>         0.1249
     15 N2         -4.8628   -2.6115    0.8420 N.pl3     1 <0>        -0.5734
     16 H2         -5.6991   -2.3182    1.2364 H         1 <0>         0.4237
     17 C13        -3.1086   -7.3223   -1.5615 C.2       1 <0>         0.5634
     18 O1         -1.9630   -7.3679   -1.9659 O.2       1 <0>        -0.5435
     19 N3         -3.9157   -8.3926   -1.7011 N.am      1 <0>        -0.8501
     20 C14        -1.3590   -2.0399   -0.1203 C.3       1 <0>        -0.0598
     21 H3          1.0047    1.8421    0.0024 H         1 <0>         0.1286
     22 H4         -0.5450    1.8259   -0.8730 H         1 <0>         0.1246
     23 H5         -0.5280    1.8163    0.9069 H         1 <0>         0.1248
     24 H6          0.4744   -0.3295   -0.8281 H         1 <0>         0.4335
     25 H7         -1.6130   -0.6969    2.1470 H         1 <0>         0.0969
     26 H8         -1.9112    0.9396    1.5129 H         1 <0>         0.0988
     27 H9         -4.0063   -0.3278    2.2273 H         1 <0>         0.1011
     28 H10        -4.0267    0.2560    0.5425 H         1 <0>         0.0967
     29 H11        -1.7443   -5.0179   -1.1351 H         1 <0>         0.1451
     30 H12        -5.5563   -6.9351   -0.5863 H         1 <0>         0.1307
     31 H13        -6.4947   -4.9432    0.4943 H         1 <0>         0.1403
     32 H14        -4.8297   -8.3562   -1.3784 H         1 <0>         0.4015
     33 H15        -3.5825   -9.1994   -2.1242 H         1 <0>         0.4086
     34 H16        -1.0535   -2.3162   -1.1295 H         1 <0>         0.1002
     35 H17        -0.6630   -2.4625    0.6043 H         1 <0>         0.0949
     36 H18         0.4901   -0.3383    0.8195 H         1 <0>         0.4296
@<TRIPOS>BOND
     1    1    2 1
     2    1   21 1
     3    1   22 1
     4    1   23 1
     5    2    3 1
     6    2   24 1
     7    2   36 1
     8    3    4 1
     9    3   20 1
    10    3    5 1
    11    5    6 1
    12    5   25 1
    13    5   26 1
    14    6    7 1
    15    6   27 1
    16    6   28 1
    17    7   15 1
    18    7    8 2
    19    8    9 1
    20    8   20 1
    21    9   14 ar
    22    9   10 ar
    23   10   11 ar
    24   10   29 1
    25   11   12 ar
    26   11   17 1
    27   12   13 ar
    28   12   30 1
    29   13   14 ar
    30   13   31 1
    31   14   15 1
    32   15   16 1
    33   17   18 2
    34   17   19 am
    35   19   32 1
    36   19   33 1
    37   20   34 1
    38   20   35 1
@<TRIPOS>MOLECULE
ZINC00014360
   42    43     0     0     0
SMALL
USER_CHARGES

@<TRIPOS>ATOM
      1 C1         -0.0178    1.4608    0.0101 C.3       1 <0>         0.0793
      2 N1          0.0021   -0.0041    0.0020 N.pl3     1 <0>        -1.1235
      3 S1          0.7421   -0.8289    1.2326 S.o2      1 <0>         2.6084
      4 O1          0.5924   -2.2002    0.8914 O.2       1 <0>        -0.9468
      5 O2          2.0334   -0.2448    1.3355 O.2       1 <0>        -0.9510
      6 C2         -0.2382   -0.4417    2.7090 C.3       1 <0>        -0.5828
      7 C3          0.3516   -1.1474    3.9028 C.ar      1 <0>        -0.1049
      8 C4         -0.0784   -2.4267    4.2282 C.ar      1 <0>        -0.0826
      9 C5          0.4473   -3.0893    5.3155 C.ar      1 <0>        -0.1137
     10 C6          1.4193   -2.4726    6.0968 C.ar      1 <0>         0.1042
     11 C7          1.8519   -1.1765    5.7625 C.ar      1 <0>        -0.0991
     12 C8          1.3091   -0.5253    4.6530 C.ar      1 <0>        -0.0640
     13 C9          2.8614   -0.8166    6.7612 C.2       1 <0>        -0.2000
     14 C10         2.9754   -1.8603    7.5977 C.2       1 <0>         0.0879
     15 N2          2.1214   -2.8591    7.2163 N.pl3     1 <0>        -0.5851
     16 H1          2.0253   -3.7124    7.6673 H         1 <0>         0.4255
     17 C11         3.6270    0.4793    6.8351 C.3       1 <0>        -0.0627
     18 C12         2.7992    1.5182    7.5943 C.3       1 <0>        -0.0095
     19 N3          3.5455    2.7814    7.6664 N.4       1 <0>        -0.3881
     20 C13         3.7116    3.3299    6.3138 C.3       1 <0>        -0.0545
     21 C14         2.8051    3.7410    8.4964 C.3       1 <0>        -0.0469
     22 H2          1.0048    1.8381    0.0023 H         1 <0>         0.0693
     23 H3         -0.5450    1.8219   -0.8730 H         1 <0>         0.0876
     24 H4         -0.5280    1.8123    0.9069 H         1 <0>         0.0574
     25 H5         -0.4183   -0.4908   -0.7241 H         1 <0>         0.4222
     26 H6         -0.2266    0.6346    2.8808 H         1 <0>         0.1378
     27 H7         -1.2653   -0.7750    2.5608 H         1 <0>         0.1453
     28 H8         -0.8329   -2.9072    3.6230 H         1 <0>         0.1399
     29 H9          0.1057   -4.0841    5.5609 H         1 <0>         0.1340
     30 H10         1.6421    0.4681    4.3911 H         1 <0>         0.1262
     31 H11         3.6421   -1.9048    8.4461 H         1 <0>         0.1761
     32 H12         4.5701    0.3149    7.3563 H         1 <0>         0.0931
     33 H13         3.8275    0.8410    5.8266 H         1 <0>         0.0945
     34 H14         1.8561    1.6826    7.0732 H         1 <0>         0.1293
     35 H15         2.5988    1.1565    8.6029 H         1 <0>         0.1303
     36 H16         4.2654    4.2672    6.3673 H         1 <0>         0.1245
     37 H17         4.2611    2.6179    5.6980 H         1 <0>         0.1265
     38 H18         2.7316    3.5116    5.8726 H         1 <0>         0.1219
     39 H19         2.6818    3.3340    9.5001 H         1 <0>         0.1225
     40 H20         3.3588    4.6783    8.5499 H         1 <0>         0.1241
     41 H21         1.8251    3.9226    8.0552 H         1 <0>         0.1209
     42 H22         4.4527    2.6132    8.0749 H         1 <0>         0.4266
@<TRIPOS>BOND
     1    1    2 1
     2    1   22 1
     3    1   23 1
     4    1   24 1
     5    2    3 1
     6    2   25 1
     7    3    4 2
     8    3    5 2
     9    3    6 1
    10    6    7 1
    11    6   26 1
    12    6   27 1
    13    7   12 ar
    14    7    8 ar
    15    8    9 ar
    16    8   28 1
    17    9   10 ar
    18    9   29 1
    19   10   15 1
    20   10   11 ar
    21   11   12 ar
    22   11   13 1
    23   12   30 1
    24   13   14 2
    25   13   17 1
    26   14   15 1
    27   14   31 1
    28   15   16 1
    29   17   18 1
    30   17   32 1
    31   17   33 1
    32   18   19 1
    33   18   34 1
    34   18   35 1
    35   19   20 1
    36   19   21 1
    37   19   42 1
    38   20   36 1
    39   20   37 1
    40   20   38 1
    41   21   39 1
    42   21   40 1
    43   21   41 1
@<TRIPOS>MOLECULE
ZINC00005452
   39    41     0     0     0
SMALL
USER_CHARGES
5-methoxy-3-[(1-methylpyrrolidin-2-yl)methyl]-1H-indole
@<TRIPOS>ATOM
      1 C1         -1.6841    9.0297    1.5032 C.3       1 <0>        -0.0368
      2 C2         -3.0315    7.4227    2.7405 C.3       1 <0>        -0.0068
      3 C3         -3.1188    5.8837    2.8256 C.3       1 <0>        -0.1503
      4 C4         -1.9302    5.3679    1.9884 C.3       1 <0>        -0.1424
      5 C5         -1.2248    6.6387    1.4679 C.3       1 <0>         0.0298
      6 H1         -0.4009    6.9130    2.1268 H         1 <0>         0.1384
      7 C6         -0.7160    6.4203    0.0416 C.3       1 <0>        -0.0465
      8 C7          0.3684    5.3738    0.0498 C.2       1 <0>        -0.2067
      9 C8          1.6886    5.5931    0.1542 C.2       1 <0>         0.0924
     10 N1          2.3630    4.4032    0.1252 N.pl3     1 <0>        -0.5867
     11 H2          3.3263    4.3069    0.1857 H         1 <0>         0.4229
     12 C9          1.4688    3.3611   -0.0020 C.ar      1 <0>         0.0611
     13 C10         0.1812    3.9246   -0.0546 C.ar      1 <0>        -0.0557
     14 C11        -0.9373    3.0988   -0.1842 C.ar      1 <0>        -0.1291
     15 C12        -0.7694    1.7306   -0.2647 C.ar      1 <0>         0.1169
     16 C13         0.5062    1.1756   -0.2070 C.ar      1 <0>        -0.1757
     17 C14         1.6164    1.9805   -0.0796 C.ar      1 <0>        -0.0788
     18 O1         -1.8546    0.9217   -0.3958 O.3       1 <0>        -0.3181
     19 C15        -1.6107   -0.4845   -0.4680 C.3       1 <0>         0.0252
     20 H3         -1.1449    9.1994    0.5712 H         1 <0>         0.1237
     21 H4         -2.4730    9.7745    1.6074 H         1 <0>         0.1231
     22 H5         -0.9935    9.1119    2.3425 H         1 <0>         0.1172
     23 H6         -4.0294    7.8574    2.6826 H         1 <0>         0.1356
     24 H7         -2.4935    7.8210    3.6007 H         1 <0>         0.1301
     25 H8         -4.0603    5.5339    2.4020 H         1 <0>         0.0986
     26 H9         -3.0234    5.5557    3.8607 H         1 <0>         0.1076
     27 H10        -2.2883    4.7650    1.1539 H         1 <0>         0.1023
     28 H11        -1.2509    4.7859    2.6111 H         1 <0>         0.1072
     29 H12        -0.3151    7.3559   -0.3484 H         1 <0>         0.0904
     30 H13        -1.5387    6.0861   -0.5904 H         1 <0>         0.0922
     31 H14         2.1501    6.5651    0.2473 H         1 <0>         0.1729
     32 H15        -1.9275    3.5279   -0.2249 H         1 <0>         0.1272
     33 H16         0.6264    0.1040   -0.2672 H         1 <0>         0.1372
     34 H17         2.6014    1.5396   -0.0395 H         1 <0>         0.1291
     35 H18        -1.1085   -0.8133    0.4418 H         1 <0>         0.0575
     36 H19        -2.5585   -1.0128   -0.5712 H         1 <0>         0.1042
     37 H20        -0.9790   -0.6999   -1.3298 H         1 <0>         0.0581
     38 N2         -2.2807    7.6568    1.5093 N.4       1 <0>        -0.3963
     39 H21        -2.8996    7.5547    0.6964 H         1 <0>         0.4288
@<TRIPOS>BOND
     1    1   20 1
     2    1   21 1
     3    1   22 1
     4    1   38 1
     5    2    3 1
     6    2   23 1
     7    2   24 1
     8    2   38 1
     9    3    4 1
    10    3   25 1
    11    3   26 1
    12    4    5 1
    13    4   27 1
    14    4   28 1
    15    5    6 1
    16    5    7 1
    17    5   38 1
    18    7    8 1
    19    7   29 1
    20    7   30 1
    21    8   13 1
    22    8    9 2
    23    9   10 1
    24    9   31 1
    25   10   11 1
    26   10   12 1
    27   12   17 ar
    28   12   13 ar
    29   13   14 ar
    30   14   15 ar
    31   14   32 1
    32   15   16 ar
    33   15   18 1
    34   16   17 ar
    35   16   33 1
    36   17   34 1
    37   18   19 1
    38   19   35 1
    39   19   36 1
    40   19   37 1
    41   38   39 1
@<TRIPOS>MOLECULE
ZINC03779247
   39    41     0     0     0
SMALL
USER_CHARGES
5-methoxy-3-[(1-methylpyrrolidin-2-yl)methyl]-1H-indole
@<TRIPOS>ATOM
      1 C1         -0.0127    1.0858    0.0080 C.3       1 <0>        -0.0468
      2 C2         -0.0154    1.0869    2.4338 C.3       1 <0>        -0.0141
      3 C3          0.3473    2.3336    3.2677 C.3       1 <0>        -0.1410
      4 C4         -0.6531    3.4018    2.7526 C.3       1 <0>        -0.1410
      5 C5         -0.7548    3.0366    1.2506 C.3       1 <0>         0.0313
      6 H1          0.0848    3.4601    0.6994 H         1 <0>         0.1399
      7 C6         -2.0800    3.5343    0.6700 C.3       1 <0>        -0.0538
      8 C7         -2.1382    3.2084   -0.8002 C.2       1 <0>        -0.2329
      9 C8         -1.7983    4.0222   -1.8122 C.2       1 <0>         0.1039
     10 N1         -1.9828    3.3827   -3.0074 N.pl3     1 <0>        -0.5849
     11 H2         -1.8055    3.7688   -3.8794 H         1 <0>         0.4255
     12 C9         -2.4588    2.1072   -2.7874 C.ar      1 <0>         0.0637
     13 C10        -2.5704    1.9414   -1.3952 C.ar      1 <0>        -0.0724
     14 C11        -3.0413    0.7357   -0.8714 C.ar      1 <0>        -0.1531
     15 C12        -3.3818   -0.2930   -1.7272 C.ar      1 <0>         0.1281
     16 C13        -3.2638   -0.1281   -3.1046 C.ar      1 <0>        -0.1762
     17 C14        -2.8073    1.0592   -3.6324 C.ar      1 <0>        -0.0694
     18 O1         -3.8347   -1.4718   -1.2226 O.3       1 <0>        -0.3174
     19 C15        -4.1698   -2.4941   -2.1632 C.3       1 <0>         0.0239
     20 H3          0.0021   -0.0041    0.0020 H         1 <0>         0.1175
     21 H4          1.0099    1.4631    0.0003 H         1 <0>         0.1169
     22 H5         -0.5399    1.4469   -0.8751 H         1 <0>         0.1301
     23 H6         -0.6800    0.4389    3.0053 H         1 <0>         0.1277
     24 H7          0.8895    0.5431    2.1626 H         1 <0>         0.1310
     25 H8          0.1954    2.1441    4.3303 H         1 <0>         0.1117
     26 H9          1.3745    2.6420    3.0731 H         1 <0>         0.0978
     27 H10        -1.6201    3.3008    3.2453 H         1 <0>         0.0996
     28 H11        -0.2530    4.4071    2.8844 H         1 <0>         0.1164
     29 H12        -2.9080    3.0455    1.1836 H         1 <0>         0.0923
     30 H13        -2.1540    4.6132    0.8063 H         1 <0>         0.1172
     31 H14        -1.4337    5.0326   -1.6996 H         1 <0>         0.1787
     32 H15        -3.1336    0.6067    0.1969 H         1 <0>         0.1190
     33 H16        -3.5332   -0.9388   -3.7654 H         1 <0>         0.1404
     34 H17        -2.7197    1.1762   -4.7025 H         1 <0>         0.1327
     35 H18        -4.5164   -3.3792   -1.6297 H         1 <0>         0.1067
     36 H19        -4.9594   -2.1356   -2.8235 H         1 <0>         0.0605
     37 H20        -3.2894   -2.7473   -2.7537 H         1 <0>         0.0592
     38 N2         -0.7151    1.5608    1.2286 N.4       1 <0>        -0.3921
     39 H21        -1.6745    1.1951    1.2270 H         1 <0>         0.4233
@<TRIPOS>BOND
     1    1   20 1
     2    1   21 1
     3    1   22 1
     4    1   38 1
     5    2    3 1
     6    2   23 1
     7    2   24 1
     8    2   38 1
     9    3    4 1
    10    3   25 1
    11    3   26 1
    12    4    5 1
    13    4   27 1
    14    4   28 1
    15    5    6 1
    16    5    7 1
    17    5   38 1
    18    7    8 1
    19    7   29 1
    20    7   30 1
    21    8   13 1
    22    8    9 2
    23    9   10 1
    24    9   31 1
    25   10   11 1
    26   10   12 1
    27   12   17 ar
    28   12   13 ar
    29   13   14 ar
    30   14   15 ar
    31   14   32 1
    32   15   16 ar
    33   15   18 1
    34   16   17 ar
    35   16   33 1
    36   17   34 1
    37   18   19 1
    38   19   35 1
    39   19   36 1
    40   19   37 1
    41   38   39 1
@<TRIPOS>MOLECULE
ZINC00598509
   69    73     0     0     0
SMALL
USER_CHARGES

@<TRIPOS>ATOM
      1 C1         -0.0258    1.5270    0.0085 C.3       1 <0>        -0.1204
      2 C2         -0.0148    0.0201   -0.0060 C.ar      1 <0>        -0.0705
      3 C3         -0.0163   -0.6573   -1.2055 C.ar      1 <0>        -0.0754
      4 C4         -0.0066   -2.0515   -1.2190 C.ar      1 <0>        -0.0242
      5 C5          0.0052   -2.7607   -0.0182 C.ar      1 <0>        -0.0676
      6 C6          0.0067   -2.0841    1.1813 C.ar      1 <0>        -0.1023
      7 C7          0.0028   -0.6889    1.1951 C.ar      1 <0>        -0.0393
      8 C8          0.0106    0.0396    2.4858 C.ar      1 <0>        -0.0090
      9 C9          0.9274    1.0696    2.6995 C.ar      1 <0>        -0.1104
     10 C10         0.9355    1.7469    3.8979 C.ar      1 <0>        -0.0527
     11 C11         0.0249    1.4029    4.9003 C.ar      1 <0>        -0.1436
     12 C12        -0.8930    0.3716    4.6852 C.ar      1 <0>        -0.0810
     13 C13        -0.9027   -0.3012    3.4843 C.ar      1 <0>        -0.1096
     14 C14         0.0330    2.1285    6.1867 C.2       1 <0>         0.5685
     15 O1          0.8322    3.0256    6.3736 O.2       1 <0>        -0.5263
     16 N1         -0.8455    1.7963    7.1533 N.am      1 <0>        -0.6684
     17 C15        -0.7752    2.4168    8.4065 C.ar      1 <0>         0.1156
     18 C16        -1.0739    1.6964    9.5555 C.ar      1 <0>        -0.0912
     19 C17        -1.0053    2.3066   10.7939 C.ar      1 <0>        -0.1823
     20 C18        -0.6379    3.6383   10.8923 C.ar      1 <0>         0.1184
     21 C19        -0.3370    4.3645    9.7420 C.ar      1 <0>         0.1285
     22 C20        -0.4014    3.7504    8.5005 C.ar      1 <0>        -0.0823
     23 N2          0.0344    5.7103    9.8398 N.pl3     1 <0>        -0.6622
     24 C21         1.4462    6.0965    9.9877 C.3       1 <0>         0.1226
     25 C22         1.7685    7.1688    8.9417 C.3       1 <0>        -0.0241
     26 N3          0.8189    8.2810    9.0738 N.4       1 <0>        -0.3816
     27 C23        -0.5392    7.8189    8.7603 C.3       1 <0>        -0.0238
     28 C24        -0.9753    6.7790    9.7916 C.3       1 <0>         0.1217
     29 C25         1.1947    9.3562    8.1460 C.3       1 <0>        -0.0465
     30 O2         -0.5714    4.2375   12.1123 O.3       1 <0>        -0.3095
     31 C26        -0.8936    3.4332   13.2486 C.3       1 <0>         0.0226
     32 C27        -0.0092   -2.7806   -2.5110 C.2       1 <0>         0.2941
     33 N4         -0.0061   -4.1179   -2.6574 N.2       1 <0>        -0.5422
     34 C28        -0.0098   -4.4281   -3.9223 C.2       1 <0>         0.2990
     35 O3         -0.0155   -3.2957   -4.6373 O.3       1 <0>        -0.1011
     36 N5         -0.0207   -2.2295   -3.6998 N.2       1 <0>        -0.3348
     37 C29        -0.0072   -5.8256   -4.4862 C.3       1 <0>        -0.0763
     38 H1          0.9991    1.8979    0.0015 H         1 <0>         0.0767
     39 H2         -0.5515    1.8949   -0.8727 H         1 <0>         0.0725
     40 H3         -0.5331    1.8780    0.9071 H         1 <0>         0.0725
     41 H4         -0.0254   -0.1084   -2.1356 H         1 <0>         0.1368
     42 H5          0.0127   -3.8406   -0.0290 H         1 <0>         0.1439
     43 H6          0.0151   -2.6334    2.1112 H         1 <0>         0.1367
     44 H7          1.6311    1.3354    1.9245 H         1 <0>         0.1371
     45 H8          1.6456    2.5436    4.0634 H         1 <0>         0.1389
     46 H9         -1.5969    0.1047    5.4596 H         1 <0>         0.1288
     47 H10        -1.6146   -1.0958    3.3164 H         1 <0>         0.1367
     48 H11        -1.5264    1.1274    6.9808 H         1 <0>         0.4139
     49 H12        -1.3606    0.6578    9.4814 H         1 <0>         0.1355
     50 H13        -1.2388    1.7442   11.6858 H         1 <0>         0.1396
     51 H14        -0.1650    4.3099    7.6075 H         1 <0>         0.1464
     52 H15         1.6134    6.4978   10.9872 H         1 <0>         0.0784
     53 H16         2.0827    5.2261    9.8280 H         1 <0>         0.1141
     54 H17         2.7826    7.5363    9.0985 H         1 <0>         0.1357
     55 H18         1.6879    6.7387    7.9435 H         1 <0>         0.1311
     56 H19        -1.2255    8.6654    8.7834 H         1 <0>         0.1359
     57 H20        -0.5499    7.3691    7.7675 H         1 <0>         0.1289
     58 H21        -1.9389    6.3598    9.5024 H         1 <0>         0.1131
     59 H22        -1.0567    7.2504   10.7710 H         1 <0>         0.0785
     60 H23         1.1728    8.9783    7.1239 H         1 <0>         0.1203
     61 H24         0.4905   10.1825    8.2431 H         1 <0>         0.1231
     62 H25         2.1997    9.7056    8.3828 H         1 <0>         0.1234
     63 H26        -1.9166    3.0682   13.1570 H         1 <0>         0.0587
     64 H27        -0.2091    2.5866   13.3004 H         1 <0>         0.0586
     65 H28        -0.8011    4.0313   14.1551 H         1 <0>         0.1033
     66 H29        -1.0342   -6.1660   -4.6183 H         1 <0>         0.1108
     67 H30         0.5031   -5.8278   -5.4494 H         1 <0>         0.1032
     68 H31         0.5115   -6.4939   -3.7988 H         1 <0>         0.1112
     69 H32         0.8435    8.6322   10.0194 H         1 <0>         0.4235
@<TRIPOS>BOND
     1    1    2 1
     2    1   38 1
     3    1   39 1
     4    1   40 1
     5    2    7 ar
     6    2    3 ar
     7    3    4 ar
     8    3   41 1
     9    4    5 ar
    10    4   32 1
    11    5    6 ar
    12    5   42 1
    13    6    7 ar
    14    6   43 1
    15    7    8 1
    16    8   13 ar
    17    8    9 ar
    18    9   10 ar
    19    9   44 1
    20   10   11 ar
    21   10   45 1
    22   11   12 ar
    23   11   14 1
    24   12   13 ar
    25   12   46 1
    26   13   47 1
    27   14   15 2
    28   14   16 am
    29   16   17 1
    30   16   48 1
    31   17   22 ar
    32   17   18 ar
    33   18   19 ar
    34   18   49 1
    35   19   20 ar
    36   19   50 1
    37   20   21 ar
    38   20   30 1
    39   21   22 ar
    40   21   23 1
    41   22   51 1
    42   23   28 1
    43   23   24 1
    44   24   25 1
    45   24   52 1
    46   24   53 1
    47   25   26 1
    48   25   54 1
    49   25   55 1
    50   26   27 1
    51   26   29 1
    52   26   69 1
    53   27   28 1
    54   27   56 1
    55   27   57 1
    56   28   58 1
    57   28   59 1
    58   29   60 1
    59   29   61 1
    60   29   62 1
    61   30   31 1
    62   31   63 1
    63   31   64 1
    64   31   65 1
    65   32   36 2
    66   32   33 1
    67   33   34 2
    68   34   35 1
    69   34   37 1
    70   35   36 1
    71   37   66 1
    72   37   67 1
    73   37   68 1
@<TRIPOS>MOLECULE
ZINC00598509
   68    72     0     0     0
SMALL
USER_CHARGES

@<TRIPOS>ATOM
      1 C1         -0.0258    1.5270    0.0085 C.3       1 <0>        -0.1214
      2 C2         -0.0148    0.0201   -0.0060 C.ar      1 <0>        -0.0708
      3 C3         -0.0163   -0.6573   -1.2055 C.ar      1 <0>        -0.0750
      4 C4         -0.0066   -2.0515   -1.2190 C.ar      1 <0>        -0.0302
      5 C5          0.0052   -2.7607   -0.0182 C.ar      1 <0>        -0.0680
      6 C6          0.0067   -2.0841    1.1813 C.ar      1 <0>        -0.1041
      7 C7          0.0028   -0.6889    1.1951 C.ar      1 <0>        -0.0311
      8 C8          0.0106    0.0396    2.4858 C.ar      1 <0>        -0.0198
      9 C9          0.9274    1.0696    2.6995 C.ar      1 <0>        -0.1090
     10 C10         0.9355    1.7469    3.8979 C.ar      1 <0>        -0.0544
     11 C11         0.0249    1.4029    4.9003 C.ar      1 <0>        -0.1327
     12 C12        -0.8930    0.3716    4.6852 C.ar      1 <0>        -0.0832
     13 C13        -0.9027   -0.3012    3.4843 C.ar      1 <0>        -0.1096
     14 C14         0.0330    2.1285    6.1867 C.2       1 <0>         0.5586
     15 O1          0.8322    3.0256    6.3736 O.2       1 <0>        -0.5148
     16 N1         -0.8455    1.7963    7.1533 N.am      1 <0>        -0.6663
     17 C15        -0.7752    2.4168    8.4065 C.ar      1 <0>         0.1085
     18 C16        -1.0739    1.6964    9.5555 C.ar      1 <0>        -0.1051
     19 C17        -1.0053    2.3066   10.7939 C.ar      1 <0>        -0.1878
     20 C18        -0.6379    3.6383   10.8923 C.ar      1 <0>         0.1109
     21 C19        -0.3370    4.3645    9.7420 C.ar      1 <0>         0.1576
     22 C20        -0.4014    3.7504    8.5005 C.ar      1 <0>        -0.0854
     23 N2          0.0344    5.7103    9.8398 N.pl3     1 <0>        -0.6665
     24 C21         1.4463    6.0949    9.9877 C.3       1 <0>         0.1544
     25 C22         1.7758    7.1536    8.9299 C.3       1 <0>         0.0391
     26 N3          0.8161    8.2608    9.0345 N.3       1 <0>        -0.5401
     27 C23        -0.5519    7.8093    8.7473 C.3       1 <0>         0.0391
     28 C24        -0.9762    6.7778    9.7914 C.3       1 <0>         0.1537
     29 C25         1.1986    9.3738    8.1553 C.3       1 <0>         0.0248
     30 O2         -0.5714    4.2375   12.1123 O.3       1 <0>        -0.3021
     31 C26        -0.8936    3.4332   13.2486 C.3       1 <0>         0.0247
     32 C27        -0.0092   -2.7806   -2.5110 C.2       1 <0>         0.2973
     33 N4         -0.0061   -4.1179   -2.6574 N.2       1 <0>        -0.5412
     34 C28        -0.0098   -4.4281   -3.9223 C.2       1 <0>         0.2959
     35 O3         -0.0155   -3.2957   -4.6373 O.3       1 <0>        -0.1032
     36 N5         -0.0207   -2.2295   -3.6998 N.2       1 <0>        -0.3355
     37 C29        -0.0072   -5.8256   -4.4862 C.3       1 <0>        -0.0751
     38 H1          0.9991    1.8979    0.0015 H         1 <0>         0.0772
     39 H2         -0.5515    1.8949   -0.8727 H         1 <0>         0.0715
     40 H3         -0.5331    1.8780    0.9071 H         1 <0>         0.0747
     41 H4         -0.0254   -0.1084   -2.1356 H         1 <0>         0.1357
     42 H5          0.0127   -3.8406   -0.0290 H         1 <0>         0.1424
     43 H6          0.0151   -2.6334    2.1112 H         1 <0>         0.1367
     44 H7          1.6311    1.3354    1.9245 H         1 <0>         0.1356
     45 H8          1.6456    2.5436    4.0634 H         1 <0>         0.1407
     46 H9         -1.5969    0.1047    5.4596 H         1 <0>         0.1292
     47 H10        -1.6146   -1.0958    3.3164 H         1 <0>         0.1344
     48 H11        -1.5264    1.1274    6.9808 H         1 <0>         0.4094
     49 H12        -1.3606    0.6578    9.4814 H         1 <0>         0.1286
     50 H13        -1.2388    1.7442   11.6858 H         1 <0>         0.1335
     51 H14        -0.1650    4.3099    7.6075 H         1 <0>         0.1447
     52 H15         1.6110    6.5079   10.9829 H         1 <0>         0.0585
     53 H16         2.0811    5.2210    9.8412 H         1 <0>         0.0698
     54 H17         2.7853    7.5303    9.0945 H         1 <0>         0.0791
     55 H18         1.7107    6.7084    7.9371 H         1 <0>         0.0368
     56 H19        -1.2306    8.6616    8.7795 H         1 <0>         0.0795
     57 H20        -0.5846    7.3549    7.7570 H         1 <0>         0.0337
     58 H21        -1.9422    6.3551    9.5153 H         1 <0>         0.0687
     59 H22        -1.0488    7.2577   10.7674 H         1 <0>         0.0589
     60 H23         1.2227    9.0286    7.1217 H         1 <0>         0.0236
     61 H24         0.4714   10.1799    8.2523 H         1 <0>         0.0677
     62 H25         2.1856    9.7387    8.4396 H         1 <0>         0.0684
     63 H26        -0.8011    4.0313   14.1551 H         1 <0>         0.0991
     64 H27        -1.9166    3.0682   13.1570 H         1 <0>         0.0537
     65 H28        -0.2091    2.5866   13.3004 H         1 <0>         0.0536
     66 H29        -1.0342   -6.1660   -4.6183 H         1 <0>         0.1097
     67 H30         0.5031   -5.8278   -5.4494 H         1 <0>         0.1021
     68 H31         0.5115   -6.4939   -3.7988 H         1 <0>         0.1106
@<TRIPOS>BOND
     1    1    2 1
     2    1   38 1
     3    1   39 1
     4    1   40 1
     5    2    7 ar
     6    2    3 ar
     7    3    4 ar
     8    3   41 1
     9    4    5 ar
    10    4   32 1
    11    5    6 ar
    12    5   42 1
    13    6    7 ar
    14    6   43 1
    15    7    8 1
    16    8   13 ar
    17    8    9 ar
    18    9   10 ar
    19    9   44 1
    20   10   11 ar
    21   10   45 1
    22   11   12 ar
    23   11   14 1
    24   12   13 ar
    25   12   46 1
    26   13   47 1
    27   14   15 2
    28   14   16 am
    29   16   17 1
    30   16   48 1
    31   17   22 ar
    32   17   18 ar
    33   18   19 ar
    34   18   49 1
    35   19   20 ar
    36   19   50 1
    37   20   21 ar
    38   20   30 1
    39   21   22 ar
    40   21   23 1
    41   22   51 1
    42   23   28 1
    43   23   24 1
    44   24   25 1
    45   24   52 1
    46   24   53 1
    47   25   26 1
    48   25   54 1
    49   25   55 1
    50   26   27 1
    51   26   29 1
    52   27   28 1
    53   27   56 1
    54   27   57 1
    55   28   58 1
    56   28   59 1
    57   29   60 1
    58   29   61 1
    59   29   62 1
    60   30   31 1
    61   31   63 1
    62   31   64 1
    63   31   65 1
    64   32   36 2
    65   32   33 1
    66   33   34 2
    67   34   35 1
    68   34   37 1
    69   35   36 1
    70   37   66 1
    71   37   67 1
    72   37   68 1
@<TRIPOS>MOLECULE
ZINC34451922
   61    65     0     0     0
SMALL
USER_CHARGES

@<TRIPOS>ATOM
      1 C1         -0.0312    1.4376    0.0625 C.3       1 <0>        -0.1149
      2 C2         -0.0229   -0.0693    0.0447 C.ar      1 <0>         0.1665
      3 C3         -0.0155   -0.7327   -1.1794 C.ar      1 <0>        -0.1630
      4 C4         -0.0074   -2.0992   -1.2143 C.ar      1 <0>        -0.0625
      5 C5         -0.0068   -2.7940    0.0070 C.ar      1 <0>        -0.1089
      6 C6         -0.0145   -2.0581    1.2176 C.ar      1 <0>         0.1381
      7 N1         -0.0173   -0.7211    1.1825 N.ar      1 <0>        -0.4673
      8 C7         -0.0139   -2.7495    2.4406 C.ar      1 <0>        -0.0799
      9 C8         -0.0055   -4.1115    2.4546 C.ar      1 <0>        -0.0967
     10 C9          0.0026   -4.8435    1.2722 C.ar      1 <0>        -0.1038
     11 C10         0.0018   -4.2041    0.0495 C.ar      1 <0>         0.1607
     12 N2          0.0100   -4.9428   -1.1301 N.pl3     1 <0>        -0.6732
     13 C11         1.2761   -5.3417   -1.7641 C.3       1 <0>         0.1189
     14 C12         1.2238   -4.9473   -3.2438 C.3       1 <0>        -0.0255
     15 N3          0.0263   -5.5297   -3.8626 N.4       1 <0>        -0.3804
     16 C13        -1.1805   -4.9526   -3.2570 C.3       1 <0>        -0.0322
     17 C14        -1.2473   -5.3521   -1.7749 C.3       1 <0>         0.1198
     18 C15         0.0336   -5.2439   -5.3035 C.3       1 <0>        -0.0072
     19 C16        -1.1461   -5.9543   -5.9703 C.3       1 <0>        -0.0971
     20 C17        -1.1386   -5.6610   -7.4485 C.ar      1 <0>        -0.0776
     21 C18        -1.8170   -4.5596   -7.9377 C.ar      1 <0>        -0.1386
     22 C19        -1.8126   -4.2871   -9.2931 C.ar      1 <0>        -0.0804
     23 C20        -1.1300   -5.1148  -10.1632 C.ar      1 <0>        -0.1434
     24 C21        -0.4479   -6.2214   -9.6753 C.ar      1 <0>         0.2020
     25 C22        -0.4497   -6.4892   -8.3125 C.ar      1 <0>        -0.1555
     26 N4          0.2445   -7.0619  -10.5542 N.am      1 <0>        -0.5742
     27 C23         1.0949   -8.1943  -10.1579 C.3       1 <0>         0.0857
     28 C24         1.6017   -8.7621  -11.4979 C.3       1 <0>         0.0889
     29 N5          0.9830   -7.8894  -12.5069 N.am      1 <0>        -0.7318
     30 C25         0.2334   -6.9663  -11.8902 C.2       1 <0>         0.6994
     31 O1         -0.3969   -6.1161  -12.4888 O.2       1 <0>        -0.5594
     32 H1          0.9944    1.8066    0.0650 H         1 <0>         0.0861
     33 H2         -0.5487    1.8085   -0.8223 H         1 <0>         0.0802
     34 H3         -0.5455    1.7876    0.9576 H         1 <0>         0.0841
     35 H4         -0.0165   -0.1684   -2.1002 H         1 <0>         0.1388
     36 H5         -0.0019   -2.6302   -2.1547 H         1 <0>         0.1232
     37 H6         -0.0198   -2.2006    3.3707 H         1 <0>         0.1418
     38 H7         -0.0048   -4.6322    3.4007 H         1 <0>         0.1381
     39 H8          0.0096   -5.9228    1.3114 H         1 <0>         0.1308
     40 H9          2.1065   -4.8299   -1.2777 H         1 <0>         0.1163
     41 H10         1.4054   -6.4205   -1.6769 H         1 <0>         0.0826
     42 H11         1.1855   -3.8614   -3.3293 H         1 <0>         0.1284
     43 H12         2.1133   -5.3208   -3.7511 H         1 <0>         0.1390
     44 H13        -1.1461   -3.8665   -3.3421 H         1 <0>         0.1294
     45 H14        -2.0627   -5.3301   -3.7741 H         1 <0>         0.1406
     46 H15        -1.3685   -6.4320   -1.6889 H         1 <0>         0.0832
     47 H16        -2.0861   -4.8472   -1.2958 H         1 <0>         0.1162
     48 H17        -0.0535   -4.1688   -5.4611 H         1 <0>         0.1311
     49 H18         0.9665   -5.6007   -5.7400 H         1 <0>         0.1329
     50 H19        -1.0590   -7.0293   -5.8127 H         1 <0>         0.0951
     51 H20        -2.0789   -5.5974   -5.5338 H         1 <0>         0.0966
     52 H21        -2.3517   -3.9111   -7.2594 H         1 <0>         0.1244
     53 H22        -2.3436   -3.4264   -9.6721 H         1 <0>         0.1341
     54 H23        -1.1272   -4.9017  -11.2220 H         1 <0>         0.1632
     55 H24         0.0839   -7.3464   -7.9293 H         1 <0>         0.1261
     56 H25         1.9301   -7.8505   -9.5478 H         1 <0>         0.0916
     57 H26         0.5107   -8.9423   -9.6219 H         1 <0>         0.0922
     58 H27         2.6885   -8.7002  -11.5531 H         1 <0>         0.0930
     59 H28         1.2691   -9.7921  -11.6273 H         1 <0>         0.0930
     60 H29         1.0964   -7.9716  -13.4667 H         1 <0>         0.4388
     61 H30         0.0277   -6.5286   -3.7203 H         1 <0>         0.4226
@<TRIPOS>BOND
     1    1    2 1
     2    1   32 1
     3    1   33 1
     4    1   34 1
     5    2    7 ar
     6    2    3 ar
     7    3    4 ar
     8    3   35 1
     9    4    5 ar
    10    4   36 1
    11    5   11 ar
    12    5    6 ar
    13    6    7 ar
    14    6    8 ar
    15    8    9 ar
    16    8   37 1
    17    9   10 ar
    18    9   38 1
    19   10   11 ar
    20   10   39 1
    21   11   12 1
    22   12   17 1
    23   12   13 1
    24   13   14 1
    25   13   40 1
    26   13   41 1
    27   14   15 1
    28   14   42 1
    29   14   43 1
    30   15   16 1
    31   15   18 1
    32   15   61 1
    33   16   17 1
    34   16   44 1
    35   16   45 1
    36   17   46 1
    37   17   47 1
    38   18   19 1
    39   18   48 1
    40   18   49 1
    41   19   20 1
    42   19   50 1
    43   19   51 1
    44   20   25 ar
    45   20   21 ar
    46   21   22 ar
    47   21   52 1
    48   22   23 ar
    49   22   53 1
    50   23   24 ar
    51   23   54 1
    52   24   25 ar
    53   24   26 1
    54   25   55 1
    55   26   30 am
    56   26   27 1
    57   27   28 1
    58   27   56 1
    59   27   57 1
    60   28   29 1
    61   28   58 1
    62   28   59 1
    63   29   30 am
    64   29   60 1
    65   30   31 2
@<TRIPOS>MOLECULE
ZINC34451922
   60    64     0     0     0
SMALL
USER_CHARGES

@<TRIPOS>ATOM
      1 C1         -0.0321    1.4340    0.0669 C.3       1 <0>        -0.1087
      2 C2         -0.0231   -0.0728    0.0484 C.ar      1 <0>         0.1614
      3 C3         -0.0155   -0.7357   -1.1761 C.ar      1 <0>        -0.1790
      4 C4         -0.0069   -2.1021   -1.2116 C.ar      1 <0>        -0.0439
      5 C5         -0.0060   -2.7975    0.0093 C.ar      1 <0>        -0.1162
      6 C6         -0.0140   -2.0623    1.2203 C.ar      1 <0>         0.1383
      7 N1         -0.0173   -0.7252    1.1858 N.ar      1 <0>        -0.4780
      8 C7         -0.0131   -2.7542    2.4430 C.ar      1 <0>        -0.1017
      9 C8         -0.0042   -4.1162    2.4563 C.ar      1 <0>        -0.0895
     10 C9          0.0042   -4.8477    1.2736 C.ar      1 <0>        -0.1280
     11 C10         0.0032   -4.2076    0.0512 C.ar      1 <0>         0.1972
     12 N2          0.0115   -4.9458   -1.1288 N.pl3     1 <0>        -0.6786
     13 C11         1.2784   -5.3431   -1.7618 C.3       1 <0>         0.1496
     14 C12         1.2359   -4.9304   -3.2369 C.3       1 <0>         0.0396
     15 N3          0.0281   -5.4851   -3.8627 N.3       1 <0>        -0.5337
     16 C13        -1.1893   -4.9364   -3.2504 C.3       1 <0>         0.0347
     17 C14        -1.2462   -5.3545   -1.7725 C.3       1 <0>         0.1493
     18 C15         0.0356   -5.2584   -5.3140 C.3       1 <0>         0.0625
     19 C16        -1.0979   -6.0570   -5.9608 C.3       1 <0>        -0.0749
     20 C17        -1.0902   -5.8244   -7.4498 C.ar      1 <0>        -0.0542
     21 C18        -1.8204   -4.7814   -7.9898 C.ar      1 <0>        -0.1431
     22 C19        -1.8159   -4.5647   -9.3553 C.ar      1 <0>        -0.0866
     23 C20        -1.0816   -5.3899  -10.1846 C.ar      1 <0>        -0.1581
     24 C21        -0.3474   -6.4379   -9.6456 C.ar      1 <0>         0.1910
     25 C22        -0.3495   -6.6495   -8.2729 C.ar      1 <0>        -0.1551
     26 N4          0.3976   -7.2758  -10.4831 N.am      1 <0>        -0.5709
     27 C23         1.3021   -8.3444  -10.0332 C.3       1 <0>         0.0845
     28 C24         1.8522   -8.9388  -11.3442 C.3       1 <0>         0.0912
     29 N5          1.1993   -8.1420  -12.3936 N.am      1 <0>        -0.7361
     30 C25         0.3956   -7.2356  -11.8220 C.2       1 <0>         0.6995
     31 O1         -0.2721   -6.4452  -12.4605 O.2       1 <0>        -0.5652
     32 H1          0.9934    1.8035    0.0696 H         1 <0>         0.0813
     33 H2         -0.5496    1.8052   -0.8177 H         1 <0>         0.0768
     34 H3         -0.5465    1.7834    0.9621 H         1 <0>         0.0795
     35 H4         -0.0168   -0.1709   -2.0966 H         1 <0>         0.1342
     36 H5         -0.0012   -2.6326   -2.1523 H         1 <0>         0.1348
     37 H6         -0.0192   -2.2057    3.3733 H         1 <0>         0.1347
     38 H7         -0.0032   -4.6373    3.4022 H         1 <0>         0.1312
     39 H8          0.0116   -5.9269    1.3122 H         1 <0>         0.1282
     40 H9          2.1089   -4.8415   -1.2650 H         1 <0>         0.0717
     41 H10         1.4019   -6.4235   -1.6872 H         1 <0>         0.0627
     42 H11         1.2167   -3.8430   -3.3100 H         1 <0>         0.0346
     43 H12         2.1191   -5.3142   -3.7476 H         1 <0>         0.0822
     44 H13        -1.1747   -3.8489   -3.3233 H         1 <0>         0.0351
     45 H14        -2.0649   -5.3244   -3.7708 H         1 <0>         0.0854
     46 H15        -1.3606   -6.4360   -1.6990 H         1 <0>         0.0631
     47 H16        -2.0854   -4.8605   -1.2829 H         1 <0>         0.0716
     48 H17        -0.1062   -4.1968   -5.5167 H         1 <0>         0.0355
     49 H18         0.9905   -5.5828   -5.7275 H         1 <0>         0.0763
     50 H19        -0.9561   -7.1185   -5.7582 H         1 <0>         0.0819
     51 H20        -2.0528   -5.7326   -5.5474 H         1 <0>         0.0744
     52 H21        -2.3957   -4.1350   -7.3435 H         1 <0>         0.1206
     53 H22        -2.3875   -3.7496   -9.7740 H         1 <0>         0.1267
     54 H23        -1.0788   -5.2204  -11.2512 H         1 <0>         0.1568
     55 H24         0.2243   -7.4609   -7.8501 H         1 <0>         0.1245
     56 H25         2.1115   -7.9321   -9.4307 H         1 <0>         0.0924
     57 H26         0.7524   -9.0998   -9.4716 H         1 <0>         0.0923
     58 H27         2.9348   -8.8217  -11.3927 H         1 <0>         0.0897
     59 H28         1.5757   -9.9893  -11.4336 H         1 <0>         0.0895
     60 H29         1.3270   -8.2573  -13.3482 H         1 <0>         0.4348
@<TRIPOS>BOND
     1    1    2 1
     2    1   32 1
     3    1   33 1
     4    1   34 1
     5    2    7 ar
     6    2    3 ar
     7    3    4 ar
     8    3   35 1
     9    4    5 ar
    10    4   36 1
    11    5   11 ar
    12    5    6 ar
    13    6    7 ar
    14    6    8 ar
    15    8    9 ar
    16    8   37 1
    17    9   10 ar
    18    9   38 1
    19   10   11 ar
    20   10   39 1
    21   11   12 1
    22   12   17 1
    23   12   13 1
    24   13   14 1
    25   13   40 1
    26   13   41 1
    27   14   15 1
    28   14   42 1
    29   14   43 1
    30   15   16 1
    31   15   18 1
    32   16   17 1
    33   16   44 1
    34   16   45 1
    35   17   46 1
    36   17   47 1
    37   18   19 1
    38   18   48 1
    39   18   49 1
    40   19   20 1
    41   19   50 1
    42   19   51 1
    43   20   25 ar
    44   20   21 ar
    45   21   22 ar
    46   21   52 1
    47   22   23 ar
    48   22   53 1
    49   23   24 ar
    50   23   54 1
    51   24   25 ar
    52   24   26 1
    53   25   55 1
    54   26   30 am
    55   26   27 1
    56   27   28 1
    57   27   56 1
    58   27   57 1
    59   28   29 1
    60   28   58 1
    61   28   59 1
    62   29   30 am
    63   29   60 1
    64   30   31 2
@<TRIPOS>MOLECULE
ZINC34451922
   62    66     0     0     0
SMALL
USER_CHARGES

@<TRIPOS>ATOM
      1 C1         -0.0312    1.4376    0.0625 C.3       1 <0>        -0.1610
      2 C2         -0.0229   -0.0693    0.0447 C.ar      1 <0>         0.2542
      3 C3         -0.0155   -0.7327   -1.1794 C.ar      1 <0>        -0.1670
      4 C4         -0.0074   -2.0992   -1.2143 C.ar      1 <0>         0.0386
      5 C5         -0.0068   -2.7940    0.0070 C.ar      1 <0>        -0.0964
      6 C6         -0.0145   -2.0581    1.2176 C.ar      1 <0>         0.1451
      7 N1         -0.0173   -0.7211    1.1825 N.ar      1 <0>        -0.4584
      8 C7         -0.0139   -2.7495    2.4406 C.ar      1 <0>        -0.1305
      9 C8         -0.0055   -4.1115    2.4546 C.ar      1 <0>        -0.0263
     10 C9          0.0026   -4.8435    1.2722 C.ar      1 <0>        -0.0895
     11 C10         0.0018   -4.2041    0.0495 C.ar      1 <0>         0.2051
     12 N2          0.0100   -4.9428   -1.1301 N.pl3     1 <0>        -0.6830
     13 C11         1.2761   -5.3417   -1.7641 C.3       1 <0>         0.1133
     14 C12         1.2238   -4.9473   -3.2438 C.3       1 <0>        -0.0251
     15 N3          0.0263   -5.5297   -3.8626 N.4       1 <0>        -0.3836
     16 C13        -1.1805   -4.9526   -3.2570 C.3       1 <0>        -0.0322
     17 C14        -1.2473   -5.3521   -1.7749 C.3       1 <0>         0.1142
     18 C15         0.0336   -5.2439   -5.3035 C.3       1 <0>        -0.0083
     19 C16        -1.1461   -5.9543   -5.9703 C.3       1 <0>        -0.0958
     20 C17        -1.1386   -5.6610   -7.4485 C.ar      1 <0>        -0.0824
     21 C18        -1.8170   -4.5596   -7.9377 C.ar      1 <0>        -0.1409
     22 C19        -1.8126   -4.2871   -9.2931 C.ar      1 <0>        -0.0796
     23 C20        -1.1300   -5.1148  -10.1632 C.ar      1 <0>        -0.1415
     24 C21        -0.4479   -6.2214   -9.6753 C.ar      1 <0>         0.2063
     25 C22        -0.4497   -6.4892   -8.3125 C.ar      1 <0>        -0.1564
     26 N4          0.2445   -7.0619  -10.5542 N.am      1 <0>        -0.5752
     27 C23         1.0949   -8.1943  -10.1579 C.3       1 <0>         0.0862
     28 C24         1.6017   -8.7621  -11.4979 C.3       1 <0>         0.0880
     29 N5          0.9830   -7.8894  -12.5069 N.am      1 <0>        -0.7302
     30 C25         0.2334   -6.9663  -11.8902 C.2       1 <0>         0.6992
     31 O1         -0.3969   -6.1161  -12.4888 O.2       1 <0>        -0.5578
     32 H1          0.9944    1.8066    0.0650 H         1 <0>         0.1292
     33 H2         -0.5487    1.8085   -0.8223 H         1 <0>         0.1262
     34 H3         -0.5455    1.7876    0.9576 H         1 <0>         0.1073
     35 H4         -0.0165   -0.1684   -2.1002 H         1 <0>         0.1869
     36 H5         -0.0019   -2.6302   -2.1547 H         1 <0>         0.1595
     37 H6         -0.0198   -2.2006    3.3707 H         1 <0>         0.1627
     38 H7         -0.0048   -4.6322    3.4007 H         1 <0>         0.1641
     39 H8          0.0096   -5.9228    1.3114 H         1 <0>         0.1565
     40 H9          2.1065   -4.8299   -1.2777 H         1 <0>         0.1196
     41 H10         1.4054   -6.4205   -1.6769 H         1 <0>         0.0952
     42 H11         1.1855   -3.8614   -3.3293 H         1 <0>         0.1261
     43 H12         2.1133   -5.3208   -3.7511 H         1 <0>         0.1471
     44 H13        -1.1461   -3.8665   -3.3421 H         1 <0>         0.1272
     45 H14        -2.0627   -5.3301   -3.7741 H         1 <0>         0.1488
     46 H15        -1.3685   -6.4320   -1.6889 H         1 <0>         0.0958
     47 H16        -2.0861   -4.8472   -1.2958 H         1 <0>         0.1195
     48 H17        -0.0535   -4.1688   -5.4611 H         1 <0>         0.1321
     49 H18         0.9665   -5.6007   -5.7400 H         1 <0>         0.1368
     50 H19        -1.0590   -7.0293   -5.8127 H         1 <0>         0.0966
     51 H20        -2.0789   -5.5974   -5.5338 H         1 <0>         0.0955
     52 H21        -2.3517   -3.9111   -7.2594 H         1 <0>         0.1224
     53 H22        -2.3436   -3.4264   -9.6721 H         1 <0>         0.1347
     54 H23        -1.1272   -4.9017  -11.2220 H         1 <0>         0.1647
     55 H24         0.0839   -7.3464   -7.9293 H         1 <0>         0.1263
     56 H25         1.9301   -7.8505   -9.5478 H         1 <0>         0.0912
     57 H26         0.5107   -8.9423   -9.6219 H         1 <0>         0.0923
     58 H27         2.6885   -8.7002  -11.5531 H         1 <0>         0.0940
     59 H28         1.2691   -9.7921  -11.6273 H         1 <0>         0.0943
     60 H29         1.0964   -7.9716  -13.4667 H         1 <0>         0.4403
     61 H30         0.0277   -6.5286   -3.7203 H         1 <0>         0.4274
     62 H31        -0.0190   -0.2237    2.0152 H         1 <0>         0.4506
@<TRIPOS>BOND
     1    1    2 1
     2    1   32 1
     3    1   33 1
     4    1   34 1
     5    2    7 ar
     6    2    3 ar
     7    3    4 ar
     8    3   35 1
     9    4    5 ar
    10    4   36 1
    11    5   11 ar
    12    5    6 ar
    13    6    7 ar
    14    6    8 ar
    15    7   62 1
    16    8    9 ar
    17    8   37 1
    18    9   10 ar
    19    9   38 1
    20   10   11 ar
    21   10   39 1
    22   11   12 1
    23   12   17 1
    24   12   13 1
    25   13   14 1
    26   13   40 1
    27   13   41 1
    28   14   15 1
    29   14   42 1
    30   14   43 1
    31   15   16 1
    32   15   18 1
    33   15   61 1
    34   16   17 1
    35   16   44 1
    36   16   45 1
    37   17   46 1
    38   17   47 1
    39   18   19 1
    40   18   48 1
    41   18   49 1
    42   19   20 1
    43   19   50 1
    44   19   51 1
    45   20   25 ar
    46   20   21 ar
    47   21   22 ar
    48   21   52 1
    49   22   23 ar
    50   22   53 1
    51   23   24 ar
    52   23   54 1
    53   24   25 ar
    54   24   26 1
    55   25   55 1
    56   26   30 am
    57   26   27 1
    58   27   28 1
    59   27   56 1
    60   27   57 1
    61   28   29 1
    62   28   58 1
    63   28   59 1
    64   29   30 am
    65   29   60 1
    66   30   31 2
@<TRIPOS>MOLECULE
ZINC29560054
   52    55     0     0     0
SMALL
USER_CHARGES
(2R)-2-[[3-(morpholinomethyl)-2H-chromen-8-yl]oxymethyl]morpholine
@<TRIPOS>ATOM
      1 C1         -0.0126    1.0758    0.0080 C.ar      1 <0>        -0.1049
      2 C2          1.1763    1.7794    0.0004 C.ar      1 <0>        -0.1005
      3 C3          1.1546    3.1697    0.0129 C.ar      1 <0>        -0.0845
      4 C4         -0.0688    3.8523    0.0123 C.ar      1 <0>         0.1041
      5 C5         -1.2556    3.1350    0.0235 C.ar      1 <0>         0.0993
      6 C6         -1.2221    1.7479    0.0173 C.ar      1 <0>        -0.1762
      7 O1         -2.4482    3.7888    0.0353 O.3       1 <0>        -0.2930
      8 C7         -3.6291    2.9842    0.0464 C.3       1 <0>         0.0640
      9 C8         -4.8627    3.8891    0.0587 C.3       1 <0>         0.0682
     10 H1         -4.8134    4.6374   -0.7461 H         1 <0>         0.1001
     11 C9         -6.1264    3.0322   -0.0531 C.3       1 <0>        -0.0312
     12 N1         -7.3100    3.8996    0.0378 N.4       1 <0>        -0.5346
     13 C10        -7.3152    4.6440    1.3056 C.3       1 <0>        -0.0428
     14 C11        -6.0394    5.4848    1.4026 C.3       1 <0>         0.0310
     15 O2         -4.9000    4.6289    1.2820 O.3       1 <0>        -0.3503
     16 O3         -0.0656    5.2104   -0.0077 O.3       1 <0>        -0.2981
     17 C12         1.0020    5.8750    0.6676 C.3       1 <0>         0.1043
     18 C13         2.3271    5.2573    0.3059 C.2       1 <0>        -0.1389
     19 C14         2.4018    3.9634    0.0095 C.2       1 <0>        -0.1040
     20 C15         3.5709    6.1078    0.2794 C.3       1 <0>         0.0907
     21 N2          3.6823    6.7718   -1.0263 N.3       1 <0>        -0.5321
     22 C16         3.9137    5.7920   -2.0976 C.3       1 <0>         0.0126
     23 C17         3.9636    6.5186   -3.4443 C.3       1 <0>         0.0623
     24 O4          4.9804    7.5233   -3.4007 O.3       1 <0>        -0.3831
     25 C18         4.7861    8.4947   -2.3691 C.3       1 <0>         0.0613
     26 C19         4.7445    7.7881   -1.0116 C.3       1 <0>         0.0159
     27 H2          0.0021   -0.0041    0.0020 H         1 <0>         0.1341
     28 H3          2.1185    1.2519   -0.0155 H         1 <0>         0.1350
     29 H4         -2.1462    1.1890    0.0237 H         1 <0>         0.1323
     30 H5         -3.6488    2.3496   -0.8519 H         1 <0>         0.0900
     31 H6         -3.6315    2.3488    0.9443 H         1 <0>         0.0826
     32 H7         -6.1283    2.5060   -1.0191 H         1 <0>         0.1496
     33 H8         -6.1445    2.2970    0.7649 H         1 <0>         0.1425
     34 H9         -7.3030    4.6179   -0.7952 H         1 <0>         0.4530
     35 H10        -8.1949    5.3036    1.3399 H         1 <0>         0.1471
     36 H11        -7.3548    3.9359    2.1464 H         1 <0>         0.1379
     37 H12        -6.0285    6.2293    0.5929 H         1 <0>         0.0826
     38 H13        -6.0125    5.9996    2.3743 H         1 <0>         0.1428
     39 H14         1.0140    6.9364    0.3790 H         1 <0>         0.1239
     40 H15         0.8561    5.7922    1.7547 H         1 <0>         0.0703
     41 H16         3.3746    3.5093   -0.2301 H         1 <0>         0.1377
     42 H17         3.5128    6.8671    1.0732 H         1 <0>         0.0909
     43 H18         4.4534    5.4721    0.4440 H         1 <0>         0.0513
     44 H19         4.8688    5.2753   -1.9219 H         1 <0>         0.0448
     45 H20         3.0953    5.0571   -2.1054 H         1 <0>         0.0886
     46 H21         4.1926    5.7968   -4.2421 H         1 <0>         0.1002
     47 H22         2.9893    6.9886   -3.6437 H         1 <0>         0.0600
     48 H23         5.6163    9.2162   -2.3838 H         1 <0>         0.1028
     49 H24         3.8370    9.0244   -2.5382 H         1 <0>         0.0612
     50 H25         4.5378    8.5230   -0.2197 H         1 <0>         0.0902
     51 H26         5.7130    7.3036   -0.8184 H         1 <0>         0.0470
     52 H27        -8.2204    3.2845   -0.0161 H         1 <0>         0.4620
@<TRIPOS>BOND
     1    1    6 ar
     2    1    2 ar
     3    1   27 1
     4    2    3 ar
     5    2   28 1
     6    3   19 1
     7    3    4 ar
     8    4    5 ar
     9    4   16 1
    10    5    6 ar
    11    5    7 1
    12    6   29 1
    13    7    8 1
    14    8    9 1
    15    8   30 1
    16    8   31 1
    17    9   10 1
    18    9   15 1
    19    9   11 1
    20   11   12 1
    21   11   32 1
    22   11   33 1
    23   12   13 1
    24   12   34 1
    25   12   52 1
    26   13   14 1
    27   13   35 1
    28   13   36 1
    29   14   15 1
    30   14   37 1
    31   14   38 1
    32   16   17 1
    33   17   18 1
    34   17   39 1
    35   17   40 1
    36   18   19 2
    37   18   20 1
    38   19   41 1
    39   20   21 1
    40   20   42 1
    41   20   43 1
    42   21   26 1
    43   21   22 1
    44   22   23 1
    45   22   44 1
    46   22   45 1
    47   23   24 1
    48   23   46 1
    49   23   47 1
    50   24   25 1
    51   25   26 1
    52   25   48 1
    53   25   49 1
    54   26   50 1
    55   26   51 1
@<TRIPOS>MOLECULE
ZINC00601304
   50    53     0     0     0
SMALL
USER_CHARGES

@<TRIPOS>ATOM
      1 C1         -0.0848    1.4532   -0.3643 C.3       1 <0>         0.0157
      2 O1         -0.0673    0.0248   -0.4029 O.3       1 <0>        -0.2899
      3 C2         -1.2697   -0.6091   -0.3507 C.ar      1 <0>         0.1141
      4 C3         -2.4181    0.1263   -0.2712 C.ar      1 <0>        -0.1159
      5 C4         -3.6565   -0.5247   -0.2178 C.ar      1 <0>        -0.1900
      6 C5         -3.7118   -1.9398   -0.2465 C.ar      1 <0>         0.2208
      7 C6         -2.5225   -2.6738   -0.3282 C.ar      1 <0>        -0.2298
      8 C7         -1.3169   -2.0092   -0.3848 C.ar      1 <0>         0.2171
      9 O2         -0.1616   -2.7187   -0.4697 O.3       1 <0>        -0.2781
     10 C8         -0.2756   -4.1428   -0.5007 C.3       1 <0>         0.0126
     11 N1         -4.9113   -2.5410   -0.1946 N.ar      1 <0>        -0.5852
     12 C9         -6.0151   -1.8231   -0.1184 C.ar      1 <0>         0.6808
     13 N2         -6.0075   -0.4933   -0.0894 N.ar      1 <0>        -0.5933
     14 C10        -4.8747    0.1928   -0.1354 C.ar      1 <0>         0.5614
     15 N3         -4.8820    1.5717   -0.1036 N.pl3     1 <0>        -0.7723
     16 N4         -7.2317   -2.4807   -0.0668 N.pl3     1 <0>        -0.5638
     17 C11        -7.2984   -3.9422   -0.2055 C.3       1 <0>         0.0875
     18 C12        -8.0309   -4.5172    1.0132 C.3       1 <0>         0.0811
     19 N5         -9.2792   -3.7665    1.2081 N.am      1 <0>        -0.6161
     20 C13        -9.2125   -2.3049    1.3468 C.3       1 <0>         0.0965
     21 C14        -8.4794   -1.7305    0.1337 C.3       1 <0>         0.1036
     22 C15       -10.4640   -4.4068    1.2583 C.2       1 <0>         0.6126
     23 O3        -11.4993   -3.7686    1.3005 O.2       1 <0>        -0.5007
     24 C16       -10.5057   -5.8728    1.2622 C.2       1 <0>        -0.0999
     25 C17       -11.6286   -6.6439    1.1675 C.2       1 <0>        -0.0980
     26 C18       -11.2046   -7.9813    1.2107 C.2       1 <0>        -0.2186
     27 C19        -9.8585   -7.9681    1.3284 C.2       1 <0>        -0.0023
     28 O4         -9.4406   -6.6959    1.3540 O.3       1 <0>        -0.1695
     29 H1          0.9367    1.8304   -0.4129 H         1 <0>         0.1175
     30 H2         -0.6531    1.8327   -1.2135 H         1 <0>         0.0636
     31 H3         -0.5513    1.7859    0.5629 H         1 <0>         0.0637
     32 H4         -2.3709    1.2050   -0.2492 H         1 <0>         0.1589
     33 H5         -2.5500   -3.7532   -0.3508 H         1 <0>         0.1674
     34 H6         -0.7651   -4.4880    0.4100 H         1 <0>         0.0684
     35 H7         -0.8669   -4.4412   -1.3664 H         1 <0>         0.0684
     36 H8          0.7180   -4.5855   -0.5693 H         1 <0>         0.1203
     37 H9         -4.0457    2.0621   -0.1379 H         1 <0>         0.4288
     38 H10        -5.7233    2.0512   -0.0471 H         1 <0>         0.4313
     39 H11        -7.8428   -4.1990   -1.1142 H         1 <0>         0.1106
     40 H12        -6.2893   -4.3517   -0.2526 H         1 <0>         0.0927
     41 H13        -8.2596   -5.5687    0.8400 H         1 <0>         0.1354
     42 H14        -7.4023   -4.4179    1.8982 H         1 <0>         0.0848
     43 H15       -10.2215   -1.8954    1.3938 H         1 <0>         0.1238
     44 H16        -8.6680   -2.0481    2.2555 H         1 <0>         0.0830
     45 H17        -8.2501   -0.6797    0.3105 H         1 <0>         0.1273
     46 H18        -9.1099   -1.8262   -0.7503 H         1 <0>         0.0981
     47 H19       -12.6459   -6.2927    1.0769 H         1 <0>         0.1643
     48 H20       -11.8356   -8.8563    1.1598 H         1 <0>         0.1626
     49 H21        -9.2239   -8.8399    1.3885 H         1 <0>         0.2151
     50 H22        -4.9664   -3.5093   -0.2136 H         1 <0>         0.4337
@<TRIPOS>BOND
     1    1    2 1
     2    1   29 1
     3    1   30 1
     4    1   31 1
     5    2    3 1
     6    3    8 ar
     7    3    4 ar
     8    4    5 ar
     9    4   32 1
    10    5   14 ar
    11    5    6 ar
    12    6    7 ar
    13    6   11 ar
    14    7    8 ar
    15    7   33 1
    16    8    9 1
    17    9   10 1
    18   10   34 1
    19   10   35 1
    20   10   36 1
    21   11   12 ar
    22   11   50 1
    23   12   13 ar
    24   12   16 1
    25   13   14 ar
    26   14   15 1
    27   15   37 1
    28   15   38 1
    29   16   21 1
    30   16   17 1
    31   17   18 1
    32   17   39 1
    33   17   40 1
    34   18   19 1
    35   18   41 1
    36   18   42 1
    37   19   20 1
    38   19   22 am
    39   20   21 1
    40   20   43 1
    41   20   44 1
    42   21   45 1
    43   21   46 1
    44   22   23 2
    45   22   24 1
    46   24   28 1
    47   24   25 2
    48   25   26 1
    49   25   47 1
    50   26   27 2
    51   26   48 1
    52   27   28 1
    53   27   49 1
@<TRIPOS>MOLECULE
ZINC02012156
   29    30     0     0     0
SMALL
USER_CHARGES

@<TRIPOS>ATOM
      1 C1         -0.0187    1.5258    0.0104 C.3       1 <0>        -0.1843
      2 C2          0.0021   -0.0041    0.0020 C.3       1 <0>         0.0303
      3 H1          0.5123   -0.3556   -0.8948 H         1 <0>         0.1414
      4 C3          0.7421   -0.5109    1.2415 C.3       1 <0>        -0.0606
      5 C4          0.8700   -2.0108    1.1719 C.2       1 <0>        -0.2215
      6 C5          0.0429   -2.9093    1.7294 C.2       1 <0>         0.0618
      7 N1          0.4769   -4.1770    1.4539 N.pl3     1 <0>        -0.5842
      8 H2          0.0419   -4.9918    1.7501 H         1 <0>         0.4252
      9 C6          1.6250   -4.1237    0.6917 C.ar      1 <0>         0.0871
     10 C7          1.9169   -2.7646    0.4777 C.ar      1 <0>        -0.0854
     11 C8          3.0353   -2.4011   -0.2753 C.ar      1 <0>        -0.1109
     12 C9          3.8469   -3.3826   -0.8086 C.ar      1 <0>         0.0983
     13 C10         3.5533   -4.7271   -0.5977 C.ar      1 <0>        -0.1135
     14 C11         2.4572   -5.0970    0.1496 C.ar      1 <0>        -0.1049
     15 O1          4.9372   -3.0346   -1.5431 O.3       1 <0>        -0.4967
     16 N2         -1.3761   -0.5125    0.0124 N.4       1 <0>        -0.6362
     17 H3          1.0039    1.9031    0.0027 H         1 <0>         0.1072
     18 H4         -0.5459    1.8868   -0.8726 H         1 <0>         0.0828
     19 H5         -0.5289    1.8773    0.9072 H         1 <0>         0.0826
     20 H6          1.7350   -0.0630    1.2804 H         1 <0>         0.1171
     21 H7          0.1838   -0.2350    2.1361 H         1 <0>         0.0951
     22 H8         -0.8351   -2.6671    2.3099 H         1 <0>         0.1730
     23 H9          3.2639   -1.3585   -0.4398 H         1 <0>         0.1304
     24 H10         4.1943   -5.4871   -1.0195 H         1 <0>         0.1401
     25 H11         2.2380   -6.1429    0.3057 H         1 <0>         0.1319
     26 H12         5.7443   -2.9260   -1.0217 H         1 <0>         0.3962
     27 H13        -1.8641   -0.1783   -0.8050 H         1 <0>         0.4353
     28 H14        -1.3624   -1.5214    0.0069 H         1 <0>         0.4321
     29 H15        -1.8484   -0.1871    0.8426 H         1 <0>         0.4304
@<TRIPOS>BOND
     1    1    2 1
     2    1   17 1
     3    1   18 1
     4    1   19 1
     5    2    3 1
     6    2    4 1
     7    2   16 1
     8    4    5 1
     9    4   20 1
    10    4   21 1
    11    5   10 1
    12    5    6 2
    13    6    7 1
    14    6   22 1
    15    7    8 1
    16    7    9 1
    17    9   14 ar
    18    9   10 ar
    19   10   11 ar
    20   11   12 ar
    21   11   23 1
    22   12   13 ar
    23   12   15 1
    24   13   14 ar
    25   13   24 1
    26   14   25 1
    27   15   26 1
    28   16   27 1
    29   16   28 1
    30   16   29 1
@<TRIPOS>MOLECULE
ZINC02012157
   29    30     0     0     0
SMALL
USER_CHARGES

@<TRIPOS>ATOM
      1 C1         -0.0187    1.5258    0.0104 C.3       1 <0>        -0.1852
      2 C2          0.0021   -0.0041    0.0020 C.3       1 <0>         0.0317
      3 H1          0.5123   -0.3556   -0.8948 H         1 <0>         0.1402
      4 C3         -1.4333   -0.5336    0.0129 C.3       1 <0>        -0.0593
      5 C4         -1.4159   -2.0348   -0.1192 C.2       1 <0>        -0.2375
      6 C5         -1.5375   -2.7375   -1.2565 C.2       1 <0>         0.1041
      7 N1         -1.4747   -4.0771   -0.9862 N.pl3     1 <0>        -0.5844
      8 H2         -1.5385   -4.7829   -1.6485 H         1 <0>         0.4270
      9 C6         -1.3066   -4.2742    0.3683 C.ar      1 <0>         0.0898
     10 C7         -1.2568   -3.0032    0.9684 C.ar      1 <0>        -0.1004
     11 C8         -1.0862   -2.8897    2.3497 C.ar      1 <0>        -0.1441
     12 C9         -0.9639   -4.0306    3.1179 C.ar      1 <0>         0.1080
     13 C10        -1.0103   -5.2872    2.5203 C.ar      1 <0>        -0.1195
     14 C11        -1.1858   -5.4111    1.1599 C.ar      1 <0>        -0.0925
     15 O1         -0.7971   -3.9263    4.4635 O.3       1 <0>        -0.4983
     16 N2          0.7126   -0.4907    1.1921 N.4       1 <0>        -0.6383
     17 H3          1.0039    1.9031    0.0027 H         1 <0>         0.0828
     18 H4         -0.5459    1.8868   -0.8726 H         1 <0>         0.1071
     19 H5         -0.5289    1.8773    0.9072 H         1 <0>         0.0825
     20 H6         -1.9156   -0.2570    0.9504 H         1 <0>         0.0941
     21 H7         -1.9862   -0.1019   -0.8214 H         1 <0>         0.1174
     22 H8         -1.6662   -2.3088   -2.2393 H         1 <0>         0.1797
     23 H9         -1.0497   -1.9155    2.8143 H         1 <0>         0.1217
     24 H10        -0.9133   -6.1734    3.1300 H         1 <0>         0.1417
     25 H11        -1.2188   -6.3908    0.7066 H         1 <0>         0.1345
     26 H12        -1.6252   -3.9158    4.9628 H         1 <0>         0.3991
     27 H13         0.2403   -0.1653    2.0223 H         1 <0>         0.4297
     28 H14         0.7262   -1.4996    1.1866 H         1 <0>         0.4348
     29 H15         1.6592   -0.1415    1.1850 H         1 <0>         0.4335
@<TRIPOS>BOND
     1    1    2 1
     2    1   17 1
     3    1   18 1
     4    1   19 1
     5    2    3 1
     6    2    4 1
     7    2   16 1
     8    4    5 1
     9    4   20 1
    10    4   21 1
    11    5   10 1
    12    5    6 2
    13    6    7 1
    14    6   22 1
    15    7    8 1
    16    7    9 1
    17    9   14 ar
    18    9   10 ar
    19   10   11 ar
    20   11   12 ar
    21   11   23 1
    22   12   13 ar
    23   12   15 1
    24   13   14 ar
    25   13   24 1
    26   14   25 1
    27   15   26 1
    28   16   27 1
    29   16   28 1
    30   16   29 1
@<TRIPOS>MOLECULE
ZINC02516045
   33    35     0     0     0
SMALL
USER_CHARGES

@<TRIPOS>ATOM
      1 C1         -0.0164    1.3568    0.0095 C.ar      1 <0>        -0.1126
      2 C2          1.1685    2.0902    0.0021 C.ar      1 <0>        -0.1056
      3 C3          2.3785    1.4660   -0.0127 C.ar      1 <0>        -0.1107
      4 C4          2.4369    0.0637   -0.0208 C.ar      1 <0>        -0.0518
      5 C5          1.2329   -0.6830   -0.0133 C.ar      1 <0>        -0.0490
      6 C6          0.0021   -0.0041    0.0020 C.ar      1 <0>        -0.1001
      7 C7          1.2897   -2.0870   -0.0204 C.ar      1 <0>        -0.0877
      8 C8          2.4960   -2.7188   -0.0343 C.ar      1 <0>        -0.1184
      9 C9          3.6853   -1.9966   -0.0413 C.ar      1 <0>        -0.1083
     10 C10         3.6728   -0.6178   -0.0357 C.ar      1 <0>         0.1496
     11 N1          4.8691    0.0961   -0.0437 N.pl3     1 <0>        -0.6725
     12 C11         5.5338    0.4724    1.2136 C.3       1 <0>         0.1164
     13 C12         7.0032    0.0457    1.1328 C.3       1 <0>        -0.0236
     14 N2          7.6138    0.6222   -0.0717 N.4       1 <0>        -0.5026
     15 C13         6.9746    0.0667   -1.2713 C.3       1 <0>        -0.0233
     16 C14         5.5067    0.4896   -1.3097 C.3       1 <0>         0.1159
     17 H1         -0.9633    1.8759    0.0259 H         1 <0>         0.1287
     18 H2          1.1264    3.1693    0.0079 H         1 <0>         0.1252
     19 H3          3.2888    2.0471   -0.0187 H         1 <0>         0.1205
     20 H4         -0.9241   -0.5595    0.0082 H         1 <0>         0.1330
     21 H5          0.3773   -2.6647   -0.0144 H         1 <0>         0.1332
     22 H6          2.5301   -3.7982   -0.0396 H         1 <0>         0.1296
     23 H7          4.6289   -2.5219   -0.0517 H         1 <0>         0.1206
     24 H8          5.4729    1.5520    1.3511 H         1 <0>         0.0790
     25 H9          5.0507   -0.0340    2.0491 H         1 <0>         0.1164
     26 H10         7.5342    0.4020    2.0155 H         1 <0>         0.1398
     27 H11         7.0639   -1.0416    1.0862 H         1 <0>         0.1321
     28 H12         7.4939    1.6240   -0.0616 H         1 <0>         0.4274
     29 H13         7.4845    0.4385   -2.1601 H         1 <0>         0.1402
     30 H14         7.0361   -1.0212   -1.2452 H         1 <0>         0.1320
     31 H15         5.0057   -0.0055   -2.1415 H         1 <0>         0.1165
     32 H16         5.4430    1.5709   -1.4312 H         1 <0>         0.0785
     33 H17         8.5988    0.4040   -0.0854 H         1 <0>         0.4316
@<TRIPOS>BOND
     1    1    6 ar
     2    1    2 ar
     3    1   17 1
     4    2    3 ar
     5    2   18 1
     6    3    4 ar
     7    3   19 1
     8    4   10 ar
     9    4    5 ar
    10    5    6 ar
    11    5    7 ar
    12    6   20 1
    13    7    8 ar
    14    7   21 1
    15    8    9 ar
    16    8   22 1
    17    9   10 ar
    18    9   23 1
    19   10   11 1
    20   11   16 1
    21   11   12 1
    22   12   13 1
    23   12   24 1
    24   12   25 1
    25   13   14 1
    26   13   26 1
    27   13   27 1
    28   14   15 1
    29   14   28 1
    30   14   33 1
    31   15   16 1
    32   15   29 1
    33   15   30 1
    34   16   31 1
    35   16   32 1
@<TRIPOS>MOLECULE
ZINC03716177
   33    35     0     0     0
SMALL
USER_CHARGES
1-(2-naphthyl)piperazine
@<TRIPOS>ATOM
      1 C1         -0.0126    1.0758    0.0080 C.ar      1 <0>        -0.1119
      2 C2         -1.2348    1.7455    0.0175 C.ar      1 <0>        -0.0997
      3 C3         -1.2880    3.1053    0.0310 C.ar      1 <0>        -0.1149
      4 C4         -0.0946    3.8484    0.0236 C.ar      1 <0>        -0.0318
      5 C5         -0.1122    5.2526    0.0308 C.ar      1 <0>        -0.1143
      6 C6          1.0780    5.9460    0.0227 C.ar      1 <0>         0.0845
      7 C7          2.3015    5.2649    0.0079 C.ar      1 <0>        -0.1631
      8 C8          2.3444    3.9066    0.0002 C.ar      1 <0>        -0.0683
      9 C9          1.1485    3.1673    0.0081 C.ar      1 <0>        -0.0637
     10 C10         1.1628    1.7621    0.0004 C.ar      1 <0>        -0.1017
     11 N1          1.0644    7.3421    0.0298 N.pl3     1 <0>        -0.4868
     12 C11         0.3072    7.8555    1.1799 C.3       1 <0>         0.0231
     13 C12         0.2487    9.3832    1.1078 C.3       1 <0>         0.0009
     14 C13         2.3726    9.4098   -0.0529 C.3       1 <0>         0.0010
     15 C14         2.4311    7.8821    0.0192 C.3       1 <0>         0.0188
     16 H1          0.0021   -0.0041    0.0020 H         1 <0>         0.1295
     17 H2         -2.1530    1.1770    0.0188 H         1 <0>         0.1295
     18 H3         -2.2422    3.6111    0.0429 H         1 <0>         0.1298
     19 H4         -1.0519    5.7849    0.0430 H         1 <0>         0.1314
     20 H5          3.2237    5.8268    0.0024 H         1 <0>         0.1274
     21 H6          3.2959    3.3957   -0.0113 H         1 <0>         0.1341
     22 H7          2.1021    1.2291   -0.0118 H         1 <0>         0.1315
     23 H8         -0.7049    7.4514    1.1587 H         1 <0>         0.1276
     24 H9          0.8003    7.5537    2.1040 H         1 <0>         0.0697
     25 H10        -0.2876    9.7679    1.9753 H         1 <0>         0.1412
     26 H11        -0.2685    9.6847    0.1970 H         1 <0>         0.1406
     27 H12         3.3847    9.8139   -0.0316 H         1 <0>         0.1413
     28 H13         1.8798    9.7116   -0.9771 H         1 <0>         0.1404
     29 H14         2.9483    7.5806    0.9301 H         1 <0>         0.0716
     30 H15         2.9675    7.4971   -0.8480 H         1 <0>         0.1296
     31 N2          1.6190    9.9295    1.1040 N.4       1 <0>        -0.5189
     32 H16         2.0960    9.6543    1.9705 H         1 <0>         0.4313
     33 H17         1.5754   10.9537    1.0477 H         1 <0>         0.4401
@<TRIPOS>BOND
     1    1   10 ar
     2    1    2 ar
     3    1   16 1
     4    2    3 ar
     5    2   17 1
     6    3    4 ar
     7    3   18 1
     8    4    9 ar
     9    4    5 ar
    10    5    6 ar
    11    5   19 1
    12    6    7 ar
    13    6   11 1
    14    7    8 ar
    15    7   20 1
    16    8    9 ar
    17    8   21 1
    18    9   10 ar
    19   10   22 1
    20   11   15 1
    21   11   12 1
    22   12   13 1
    23   12   23 1
    24   12   24 1
    25   13   25 1
    26   13   26 1
    27   13   31 1
    28   14   15 1
    29   14   27 1
    30   14   28 1
    31   14   31 1
    32   15   29 1
    33   15   30 1
    34   31   32 1
    35   31   33 1
@<TRIPOS>MOLECULE
ZINC01485772
   72    78     0     0     0
SMALL
USER_CHARGES

@<TRIPOS>ATOM
      1 C1          1.6163   -2.3774    2.2231 C.3       1 <0>        -0.1210
      2 C2          0.7907   -1.8729    1.0678 C.ar      1 <0>        -0.0703
      3 C3          0.7856   -2.5590   -0.1268 C.ar      1 <0>        -0.0750
      4 C4          0.0218   -2.0923   -1.1958 C.ar      1 <0>        -0.0250
      5 C5         -0.7377   -0.9310   -1.0559 C.ar      1 <0>        -0.0679
      6 C6         -0.7335   -0.2448    0.1381 C.ar      1 <0>        -0.1030
      7 C7          0.0270   -0.7143    1.2096 C.ar      1 <0>        -0.0375
      8 C8          0.0278    0.0210    2.4964 C.ar      1 <0>        -0.0146
      9 C9         -0.1918   -0.6649    3.6916 C.ar      1 <0>        -0.1046
     10 C10        -0.1912    0.0172    4.8873 C.ar      1 <0>        -0.0909
     11 C11         0.0294    1.3968    4.9039 C.ar      1 <0>        -0.1339
     12 C12         0.2492    2.0827    3.7066 C.ar      1 <0>        -0.0597
     13 C13         0.2539    1.3979    2.5125 C.ar      1 <0>        -0.1059
     14 C14         0.0297    2.1297    6.1862 C.2       1 <0>         0.5785
     15 O1          0.8787    2.9722    6.4047 O.2       1 <0>        -0.5160
     16 N1         -0.9110    1.8645    7.1142 N.am      1 <0>        -0.5470
     17 C15        -1.9155    0.8024    7.0129 C.3       1 <0>         0.0945
     18 C16        -2.7442    0.9064    8.3035 C.3       1 <0>        -0.0909
     19 C17        -2.1250    2.0587    9.0631 C.ar      1 <0>        -0.0840
     20 C18        -1.0682    2.5589    8.3186 C.ar      1 <0>         0.1264
     21 C19        -0.3317    3.6304    8.8266 C.ar      1 <0>        -0.0743
     22 C20        -0.6510    4.1775   10.0474 C.ar      1 <0>        -0.1528
     23 C21        -1.7139    3.6796   10.7934 C.ar      1 <0>         0.0923
     24 C22        -2.4493    2.6134   10.2842 C.ar      1 <0>        -0.0924
     25 O2         -1.8731    4.3767   11.9536 O.3       1 <0>        -0.2917
     26 C23        -0.6597    5.0931   12.2468 C.3       1 <0>         0.0547
     27 C24        -0.0485    5.3066   10.8496 C.3       1 <0>        -0.0507
     28 C25        -0.4659    6.6581   10.2848 C.3       1 <0>        -0.1313
     29 C26         0.1885    7.7745   11.1041 C.3       1 <0>        -0.0090
     30 N2          1.6481    7.6248   11.0587 N.4       1 <0>        -0.3853
     31 C27         2.0425    6.3640   11.6987 C.3       1 <0>        -0.0088
     32 C28         1.4687    5.1860   10.9056 C.3       1 <0>        -0.1326
     33 C29         2.2759    8.7484   11.7667 C.3       1 <0>        -0.0478
     34 C30         0.0174   -2.8309   -2.4823 C.2       1 <0>         0.2943
     35 N3         -0.6700   -2.4823   -3.5850 N.2       1 <0>        -0.5422
     36 C31        -0.4527   -3.3441   -4.5370 C.2       1 <0>         0.2985
     37 O3          0.3862   -4.2818   -4.0779 O.3       1 <0>        -0.1013
     38 N4          0.6869   -3.9285   -2.7360 N.2       1 <0>        -0.3345
     39 C32        -1.0456   -3.2948   -5.9216 C.3       1 <0>        -0.0761
     40 H1          1.0193   -3.0633    2.8242 H         1 <0>         0.0768
     41 H2          2.4945   -2.8985    1.8419 H         1 <0>         0.0727
     42 H3          1.9323   -1.5354    2.8390 H         1 <0>         0.0730
     43 H4          1.3737   -3.4583   -0.2354 H         1 <0>         0.1367
     44 H5         -1.3290   -0.5695   -1.8843 H         1 <0>         0.1435
     45 H6         -1.3214    0.6547    0.2462 H         1 <0>         0.1363
     46 H7         -0.3627   -1.7312    3.6785 H         1 <0>         0.1372
     47 H8         -0.3616   -0.5138    5.8122 H         1 <0>         0.1350
     48 H9          0.4198    3.1491    3.7185 H         1 <0>         0.1340
     49 H10         0.4285    1.9272    1.5874 H         1 <0>         0.1369
     50 H11        -2.5505    0.9644    6.1419 H         1 <0>         0.0938
     51 H12        -1.4308   -0.1720    6.9524 H         1 <0>         0.0935
     52 H13        -3.7867    1.1219    8.0694 H         1 <0>         0.1026
     53 H14        -2.6660   -0.0150    8.8806 H         1 <0>         0.1026
     54 H15         0.4939    4.0320    8.2578 H         1 <0>         0.1420
     55 H16        -3.2731    2.2100   10.8542 H         1 <0>         0.1392
     56 H17        -0.8802    6.0487   12.7225 H         1 <0>         0.1051
     57 H18         0.0025    4.4930   12.8709 H         1 <0>         0.0872
     58 H19        -0.1445    6.7332    9.2460 H         1 <0>         0.0979
     59 H20        -1.5502    6.7555   10.3383 H         1 <0>         0.1184
     60 H21        -0.0905    8.7423   10.6874 H         1 <0>         0.1375
     61 H22        -0.1509    7.7130   12.1381 H         1 <0>         0.1299
     62 H23         3.1299    6.2921   11.7201 H         1 <0>         0.1372
     63 H24         1.6568    6.3378   12.7179 H         1 <0>         0.1293
     64 H25         1.7413    4.2509   11.3948 H         1 <0>         0.1183
     65 H26         1.8721    5.1982    9.8931 H         1 <0>         0.0989
     66 H27         1.9429    8.7556   12.8045 H         1 <0>         0.1221
     67 H28         3.3599    8.6386   11.7337 H         1 <0>         0.1251
     68 H29         1.9909    9.6849   11.2872 H         1 <0>         0.1250
     69 H30        -0.3884   -2.7246   -6.5781 H         1 <0>         0.1105
     70 H31        -1.1535   -4.3087   -6.3069 H         1 <0>         0.1031
     71 H32        -2.0237   -2.8155   -5.8811 H         1 <0>         0.1111
     72 H33         1.9549    7.6229   10.0975 H         1 <0>         0.4265
@<TRIPOS>BOND
     1    1    2 1
     2    1   40 1
     3    1   41 1
     4    1   42 1
     5    2    7 ar
     6    2    3 ar
     7    3    4 ar
     8    3   43 1
     9    4    5 ar
    10    4   34 1
    11    5    6 ar
    12    5   44 1
    13    6    7 ar
    14    6   45 1
    15    7    8 1
    16    8   13 ar
    17    8    9 ar
    18    9   10 ar
    19    9   46 1
    20   10   11 ar
    21   10   47 1
    22   11   12 ar
    23   11   14 1
    24   12   13 ar
    25   12   48 1
    26   13   49 1
    27   14   15 2
    28   14   16 am
    29   16   20 1
    30   16   17 1
    31   17   18 1
    32   17   50 1
    33   17   51 1
    34   18   19 1
    35   18   52 1
    36   18   53 1
    37   19   24 ar
    38   19   20 ar
    39   20   21 ar
    40   21   22 ar
    41   21   54 1
    42   22   27 1
    43   22   23 ar
    44   23   24 ar
    45   23   25 1
    46   24   55 1
    47   25   26 1
    48   26   27 1
    49   26   56 1
    50   26   57 1
    51   27   32 1
    52   27   28 1
    53   28   29 1
    54   28   58 1
    55   28   59 1
    56   29   30 1
    57   29   60 1
    58   29   61 1
    59   30   31 1
    60   30   33 1
    61   30   72 1
    62   31   32 1
    63   31   62 1
    64   31   63 1
    65   32   64 1
    66   32   65 1
    67   33   66 1
    68   33   67 1
    69   33   68 1
    70   34   38 2
    71   34   35 1
    72   35   36 2
    73   36   37 1
    74   36   39 1
    75   37   38 1
    76   39   69 1
    77   39   70 1
    78   39   71 1
@<TRIPOS>MOLECULE
ZINC05965209
   35    37     0     0     0
SMALL
USER_CHARGES
N,N-dimethylBLAHamine
@<TRIPOS>ATOM
      1 C1          4.8513    1.3271   -0.6298 C.3       1 <0>        -0.0464
      2 C2          3.6378    3.3982   -0.9475 C.3       1 <0>        -0.0468
      3 C3          2.4371    1.3560   -0.4471 C.3       1 <0>         0.0289
      4 H1          2.3366    1.1061   -1.5033 H         1 <0>         0.1425
      5 C4          2.4674    0.0701    0.3880 C.3       1 <0>        -0.1406
      6 C5          1.2823   -0.7986   -0.0269 C.3       1 <0>        -0.0715
      7 C6          0.0021   -0.0041    0.0020 C.ar      1 <0>        -0.1044
      8 C7         -1.1969   -0.7193    0.0182 C.ar      1 <0>        -0.1004
      9 C8         -2.4121   -0.0782    0.0376 C.ar      1 <0>        -0.1077
     10 C9         -2.4534    1.3122    0.0411 C.ar      1 <0>         0.0953
     11 C10        -1.2473    2.0302    0.0309 C.ar      1 <0>        -0.1031
     12 C11        -0.0164    1.3565    0.0095 C.ar      1 <0>        -0.0449
     13 C12         1.2389    2.1893    0.0020 C.3       1 <0>        -0.0900
     14 C13        -1.6183    3.4475    0.0402 C.2       1 <0>        -0.2172
     15 C14        -2.9597    3.5005    0.0615 C.2       1 <0>         0.0674
     16 N1         -3.4765    2.2333    0.0563 N.pl3     1 <0>        -0.5897
     17 H2         -4.4219    2.0165    0.0679 H         1 <0>         0.4219
     18 H3          4.7767    1.0700   -1.6864 H         1 <0>         0.1233
     19 H4          5.7551    1.9125   -0.4612 H         1 <0>         0.1233
     20 H5          4.8937    0.4141   -0.0358 H         1 <0>         0.1233
     21 H6          2.7981    3.9908   -0.5845 H         1 <0>         0.1224
     22 H7          4.5674    3.9397   -0.7721 H         1 <0>         0.1232
     23 H8          3.5193    3.2161   -2.0156 H         1 <0>         0.1234
     24 H9          2.3887    0.3176    1.4467 H         1 <0>         0.0915
     25 H10         3.3984   -0.4659    0.2036 H         1 <0>         0.0925
     26 H11         1.1973   -1.6412    0.6593 H         1 <0>         0.0947
     27 H12         1.4492   -1.1736   -1.0367 H         1 <0>         0.0854
     28 H13        -1.1686   -1.7990    0.0159 H         1 <0>         0.1307
     29 H14        -3.3284   -0.6496    0.0503 H         1 <0>         0.1279
     30 H15         1.1088    3.0285   -0.6813 H         1 <0>         0.0974
     31 H16         1.4229    2.5703    1.0065 H         1 <0>         0.0935
     32 H17        -0.9417    4.2893    0.0315 H         1 <0>         0.1457
     33 H18        -3.5443    4.4086    0.0728 H         1 <0>         0.1755
     34 N2          3.6787    2.1206   -0.2053 N.4       1 <0>        -0.3957
     35 H19         3.7571    2.3205    0.7987 H         1 <0>         0.4288
@<TRIPOS>BOND
     1    1   18 1
     2    1   19 1
     3    1   20 1
     4    1   34 1
     5    2   21 1
     6    2   22 1
     7    2   23 1
     8    2   34 1
     9    3    4 1
    10    3   13 1
    11    3    5 1
    12    3   34 1
    13    5    6 1
    14    5   24 1
    15    5   25 1
    16    6    7 1
    17    6   26 1
    18    6   27 1
    19    7   12 ar
    20    7    8 ar
    21    8    9 ar
    22    8   28 1
    23    9   10 ar
    24    9   29 1
    25   10   16 1
    26   10   11 ar
    27   11   12 ar
    28   11   14 1
    29   12   13 1
    30   13   30 1
    31   13   31 1
    32   14   15 2
    33   14   32 1
    34   15   16 1
    35   15   33 1
    36   16   17 1
    37   34   35 1
@<TRIPOS>MOLECULE
ZINC02599103
   40    41     0     0     0
SMALL
USER_CHARGES
2-(5-isopropyl-1H-indol-3-yl)-N,N-dimethyl-ethanamine
@<TRIPOS>ATOM
      1 C1          3.6757    5.3702    4.6138 C.3       1 <0>        -0.1482
      2 C2          3.7539    4.4310    3.4085 C.3       1 <0>        -0.0540
      3 C3          5.2131    4.0476    3.1545 C.3       1 <0>        -0.1470
      4 C4          2.9491    3.1878    3.6875 C.ar      1 <0>        -0.0850
      5 C5          3.2803    2.3810    4.7677 C.ar      1 <0>        -0.0873
      6 C6          2.5580    1.2401    5.0400 C.ar      1 <0>        -0.1188
      7 C7          1.4854    0.8906    4.2259 C.ar      1 <0>         0.0908
      8 C8          1.1578    1.7080    3.1289 C.ar      1 <0>        -0.0965
      9 C9          1.8996    2.8634    2.8750 C.ar      1 <0>        -0.0839
     10 C10         0.0000    1.0800    2.4877 C.2       1 <0>        -0.2055
     11 C11        -0.2849   -0.0276    3.1905 C.2       1 <0>         0.0834
     12 N1          0.5921   -0.1571    4.2328 N.pl3     1 <0>        -0.5878
     13 H1          0.5858   -0.8797    4.8799 H         1 <0>         0.4227
     14 C12        -0.7288    1.5792    1.2668 C.3       1 <0>        -0.0594
     15 C13        -0.0127    1.0858    0.0080 C.3       1 <0>        -0.0040
     16 C14         0.0585    1.3230   -2.4006 C.3       1 <0>        -0.0424
     17 C15        -2.0591    0.9694   -1.2810 C.3       1 <0>        -0.0468
     18 H2          4.0775    4.8670    5.4932 H         1 <0>         0.0585
     19 H3          4.2578    6.2694    4.4120 H         1 <0>         0.0613
     20 H4          2.6361    5.6434    4.7947 H         1 <0>         0.0560
     21 H5          3.3521    4.9342    2.5291 H         1 <0>         0.0749
     22 H6          5.2688    3.3784    2.2959 H         1 <0>         0.0541
     23 H7          5.7952    4.9468    2.9528 H         1 <0>         0.0612
     24 H8          5.6149    3.5443    4.0340 H         1 <0>         0.0586
     25 H9          4.1129    2.6504    5.4006 H         1 <0>         0.1300
     26 H10         2.8233    0.6192    5.8829 H         1 <0>         0.1253
     27 H11         1.6480    3.4956    2.0363 H         1 <0>         0.1166
     28 H12        -1.0874   -0.7147    2.9665 H         1 <0>         0.1718
     29 H13        -0.7436    2.6691    1.2728 H         1 <0>         0.0902
     30 H14        -1.7514    1.2020    1.2746 H         1 <0>         0.0900
     31 H15         0.0021   -0.0041    0.0020 H         1 <0>         0.1298
     32 H16         1.0099    1.4631    0.0003 H         1 <0>         0.1287
     33 H17         0.2299    0.2520   -2.5094 H         1 <0>         0.1220
     34 H18        -0.4905    1.6929   -3.2665 H         1 <0>         0.1219
     35 H19         1.0161    1.8388   -2.3299 H         1 <0>         0.1209
     36 H20        -2.6409    1.2283   -0.3963 H         1 <0>         0.1224
     37 H21        -2.5631    1.3469   -2.1707 H         1 <0>         0.1217
     38 H22        -1.9644   -0.1143   -1.3492 H         1 <0>         0.1225
     39 N2         -0.7265    1.6008   -1.1794 N.4       1 <0>        -0.3994
     40 H23        -0.8450    2.6161   -1.0829 H         1 <0>         0.4306
@<TRIPOS>BOND
     1    1    2 1
     2    1   18 1
     3    1   19 1
     4    1   20 1
     5    2    3 1
     6    2    4 1
     7    2   21 1
     8    3   22 1
     9    3   23 1
    10    3   24 1
    11    4    9 ar
    12    4    5 ar
    13    5    6 ar
    14    5   25 1
    15    6    7 ar
    16    6   26 1
    17    7   12 1
    18    7    8 ar
    19    8    9 ar
    20    8   10 1
    21    9   27 1
    22   10   11 2
    23   10   14 1
    24   11   12 1
    25   11   28 1
    26   12   13 1
    27   14   15 1
    28   14   29 1
    29   14   30 1
    30   15   31 1
    31   15   32 1
    32   15   39 1
    33   16   33 1
    34   16   34 1
    35   16   35 1
    36   16   39 1
    37   17   36 1
    38   17   37 1
    39   17   38 1
    40   17   39 1
    41   39   40 1
@<TRIPOS>MOLECULE
ZINC03798324
   35    37     0     0     0
SMALL
USER_CHARGES
N,N-dimethylBLAHamine
@<TRIPOS>ATOM
      1 C1         -0.0127    1.0858    0.0080 C.3       1 <0>        -0.0445
      2 C2         -0.0162    1.0911    2.4293 C.3       1 <0>        -0.0526
      3 C3         -0.8223    3.0235    1.2133 C.3       1 <0>         0.0278
      4 H1         -1.3061    3.3498    0.2926 H         1 <0>         0.1401
      5 C4          0.5694    3.6587    1.3205 C.3       1 <0>        -0.1346
      6 C5          0.4296    5.1610    1.0863 C.3       1 <0>        -0.0719
      7 C6         -0.6464    5.7406    1.9680 C.ar      1 <0>        -0.1044
      8 C7         -0.6481    7.1245    2.1531 C.ar      1 <0>        -0.1005
      9 C8         -1.5998    7.7412    2.9290 C.ar      1 <0>        -0.1077
     10 C9         -2.5834    6.9748    3.5454 C.ar      1 <0>         0.0953
     11 C10        -2.5785    5.5831    3.3615 C.ar      1 <0>        -0.1032
     12 C11        -1.5968    4.9723    2.5663 C.ar      1 <0>        -0.0442
     13 C12        -1.6476    3.4742    2.4164 C.3       1 <0>        -0.0927
     14 C13        -3.7175    5.0685    4.1261 C.2       1 <0>        -0.2170
     15 C14        -4.3148    6.1263    4.6978 C.2       1 <0>         0.0673
     16 N1         -3.6513    7.2750    4.3608 N.pl3     1 <0>        -0.5899
     17 H2         -3.8958    8.1667    4.6539 H         1 <0>         0.4219
     18 H3          0.0021   -0.0041    0.0020 H         1 <0>         0.1233
     19 H4          1.0099    1.4631    0.0003 H         1 <0>         0.1236
     20 H5         -0.5399    1.4469   -0.8751 H         1 <0>         0.1218
     21 H6          0.9826    1.5252    2.4736 H         1 <0>         0.1248
     22 H7         -0.5844    1.3965    3.3079 H         1 <0>         0.1231
     23 H8          0.0607    0.0041    2.4061 H         1 <0>         0.1237
     24 H9          0.9801    3.4784    2.3139 H         1 <0>         0.0913
     25 H10         1.2286    3.2290    0.5662 H         1 <0>         0.0903
     26 H11         0.1725    5.3391    0.0421 H         1 <0>         0.0856
     27 H12         1.3784    5.6484    1.3103 H         1 <0>         0.0944
     28 H13         0.1143    7.7227    1.6762 H         1 <0>         0.1306
     29 H14        -1.5845    8.8132    3.0590 H         1 <0>         0.1278
     30 H15        -2.6828    3.1621    2.2788 H         1 <0>         0.0965
     31 H16        -1.2497    3.0101    3.3188 H         1 <0>         0.0957
     32 H17        -4.0189    4.0351    4.2135 H         1 <0>         0.1460
     33 H18        -5.1893    6.0780    5.3298 H         1 <0>         0.1755
     34 N2         -0.7268    1.5485    1.2166 N.4       1 <0>        -0.3946
     35 H19        -1.6743    1.1530    1.2161 H         1 <0>         0.4313
@<TRIPOS>BOND
     1    1   18 1
     2    1   19 1
     3    1   20 1
     4    1   34 1
     5    2   21 1
     6    2   22 1
     7    2   23 1
     8    2   34 1
     9    3    4 1
    10    3   13 1
    11    3    5 1
    12    3   34 1
    13    5    6 1
    14    5   24 1
    15    5   25 1
    16    6    7 1
    17    6   26 1
    18    6   27 1
    19    7   12 ar
    20    7    8 ar
    21    8    9 ar
    22    8   28 1
    23    9   10 ar
    24    9   29 1
    25   10   16 1
    26   10   11 ar
    27   11   12 ar
    28   11   14 1
    29   12   13 1
    30   13   30 1
    31   13   31 1
    32   14   15 2
    33   14   32 1
    34   15   16 1
    35   15   33 1
    36   16   17 1
    37   34   35 1
@<TRIPOS>MOLECULE
ZINC00005554
   49    51     0     0     0
SMALL
USER_CHARGES
dipropylaminoBLAHcarbaldehyde
@<TRIPOS>ATOM
      1 C1         -4.2338    2.9891    4.6862 C.3       1 <0>        -0.1560
      2 C2         -2.9773    3.6728    4.1432 C.3       1 <0>        -0.1504
      3 C3         -2.3882    2.8311    3.0095 C.3       1 <0>        -0.0143
      4 C4         -0.0708    3.3824    3.4434 C.3       1 <0>        -0.0115
      5 C5          0.9773    4.4509    3.1263 C.3       1 <0>        -0.1504
      6 C6          2.0706    4.4264    4.1963 C.3       1 <0>        -0.1556
      7 C7         -0.8055    2.9351    1.1800 C.3       1 <0>         0.0268
      8 H1          0.1866    3.2912    0.9027 H         1 <0>         0.1427
      9 C8         -0.8067    1.4033    1.2462 C.3       1 <0>        -0.1333
     10 C9         -0.1882    0.8660   -0.0425 C.3       1 <0>        -0.0741
     11 C10        -0.8471    1.4869   -1.2467 C.ar      1 <0>        -0.0848
     12 C11        -0.6808    0.8483   -2.4751 C.ar      1 <0>        -0.1031
     13 C12        -1.2449    1.3523   -3.6230 C.ar      1 <0>        -0.0946
     14 C13        -1.9966    2.5214   -3.5656 C.ar      1 <0>         0.0782
     15 C14        -2.1656    3.1623   -2.3317 C.ar      1 <0>        -0.0567
     16 C15        -1.5894    2.6387   -1.1699 C.ar      1 <0>        -0.0539
     17 C16        -1.8216    3.3701    0.1262 C.3       1 <0>        -0.1005
     18 C17        -2.9970    4.3514   -2.6046 C.2       1 <0>        -0.3060
     19 C18        -3.2588    4.3332   -3.9582 C.2       1 <0>         0.1738
     20 N1         -2.6706    3.2586   -4.5181 N.pl3     1 <0>        -0.5637
     21 H2         -2.7141    3.0341   -5.4607 H         1 <0>         0.4290
     22 C19        -3.4367    5.3170   -1.6650 C.2       1 <0>         0.4014
     23 O1         -4.1859    6.2063   -2.0138 O.2       1 <0>        -0.4730
     24 H3         -3.9747    2.0003    5.0646 H         1 <0>         0.0666
     25 H4         -4.6535    3.5888    5.4939 H         1 <0>         0.0772
     26 H5         -4.9684    2.8913    3.8869 H         1 <0>         0.0671
     27 H6         -2.2428    3.7707    4.9426 H         1 <0>         0.0852
     28 H7         -3.2365    4.6616    3.7648 H         1 <0>         0.0860
     29 H8         -3.1228    2.7332    2.2102 H         1 <0>         0.1299
     30 H9         -2.1291    1.8423    3.3879 H         1 <0>         0.1330
     31 H10        -0.4467    3.5312    4.4557 H         1 <0>         0.1314
     32 H11         0.3827    2.3943    3.3658 H         1 <0>         0.1319
     33 H12         1.4191    4.2483    2.1507 H         1 <0>         0.0853
     34 H13         0.5032    5.4324    3.1136 H         1 <0>         0.0850
     35 H14         2.5446    3.4449    4.2089 H         1 <0>         0.0668
     36 H15         2.8172    5.1877    3.9704 H         1 <0>         0.0769
     37 H16         1.6287    4.6290    5.1719 H         1 <0>         0.0667
     38 H17        -1.8300    1.0401    1.3417 H         1 <0>         0.0930
     39 H18        -0.2179    1.0728    2.1019 H         1 <0>         0.0905
     40 H19        -0.3183   -0.2155   -0.0796 H         1 <0>         0.0977
     41 H20         0.8763    1.1003   -0.0548 H         1 <0>         0.0889
     42 H21        -0.0974   -0.0592   -2.5257 H         1 <0>         0.1354
     43 H22        -1.1053    0.8427   -4.5649 H         1 <0>         0.1323
     44 H23        -1.7254    4.4424   -0.0443 H         1 <0>         0.0996
     45 H24        -2.8274    3.1530    0.4858 H         1 <0>         0.0977
     46 H25        -3.8460    5.0683   -4.4886 H         1 <0>         0.1923
     47 H26        -3.1053    5.2618   -0.6385 H         1 <0>         0.0823
     48 N2         -1.1878    3.5154    2.4846 N.4       1 <0>        -0.3945
     49 H27        -1.4009    4.5116    2.3569 H         1 <0>         0.4257
@<TRIPOS>BOND
     1    1    2 1
     2    1   24 1
     3    1   25 1
     4    1   26 1
     5    2    3 1
     6    2   27 1
     7    2   28 1
     8    3   29 1
     9    3   30 1
    10    3   48 1
    11    4    5 1
    12    4   31 1
    13    4   32 1
    14    4   48 1
    15    5    6 1
    16    5   33 1
    17    5   34 1
    18    6   35 1
    19    6   36 1
    20    6   37 1
    21    7    8 1
    22    7   17 1
    23    7    9 1
    24    7   48 1
    25    9   10 1
    26    9   38 1
    27    9   39 1
    28   10   11 1
    29   10   40 1
    30   10   41 1
    31   11   16 ar
    32   11   12 ar
    33   12   13 ar
    34   12   42 1
    35   13   14 ar
    36   13   43 1
    37   14   20 1
    38   14   15 ar
    39   15   16 ar
    40   15   18 1
    41   16   17 1
    42   17   44 1
    43   17   45 1
    44   18   19 2
    45   18   22 1
    46   19   20 1
    47   19   46 1
    48   20   21 1
    49   22   23 2
    50   22   47 1
    51   48   49 1
@<TRIPOS>MOLECULE
ZINC03782839
   49    51     0     0     0
SMALL
USER_CHARGES
dipropylaminoBLAHcarbaldehyde
@<TRIPOS>ATOM
      1 C1         -3.6867    4.1399    4.5515 C.3       1 <0>        -0.1565
      2 C2         -3.5861    2.6545    4.1989 C.3       1 <0>        -0.1495
      3 C3         -3.1068    2.5047    2.7537 C.3       1 <0>        -0.0169
      4 C4         -4.3367    0.4475    2.4105 C.3       1 <0>        -0.0172
      5 C5         -4.1810   -1.0681    2.5497 C.3       1 <0>        -0.1487
      6 C6         -5.5618   -1.7118    2.6915 C.3       1 <0>        -0.1564
      7 C7         -2.3322    0.8882    1.1259 C.3       1 <0>         0.0272
      8 H1         -2.3846   -0.1609    0.8348 H         1 <0>         0.1424
      9 C8         -0.8662    1.3190    1.2436 C.3       1 <0>        -0.1381
     10 C9         -0.1354    0.8919   -0.0274 C.3       1 <0>        -0.0738
     11 C10        -0.8780    1.3633   -1.2506 C.ar      1 <0>        -0.0850
     12 C11        -0.1793    1.3979   -2.4569 C.ar      1 <0>        -0.1027
     13 C12        -0.7846    1.8114   -3.6198 C.ar      1 <0>        -0.0946
     14 C13        -2.1195    2.2026   -3.6007 C.ar      1 <0>         0.0782
     15 C14        -2.8214    2.1693   -2.3890 C.ar      1 <0>        -0.0567
     16 C15        -2.1941    1.7502   -1.2113 C.ar      1 <0>        -0.0543
     17 C16        -3.0022    1.7521    0.0597 C.3       1 <0>        -0.0959
     18 C17        -4.1872    2.6355   -2.7005 C.2       1 <0>        -0.3066
     19 C18        -4.1998    2.9088   -4.0519 C.2       1 <0>         0.1746
     20 N1         -2.9854    2.6539   -4.5760 N.pl3     1 <0>        -0.5634
     21 H2         -2.7517    2.7714   -5.5101 H         1 <0>         0.4291
     22 C19        -5.2671    2.7748   -1.7933 C.2       1 <0>         0.4016
     23 O1         -6.3422    3.1787   -2.1868 O.2       1 <0>        -0.4729
     24 H3         -4.0282    4.2467    5.5811 H         1 <0>         0.0772
     25 H4         -2.7074    4.6062    4.4433 H         1 <0>         0.0669
     26 H5         -4.3962    4.6252    3.8812 H         1 <0>         0.0671
     27 H6         -4.5654    2.1883    4.3070 H         1 <0>         0.0859
     28 H7         -2.8766    2.1692    4.8692 H         1 <0>         0.0856
     29 H8         -2.1275    2.9710    2.6455 H         1 <0>         0.1316
     30 H9         -3.8162    2.9900    2.0834 H         1 <0>         0.1322
     31 H10        -4.9242    0.8306    3.2450 H         1 <0>         0.1335
     32 H11        -4.8445    0.6761    1.4735 H         1 <0>         0.1304
     33 H12        -3.6843   -1.4652    1.6644 H         1 <0>         0.0851
     34 H13        -3.5831   -1.2924    3.4331 H         1 <0>         0.0850
     35 H14        -6.0585   -1.3148    3.5768 H         1 <0>         0.0669
     36 H15        -6.1597   -1.4875    1.8082 H         1 <0>         0.0673
     37 H16        -5.4509   -2.7916    2.7907 H         1 <0>         0.0769
     38 H17        -0.4109    0.8369    2.1087 H         1 <0>         0.0926
     39 H18        -0.8093    2.4019    1.3537 H         1 <0>         0.0924
     40 H19        -0.0596   -0.1952   -0.0500 H         1 <0>         0.0897
     41 H20         0.8663    1.3218   -0.0274 H         1 <0>         0.0980
     42 H21         0.8569    1.0944   -2.4778 H         1 <0>         0.1356
     43 H22        -0.2262    1.8328   -4.5440 H         1 <0>         0.1324
     44 H23        -3.0894    2.7742    0.4283 H         1 <0>         0.0993
     45 H24        -3.9978    1.3595   -0.1471 H         1 <0>         0.0971
     46 H25        -5.0528    3.2723   -4.6055 H         1 <0>         0.1924
     47 H26        -5.1337    2.5216   -0.7519 H         1 <0>         0.0803
     48 N2         -2.9944    1.0657    2.4354 N.4       1 <0>        -0.3925
     49 H27        -2.4294    0.6070    3.1597 H         1 <0>         0.4271
@<TRIPOS>BOND
     1    1    2 1
     2    1   24 1
     3    1   25 1
     4    1   26 1
     5    2    3 1
     6    2   27 1
     7    2   28 1
     8    3   29 1
     9    3   30 1
    10    3   48 1
    11    4    5 1
    12    4   31 1
    13    4   32 1
    14    4   48 1
    15    5    6 1
    16    5   33 1
    17    5   34 1
    18    6   35 1
    19    6   36 1
    20    6   37 1
    21    7    8 1
    22    7   17 1
    23    7    9 1
    24    7   48 1
    25    9   10 1
    26    9   38 1
    27    9   39 1
    28   10   11 1
    29   10   40 1
    30   10   41 1
    31   11   16 ar
    32   11   12 ar
    33   12   13 ar
    34   12   42 1
    35   13   14 ar
    36   13   43 1
    37   14   20 1
    38   14   15 ar
    39   15   16 ar
    40   15   18 1
    41   16   17 1
    42   17   44 1
    43   17   45 1
    44   18   19 2
    45   18   22 1
    46   19   20 1
    47   19   46 1
    48   20   21 1
    49   22   23 2
    50   22   47 1
    51   48   49 1
@<TRIPOS>MOLECULE
ZINC13779792
   37    38     0     0     0
SMALL
USER_CHARGES
2-[(4-tert-butylphenyl)methyl]-4,5-dihydro-1H-imidazole
@<TRIPOS>ATOM
      1 C1          5.5663   -3.2054    0.6563 C.3       1 <0>        -0.1430
      2 C2          5.4759   -1.8553   -0.0578 C.3       1 <0>        -0.0377
      3 C3          5.9456   -2.0117   -1.5055 C.3       1 <0>        -0.1496
      4 C4          6.3654   -0.8381    0.6599 C.3       1 <0>        -0.1415
      5 C5          4.0481   -1.3733   -0.0422 C.ar      1 <0>        -0.0373
      6 C6          3.4045   -1.1579    1.1620 C.ar      1 <0>        -0.1112
      7 C7          2.0951   -0.7149    1.1763 C.ar      1 <0>        -0.1001
      8 C8          1.4295   -0.4870   -0.0136 C.ar      1 <0>        -0.1536
      9 C9          2.0714   -0.7075   -1.2178 C.ar      1 <0>        -0.0996
     10 C10         3.3822   -1.1463   -1.2322 C.ar      1 <0>        -0.1172
     11 C11         0.0021   -0.0041    0.0020 C.3       1 <0>        -0.0593
     12 C12        -0.0184    1.5028    0.0103 C.cat     1 <0>         0.5156
     13 C13         0.7133    3.6406    0.0148 C.3       1 <0>         0.0489
     14 C14        -0.8288    3.6551    0.0296 C.3       1 <0>         0.0669
     15 N1         -1.1750    2.2235    0.0194 N.pl3     1 <0>        -0.6669
     16 H1          4.9326   -3.9300    0.1450 H         1 <0>         0.0591
     17 H2          6.5990   -3.5540    0.6450 H         1 <0>         0.0667
     18 H3          5.2317   -3.0940    1.6877 H         1 <0>         0.0588
     19 H4          5.8812   -1.0498   -2.0143 H         1 <0>         0.0594
     20 H5          6.9783   -2.3602   -1.5168 H         1 <0>         0.0663
     21 H6          5.3119   -2.7363   -2.0169 H         1 <0>         0.0611
     22 H7          6.0308   -0.7267    1.6912 H         1 <0>         0.0584
     23 H8          7.3981   -1.1867    0.6486 H         1 <0>         0.0669
     24 H9          6.3010    0.1237    0.1511 H         1 <0>         0.0565
     25 H10         3.9247   -1.3353    2.0917 H         1 <0>         0.1328
     26 H11         1.5923   -0.5466    2.1172 H         1 <0>         0.1293
     27 H12         1.5500   -0.5336   -2.1475 H         1 <0>         0.1293
     28 H13         3.8852   -1.3143   -2.1730 H         1 <0>         0.1383
     29 H14        -0.4986   -0.3791    0.8946 H         1 <0>         0.1405
     30 H15        -0.5149   -0.3696   -0.8853 H         1 <0>         0.1405
     31 H16         1.1091    4.1206    0.9099 H         1 <0>         0.1272
     32 H17         1.0942    4.1307   -0.8812 H         1 <0>         0.1274
     33 H18        -1.2009    4.1387    0.9328 H         1 <0>         0.1215
     34 H19        -1.2180    4.1510   -0.8596 H         1 <0>         0.1214
     35 H20        -2.0728    1.8563    0.0211 H         1 <0>         0.4580
     36 N2          1.0555    2.2084    0.0038 N.pl3     1 <0>        -0.6086
     37 H21         2.0099    1.8300   -0.0073 H         1 <0>         0.4750
@<TRIPOS>BOND
     1    1    2 1
     2    1   16 1
     3    1   17 1
     4    1   18 1
     5    2    3 1
     6    2    4 1
     7    2    5 1
     8    3   19 1
     9    3   20 1
    10    3   21 1
    11    4   22 1
    12    4   23 1
    13    4   24 1
    14    5   10 ar
    15    5    6 ar
    16    6    7 ar
    17    6   25 1
    18    7    8 ar
    19    7   26 1
    20    8    9 ar
    21    8   11 1
    22    9   10 ar
    23    9   27 1
    24   10   28 1
    25   11   12 1
    26   11   29 1
    27   11   30 1
    28   12   15 1
    29   12   36 2
    30   13   14 1
    31   13   31 1
    32   13   32 1
    33   13   36 1
    34   14   15 1
    35   14   33 1
    36   14   34 1
    37   15   35 1
    38   36   37 1
@<TRIPOS>MOLECULE
ZINC00057534
   43    44     0     0     0
SMALL
USER_CHARGES

@<TRIPOS>ATOM
      1 C1         -0.0184    1.5028    0.0103 C.3       1 <0>        -0.1195
      2 C2          0.0021   -0.0041    0.0020 C.ar      1 <0>        -0.0615
      3 C3          0.0057   -0.6886   -1.1989 C.ar      1 <0>        -0.1151
      4 C4          0.0245   -2.0709   -1.2065 C.ar      1 <0>        -0.0313
      5 C5          0.0400   -2.7685   -0.0132 C.ar      1 <0>        -0.1210
      6 C6          0.0373   -2.0839    1.1877 C.ar      1 <0>        -0.0613
      7 C7          0.0229   -0.7016    1.1953 C.ar      1 <0>        -0.1315
      8 C8          0.0251    0.0448    2.5045 C.3       1 <0>        -0.0675
      9 C9         -1.3947    0.2743    2.9543 C.cat     1 <0>         0.5217
     10 N1         -2.0786    1.3407    2.6117 N.pl3     1 <0>        -0.6330
     11 C10        -3.4228    1.2677    3.2067 C.3       1 <0>         0.0556
     12 C11        -3.3948   -0.0688    3.9769 C.3       1 <0>         0.0556
     13 N2         -2.0402   -0.5802    3.7129 N.pl3     1 <0>        -0.6331
     14 C12         0.0537   -2.8444    2.4886 C.3       1 <0>        -0.1196
     15 C13         0.0274   -2.8172   -2.5157 C.3       1 <0>        -0.0361
     16 C14         1.2671   -2.4263   -3.3228 C.3       1 <0>        -0.1420
     17 C15         0.0494   -4.3228   -2.2444 C.3       1 <0>        -0.1487
     18 C16        -1.2311   -2.4602   -3.3091 C.3       1 <0>        -0.1407
     19 H1          1.0042    1.8801    0.0026 H         1 <0>         0.0888
     20 H2         -0.5455    1.8639   -0.8728 H         1 <0>         0.0819
     21 H3         -0.5286    1.8543    0.9071 H         1 <0>         0.0426
     22 H4         -0.0064   -0.1436   -2.1312 H         1 <0>         0.1313
     23 H5          0.0540   -3.8484   -0.0191 H         1 <0>         0.1370
     24 H6          0.5541   -0.5413    3.2560 H         1 <0>         0.1324
     25 H7          0.5248    1.0048    2.3745 H         1 <0>         0.1325
     26 H8         -3.5873    2.1017    3.8891 H         1 <0>         0.1277
     27 H9         -4.1870    1.2483    2.4298 H         1 <0>         0.1262
     28 H10        -3.5454    0.0983    5.0434 H         1 <0>         0.1280
     29 H11        -4.1451   -0.7550    3.5841 H         1 <0>         0.1259
     30 H12        -1.6805   -1.4163    4.0484 H         1 <0>         0.4563
     31 H13         1.0852   -3.0145    2.7971 H         1 <0>         0.0889
     32 H14        -0.4637   -2.2661    3.2541 H         1 <0>         0.0424
     33 H15        -0.4485   -3.8026    2.3557 H         1 <0>         0.0820
     34 H16         2.1637   -2.6806   -2.7576 H         1 <0>         0.0588
     35 H17         1.2692   -2.9661   -4.2697 H         1 <0>         0.0662
     36 H18         1.2515   -1.3537   -3.5161 H         1 <0>         0.0583
     37 H19        -0.8337   -4.6013   -1.6694 H         1 <0>         0.0588
     38 H20         0.0516   -4.8626   -3.1914 H         1 <0>         0.0659
     39 H21         0.9460   -4.5771   -1.6792 H         1 <0>         0.0608
     40 H22        -1.2468   -1.3876   -3.5024 H         1 <0>         0.0577
     41 H23        -1.2290   -3.0000   -4.2561 H         1 <0>         0.0664
     42 H24        -2.1143   -2.7387   -2.7341 H         1 <0>         0.0561
     43 H25        -1.7498    2.0634    2.0546 H         1 <0>         0.4563
@<TRIPOS>BOND
     1    1    2 1
     2    1   19 1
     3    1   20 1
     4    1   21 1
     5    2    7 ar
     6    2    3 ar
     7    3    4 ar
     8    3   22 1
     9    4    5 ar
    10    4   15 1
    11    5    6 ar
    12    5   23 1
    13    6    7 ar
    14    6   14 1
    15    7    8 1
    16    8    9 1
    17    8   24 1
    18    8   25 1
    19    9   13 1
    20    9   10 2
    21   10   11 1
    22   10   43 1
    23   11   12 1
    24   11   26 1
    25   11   27 1
    26   12   13 1
    27   12   28 1
    28   12   29 1
    29   13   30 1
    30   14   31 1
    31   14   32 1
    32   14   33 1
    33   15   16 1
    34   15   17 1
    35   15   18 1
    36   16   34 1
    37   16   35 1
    38   16   36 1
    39   17   37 1
    40   17   38 1
    41   17   39 1
    42   18   40 1
    43   18   41 1
    44   18   42 1
@<TRIPOS>MOLECULE
ZINC52541473
   65    68     0     0     0
SMALL
USER_CHARGES

@<TRIPOS>ATOM
      1 C1          0.7296    2.3679    0.2240 C.3       1 <0>         0.0253
      2 O1          0.6046    0.9543    0.3920 O.3       1 <0>        -0.3054
      3 C2         -0.6460    0.4667    0.6114 C.ar      1 <0>         0.1182
      4 C3         -1.7290    1.3289    0.6581 C.ar      1 <0>        -0.2068
      5 C4         -2.9998    0.8318    0.8817 C.ar      1 <0>        -0.0835
      6 C5         -3.1941   -0.5255    1.0588 C.ar      1 <0>        -0.1513
      7 C6         -2.1187   -1.3927    1.0132 C.ar      1 <0>        -0.0866
      8 C7         -0.8416   -0.9018    0.7840 C.ar      1 <0>         0.1382
      9 N1          0.2482   -1.7785    0.7316 N.pl3     1 <0>        -0.6681
     10 C8          0.9991   -2.1230    1.9485 C.3       1 <0>         0.1545
     11 C9          2.4911   -1.8990    1.6796 C.3       1 <0>         0.0434
     12 N2          2.8852   -2.6421    0.4753 N.3       1 <0>        -0.5288
     13 C10         2.1777   -2.1456   -0.7126 C.3       1 <0>         0.0357
     14 C11         0.6692   -2.3844   -0.5407 C.3       1 <0>         0.1545
     15 C12         4.3403   -2.5940    0.2797 C.3       1 <0>         0.0385
     16 C13         4.7389   -3.5732   -0.8263 C.3       1 <0>         0.0970
     17 N3          6.1901   -3.5252   -1.0213 N.am      1 <0>        -0.5500
     18 C14         7.0277   -4.2929   -0.2136 C.ar      1 <0>         0.3611
     19 C15         6.4803   -5.2520    0.6312 C.ar      1 <0>        -0.2083
     20 C16         7.3231   -6.0073    1.4272 C.ar      1 <0>        -0.0478
     21 C17         8.6899   -5.7763    1.3506 C.ar      1 <0>        -0.2054
     22 C18         9.1645   -4.8073    0.4890 C.ar      1 <0>         0.1310
     23 N4          8.3370   -4.1058   -0.2619 N.ar      1 <0>        -0.4810
     24 C19         6.7153   -2.7389   -1.9817 C.2       1 <0>         0.5110
     25 O2          7.9062   -2.7723   -2.2087 O.2       1 <0>        -0.4678
     26 C20         5.8229   -1.8182   -2.7735 C.3       1 <0>        -0.1024
     27 C21         5.0577   -2.6274   -3.8226 C.3       1 <0>        -0.1152
     28 C22         4.1516   -1.6927   -4.6264 C.3       1 <0>        -0.1164
     29 C23         5.0044   -0.6309   -5.3237 C.3       1 <0>        -0.1226
     30 C24         5.7696    0.1783   -4.2746 C.3       1 <0>        -0.1187
     31 C25         6.6757   -0.7564   -3.4707 C.3       1 <0>        -0.1009
     32 H1          1.7760    2.6228    0.0568 H         1 <0>         0.0969
     33 H2          0.1367    2.6856   -0.6337 H         1 <0>         0.0541
     34 H3          0.3712    2.8734    1.1207 H         1 <0>         0.0539
     35 H4         -1.5807    2.3897    0.5201 H         1 <0>         0.1266
     36 H5         -3.8429    1.5058    0.9185 H         1 <0>         0.1242
     37 H6         -4.1884   -0.9091    1.2335 H         1 <0>         0.1246
     38 H7         -2.2731   -2.4525    1.1523 H         1 <0>         0.1290
     39 H8          0.6756   -1.4853    2.7712 H         1 <0>         0.0695
     40 H9          0.8257   -3.1688    2.2020 H         1 <0>         0.0579
     41 H10         2.6778   -0.8359    1.5284 H         1 <0>         0.0413
     42 H11         3.0714   -2.2531    2.5316 H         1 <0>         0.0777
     43 H12         2.3689   -1.0790   -0.8304 H         1 <0>         0.0431
     44 H13         2.5308   -2.6786   -1.5954 H         1 <0>         0.0770
     45 H14         0.4646   -3.4549   -0.5219 H         1 <0>         0.0581
     46 H15         0.1274   -1.9197   -1.3645 H         1 <0>         0.0695
     47 H16         4.6355   -1.5842   -0.0053 H         1 <0>         0.0388
     48 H17         4.8410   -2.8706    1.2076 H         1 <0>         0.0802
     49 H18         4.4438   -4.5830   -0.5413 H         1 <0>         0.0981
     50 H19         4.2383   -3.2966   -1.7542 H         1 <0>         0.1018
     51 H20         5.4118   -5.4051    0.6658 H         1 <0>         0.1391
     52 H21         6.9265   -6.7592    2.0934 H         1 <0>         0.1376
     53 H22         9.3749   -6.3484    1.9588 H         1 <0>         0.1354
     54 H23        10.2269   -4.6241    0.4260 H         1 <0>         0.1581
     55 H24         5.1150   -1.3323   -2.1021 H         1 <0>         0.0916
     56 H25         5.7656   -3.1134   -4.4940 H         1 <0>         0.0727
     57 H26         4.4501   -3.3839   -3.3258 H         1 <0>         0.0695
     58 H27         3.6064   -2.2692   -5.3738 H         1 <0>         0.0687
     59 H28         3.4437   -1.2068   -3.9550 H         1 <0>         0.0643
     60 H29         5.7123   -1.1168   -5.9951 H         1 <0>         0.0644
     61 H30         4.3588    0.0350   -5.8964 H         1 <0>         0.0643
     62 H31         6.3771    0.9348   -4.7713 H         1 <0>         0.0673
     63 H32         5.0617    0.6642   -3.6032 H         1 <0>         0.0612
     64 H33         7.2208   -0.1799   -2.7234 H         1 <0>         0.0662
     65 H34         7.3836   -1.2423   -4.1422 H         1 <0>         0.0754
@<TRIPOS>BOND
     1    1    2 1
     2    1   32 1
     3    1   33 1
     4    1   34 1
     5    2    3 1
     6    3    8 ar
     7    3    4 ar
     8    4    5 ar
     9    4   35 1
    10    5    6 ar
    11    5   36 1
    12    6    7 ar
    13    6   37 1
    14    7    8 ar
    15    7   38 1
    16    8    9 1
    17    9   14 1
    18    9   10 1
    19   10   11 1
    20   10   39 1
    21   10   40 1
    22   11   12 1
    23   11   41 1
    24   11   42 1
    25   12   13 1
    26   12   15 1
    27   13   14 1
    28   13   43 1
    29   13   44 1
    30   14   45 1
    31   14   46 1
    32   15   16 1
    33   15   47 1
    34   15   48 1
    35   16   17 1
    36   16   49 1
    37   16   50 1
    38   17   18 1
    39   17   24 am
    40   18   23 ar
    41   18   19 ar
    42   19   20 ar
    43   19   51 1
    44   20   21 ar
    45   20   52 1
    46   21   22 ar
    47   21   53 1
    48   22   23 ar
    49   22   54 1
    50   24   25 2
    51   24   26 1
    52   26   31 1
    53   26   27 1
    54   26   55 1
    55   27   28 1
    56   27   56 1
    57   27   57 1
    58   28   29 1
    59   28   58 1
    60   28   59 1
    61   29   30 1
    62   29   60 1
    63   29   61 1
    64   30   31 1
    65   30   62 1
    66   30   63 1
    67   31   64 1
    68   31   65 1
@<TRIPOS>MOLECULE
ZINC26579568
   66    70     0     0     0
SMALL
USER_CHARGES

@<TRIPOS>ATOM
      1 C1         -1.8242    1.5605   -1.0062 C.ar      1 <0>        -0.0848
      2 C2         -1.6672    2.5831   -1.9225 C.ar      1 <0>        -0.1528
      3 C3         -0.7619    2.4482   -2.9613 C.ar      1 <0>         0.1061
      4 C4         -0.0148    1.2886   -3.0809 C.ar      1 <0>        -0.1531
      5 C5         -0.1735    0.2673   -2.1634 C.ar      1 <0>        -0.0669
      6 C6         -1.0777    0.4032   -1.1266 C.ar      1 <0>        -0.1333
      7 C7         -1.2498   -0.7112   -0.1268 C.3       1 <0>         0.1338
      8 H1         -2.2084   -0.5998    0.3801 H         1 <0>         0.0997
      9 C8         -0.1190   -0.6524    0.9021 C.3       1 <0>         0.0879
     10 O1          1.1406   -0.6995    0.2289 O.3       1 <0>        -0.5696
     11 N1         -1.2115   -2.0041   -0.8231 N.3       1 <0>        -0.6677
     12 C9         -2.5265   -2.3378   -1.3865 C.3       1 <0>         0.0716
     13 C10        -3.3705   -3.0534   -0.3279 C.3       1 <0>        -0.1379
     14 C11        -4.7079   -3.4684   -0.9448 C.3       1 <0>        -0.0055
     15 N2         -4.4694   -4.3729   -2.0759 N.4       1 <0>        -0.3830
     16 C12        -3.7220   -3.6707   -3.1261 C.3       1 <0>        -0.0059
     17 C13        -2.3467   -3.2635   -2.5932 C.3       1 <0>        -0.1513
     18 C14        -5.7571   -4.8299   -2.6155 C.3       1 <0>        -0.0120
     19 C15        -5.5109   -5.8679   -3.7123 C.3       1 <0>        -0.1452
     20 C16        -6.8520   -6.3438   -4.2743 C.3       1 <0>        -0.0354
     21 C17        -6.6096   -7.3662   -5.3546 C.2       1 <0>        -0.1893
     22 C18        -6.5383   -7.1316   -6.6743 C.2       1 <0>         0.0805
     23 N3         -6.3067   -8.3016   -7.3445 N.pl3     1 <0>        -0.5872
     24 H2         -6.2157   -8.3841   -8.3067 H         1 <0>         0.4245
     25 C19        -6.2210   -9.3455   -6.4487 C.ar      1 <0>         0.0944
     26 C20        -6.4007   -8.8036   -5.1629 C.ar      1 <0>        -0.0775
     27 C21        -6.3578   -9.6352   -4.0428 C.ar      1 <0>        -0.0861
     28 C22        -6.1346  -10.9892   -4.2060 C.ar      1 <0>         0.1125
     29 C23        -5.9529  -11.5219   -5.4806 C.ar      1 <0>        -0.1059
     30 C24        -6.0027  -10.7117   -6.5926 C.ar      1 <0>        -0.0904
     31 N4         -6.0903  -11.8311   -3.0833 N.pl3     1 <0>        -0.4277
     32 C25        -6.2530  -11.4713   -1.7793 C.2       1 <0>         0.1516
     33 N5         -6.1372  -12.5558   -1.0619 N.2       1 <0>        -0.2855
     34 N6         -5.9141  -13.5643   -1.8270 N.2       1 <0>        -0.2855
     35 C26        -5.8817  -13.1775   -3.0734 C.2       1 <0>         0.1625
     36 F1         -0.6079    3.4470   -3.8579 F         1 <0>        -0.1349
     37 H3         -2.5271    1.6674   -0.1932 H         1 <0>         0.1314
     38 H4         -2.2508    3.4870   -1.8284 H         1 <0>         0.1382
     39 H5          0.6914    1.1821   -3.8910 H         1 <0>         0.1375
     40 H6          0.4089   -0.6374   -2.2567 H         1 <0>         0.1329
     41 H7         -0.1927    0.2748    1.4704 H         1 <0>         0.0527
     42 H8         -0.2004   -1.5017    1.5804 H         1 <0>         0.0594
     43 H9          1.9045   -0.6661    0.8208 H         1 <0>         0.3864
     44 H10        -0.4999   -2.0085   -1.5385 H         1 <0>         0.3587
     45 H11        -3.0312   -1.4240   -1.7002 H         1 <0>         0.0656
     46 H12        -2.8407   -3.9392    0.0223 H         1 <0>         0.0971
     47 H13        -3.5497   -2.3804    0.5107 H         1 <0>         0.1095
     48 H14        -5.3114   -3.9780   -0.1936 H         1 <0>         0.1332
     49 H15        -5.2370   -2.5819   -1.2943 H         1 <0>         0.1271
     50 H16        -3.5977   -4.3297   -3.9854 H         1 <0>         0.1340
     51 H17        -4.2721   -2.7799   -3.4292 H         1 <0>         0.1284
     52 H18        -1.7940   -2.7407   -3.3738 H         1 <0>         0.1098
     53 H19        -1.7956   -4.1537   -2.2900 H         1 <0>         0.0984
     54 H20        -6.3472   -5.2786   -1.8164 H         1 <0>         0.1324
     55 H21        -6.2977   -3.9808   -3.0336 H         1 <0>         0.1300
     56 H22        -4.9208   -5.4192   -4.5114 H         1 <0>         0.0870
     57 H23        -4.9703   -6.7170   -3.2942 H         1 <0>         0.0872
     58 H24        -7.4421   -6.7925   -3.4752 H         1 <0>         0.0813
     59 H25        -7.3927   -5.4947   -4.6924 H         1 <0>         0.0821
     60 H26        -6.6481   -6.1626   -7.1385 H         1 <0>         0.1749
     61 H27        -6.4979   -9.2230   -3.0544 H         1 <0>         0.1299
     62 H28        -5.7787  -12.5813   -5.5978 H         1 <0>         0.1406
     63 H29        -5.8590  -11.1349   -7.5758 H         1 <0>         0.1382
     64 H30        -6.4419  -10.4747   -1.4083 H         1 <0>         0.2181
     65 H31        -5.7178  -13.8069   -3.9356 H         1 <0>         0.2235
     66 H32        -3.9369   -5.1701   -1.7613 H         1 <0>         0.4237
@<TRIPOS>BOND
     1    1    6 ar
     2    1    2 ar
     3    1   37 1
     4    2    3 ar
     5    2   38 1
     6    3    4 ar
     7    3   36 1
     8    4    5 ar
     9    4   39 1
    10    5    6 ar
    11    5   40 1
    12    6    7 1
    13    7    8 1
    14    7    9 1
    15    7   11 1
    16    9   10 1
    17    9   41 1
    18    9   42 1
    19   10   43 1
    20   11   12 1
    21   11   44 1
    22   12   17 1
    23   12   13 1
    24   12   45 1
    25   13   14 1
    26   13   46 1
    27   13   47 1
    28   14   15 1
    29   14   48 1
    30   14   49 1
    31   15   16 1
    32   15   18 1
    33   15   66 1
    34   16   17 1
    35   16   50 1
    36   16   51 1
    37   17   52 1
    38   17   53 1
    39   18   19 1
    40   18   54 1
    41   18   55 1
    42   19   20 1
    43   19   56 1
    44   19   57 1
    45   20   21 1
    46   20   58 1
    47   20   59 1
    48   21   26 1
    49   21   22 2
    50   22   23 1
    51   22   60 1
    52   23   24 1
    53   23   25 1
    54   25   30 ar
    55   25   26 ar
    56   26   27 ar
    57   27   28 ar
    58   27   61 1
    59   28   29 ar
    60   28   31 1
    61   29   30 ar
    62   29   62 1
    63   30   63 1
    64   31   35 1
    65   31   32 1
    66   32   33 2
    67   32   64 1
    68   33   34 1
    69   34   35 2
    70   35   65 1
@<TRIPOS>MOLECULE
ZINC00840177
   56    58     0     0     0
SMALL
USER_CHARGES

@<TRIPOS>ATOM
      1 C1         -0.0178    1.4648    0.0101 C.3       1 <0>        -0.0539
      2 N1          0.0021   -0.0041    0.0020 N.4       1 <0>        -0.3878
      3 C2          0.6897   -0.4778   -1.2066 C.3       1 <0>        -0.0472
      4 C3          0.7126   -0.4907    1.1921 C.3       1 <0>        -0.0097
      5 C4         -0.0711   -0.1034    2.4478 C.3       1 <0>        -0.0609
      6 C5          0.6578   -0.6026    3.6687 C.2       1 <0>        -0.1994
      7 C6          0.4376   -1.7587    4.3136 C.2       1 <0>         0.0844
      8 N2          1.2915   -1.8707    5.3772 N.pl3     1 <0>        -0.5854
      9 H1          1.3201   -2.6210    5.9913 H         1 <0>         0.4245
     10 C7          2.1031   -0.7633    5.4465 C.ar      1 <0>         0.1061
     11 C8          1.7467    0.0791    4.3746 C.ar      1 <0>        -0.1029
     12 C9          2.4127    1.2871    4.1866 C.ar      1 <0>        -0.0557
     13 C10         3.4333    1.6492    5.0651 C.ar      1 <0>        -0.0870
     14 C11         3.7804    0.7986    6.1266 C.ar      1 <0>        -0.0774
     15 C12         3.1225   -0.3802    6.3160 C.ar      1 <0>        -0.1205
     16 C13         4.1464    2.9219    4.8792 C.2       1 <0>        -0.0215
     17 C14         5.1340    3.2722    5.7293 C.2       1 <0>        -0.2072
     18 C15         5.8433    4.5382    5.5445 C.2       1 <0>         0.5452
     19 O1          5.5426    5.2755    4.6239 O.2       1 <0>        -0.5464
     20 N3          6.8298    4.8882    6.3935 N.am      1 <0>        -0.7204
     21 C16         7.5401    6.1560    6.2084 C.3       1 <0>         0.1669
     22 C17         8.5867    6.3068    7.2821 C.ar      1 <0>        -0.1544
     23 C18         8.2649    6.9214    8.4781 C.ar      1 <0>        -0.0589
     24 C19         9.2226    7.0613    9.4638 C.ar      1 <0>        -0.1534
     25 C20        10.5082    6.5841    9.2530 C.ar      1 <0>         0.1396
     26 C21        10.8284    5.9674    8.0522 C.ar      1 <0>        -0.2107
     27 C22         9.8657    5.8254    7.0717 C.ar      1 <0>        -0.0582
     28 O2         11.4522    6.7209   10.2209 O.3       1 <0>        -0.3154
     29 C23        12.7542    6.2061    9.9347 C.3       1 <0>         0.0253
     30 H2          1.0047    1.8421    0.0024 H         1 <0>         0.1228
     31 H3         -0.5450    1.8259   -0.8730 H         1 <0>         0.1242
     32 H4         -0.5280    1.8163    0.9069 H         1 <0>         0.1253
     33 H5          1.7123   -0.1005   -1.2143 H         1 <0>         0.1216
     34 H6          0.7044   -1.5677   -1.2126 H         1 <0>         0.1224
     35 H7          0.1625   -0.1167   -2.0897 H         1 <0>         0.1240
     36 H8          0.8051   -1.5756    1.1418 H         1 <0>         0.1299
     37 H9          1.7055   -0.0428    1.2310 H         1 <0>         0.1301
     38 H10        -0.1636    0.9815    2.4982 H         1 <0>         0.0929
     39 H11        -1.0640   -0.5514    2.4090 H         1 <0>         0.0919
     40 H12        -0.3040   -2.4925    4.0344 H         1 <0>         0.1746
     41 H13         2.1417    1.9374    3.3681 H         1 <0>         0.1249
     42 H14         4.5720    1.0840    6.8036 H         1 <0>         0.1354
     43 H15         3.4012   -1.0258    7.1357 H         1 <0>         0.1289
     44 H16         3.8796    3.5761    4.0624 H         1 <0>         0.1354
     45 H17         5.4008    2.6180    6.5461 H         1 <0>         0.1302
     46 H18         7.0694    4.3006    7.1272 H         1 <0>         0.4033
     47 H19         8.0198    6.1641    5.2297 H         1 <0>         0.0769
     48 H20         6.8319    6.9820    6.2728 H         1 <0>         0.0780
     49 H21         7.2640    7.2927    8.6418 H         1 <0>         0.1318
     50 H22         8.9710    7.5420   10.3976 H         1 <0>         0.1346
     51 H23        11.8285    5.5952    7.8857 H         1 <0>         0.1314
     52 H24        10.1133    5.3415    6.1385 H         1 <0>         0.1267
     53 H25        12.6870    5.1357    9.7403 H         1 <0>         0.0571
     54 H26        13.1593    6.7100    9.0571 H         1 <0>         0.0579
     55 H27        13.4094    6.3800   10.7883 H         1 <0>         0.1039
     56 H28        -0.9445   -0.3533    0.0092 H         1 <0>         0.4260
@<TRIPOS>BOND
     1    1    2 1
     2    1   30 1
     3    1   31 1
     4    1   32 1
     5    2    3 1
     6    2    4 1
     7    2   56 1
     8    3   33 1
     9    3   34 1
    10    3   35 1
    11    4    5 1
    12    4   36 1
    13    4   37 1
    14    5    6 1
    15    5   38 1
    16    5   39 1
    17    6   11 1
    18    6    7 2
    19    7    8 1
    20    7   40 1
    21    8    9 1
    22    8   10 1
    23   10   15 ar
    24   10   11 ar
    25   11   12 ar
    26   12   13 ar
    27   12   41 1
    28   13   14 ar
    29   13   16 1
    30   14   15 ar
    31   14   42 1
    32   15   43 1
    33   16   17 2
    34   16   44 1
    35   17   18 1
    36   17   45 1
    37   18   19 2
    38   18   20 am
    39   20   21 1
    40   20   46 1
    41   21   22 1
    42   21   47 1
    43   21   48 1
    44   22   27 ar
    45   22   23 ar
    46   23   24 ar
    47   23   49 1
    48   24   25 ar
    49   24   50 1
    50   25   26 ar
    51   25   28 1
    52   26   27 ar
    53   26   51 1
    54   27   52 1
    55   28   29 1
    56   29   53 1
    57   29   54 1
    58   29   55 1
@<TRIPOS>MOLECULE
ZINC00022992
   32    34     0     0     0
SMALL
USER_CHARGES
2-[5-(2-thienyl)-1H-indol-3-yl]ethanamine
@<TRIPOS>ATOM
      1 C1          1.0313    1.9434    0.0026 C.2       1 <0>        -0.1539
      2 C2          0.7784    3.2982    0.0119 C.2       1 <0>        -0.1431
      3 C3         -0.5223    3.7247    0.0262 C.2       1 <0>        -0.1115
      4 S1         -1.4160    2.1791    0.0194 S.3       1 <0>         0.0365
      5 C4         -0.0126    1.0758    0.0080 C.2       1 <0>        -0.1639
      6 C5         -1.0499    5.1061    0.0377 C.ar      1 <0>        -0.0133
      7 C6         -0.1660    6.1928    0.0345 C.ar      1 <0>        -0.0750
      8 C7         -0.6371    7.4733    0.0446 C.ar      1 <0>        -0.1124
      9 C8         -2.0082    7.7159    0.0586 C.ar      1 <0>         0.0990
     10 C9         -2.9068    6.6329    0.0624 C.ar      1 <0>        -0.0944
     11 C10        -2.4224    5.3250    0.0459 C.ar      1 <0>        -0.0713
     12 C11        -4.2493    7.2199    0.0777 C.2       1 <0>        -0.2056
     13 C12        -4.0942    8.5532    0.0820 C.2       1 <0>         0.0884
     14 N1         -2.7629    8.8684    0.0708 N.pl3     1 <0>        -0.5855
     15 H1         -2.4038    9.7695    0.0714 H         1 <0>         0.4249
     16 C13        -5.5560    6.4693    0.0864 C.3       1 <0>        -0.0631
     17 C14        -5.9222    6.0995    1.5251 C.3       1 <0>        -0.0044
     18 H2          2.0471    1.5767   -0.0090 H         1 <0>         0.1401
     19 H3          1.5909    4.0098    0.0076 H         1 <0>         0.1368
     20 H4          0.0021   -0.0041    0.0020 H         1 <0>         0.1901
     21 H5          0.8993    6.0153    0.0236 H         1 <0>         0.1352
     22 H6          0.0559    8.3016    0.0413 H         1 <0>         0.1313
     23 H7         -3.1075    4.4901    0.0436 H         1 <0>         0.1216
     24 H8         -4.9010    9.2710    0.0934 H         1 <0>         0.1749
     25 H9         -6.3390    7.0979   -0.3377 H         1 <0>         0.0931
     26 H10        -5.4573    5.5611   -0.5083 H         1 <0>         0.0923
     27 H11        -5.1393    5.4708    1.9492 H         1 <0>         0.1316
     28 H12        -6.0209    7.0076    2.1198 H         1 <0>         0.1345
     29 H13        -7.4599    5.1121    2.4733 H         1 <0>         0.4399
     30 H14        -7.9243    5.9045    1.0868 H         1 <0>         0.4363
     31 N2         -7.1895    5.3475    1.5198 N.4       1 <0>        -0.6481
     32 H15        -7.0655    4.4810    0.9831 H         1 <0>         0.4394
@<TRIPOS>BOND
     1    1    5 2
     2    1    2 1
     3    1   18 1
     4    2    3 2
     5    2   19 1
     6    3    4 1
     7    3    6 1
     8    4    5 1
     9    5   20 1
    10    6   11 ar
    11    6    7 ar
    12    7    8 ar
    13    7   21 1
    14    8    9 ar
    15    8   22 1
    16    9   14 1
    17    9   10 ar
    18   10   11 ar
    19   10   12 1
    20   11   23 1
    21   12   13 2
    22   12   16 1
    23   13   14 1
    24   13   24 1
    25   14   15 1
    26   16   17 1
    27   16   25 1
    28   16   26 1
    29   17   27 1
    30   17   28 1
    31   17   31 1
    32   29   31 1
    33   30   31 1
    34   31   32 1
@<TRIPOS>MOLECULE
ZINC02005821
   40    41     0     0     0
SMALL
USER_CHARGES
N-methyl-2-(5-tert-butyl-1H-indol-3-yl)-ethanamine
@<TRIPOS>ATOM
      1 C1         -0.2422   -2.7090   -0.0111 C.3       1 <0>        -0.1494
      2 C2          1.2016   -2.2028   -0.0217 C.3       1 <0>        -0.0282
      3 C3          1.9097   -2.7076   -1.2806 C.3       1 <0>        -0.1373
      4 C4          1.9331   -2.7218    1.2178 C.3       1 <0>        -0.1393
      5 C5          1.2057   -0.6959   -0.0132 C.ar      1 <0>        -0.0790
      6 C6          0.0021   -0.0041    0.0020 C.ar      1 <0>        -0.0939
      7 C7         -0.0166    1.3733    0.0096 C.ar      1 <0>        -0.1194
      8 C8          1.1814    2.0806    0.0020 C.ar      1 <0>         0.0905
      9 C9          2.3982    1.3749   -0.0135 C.ar      1 <0>        -0.0962
     10 C10         2.3938   -0.0213   -0.0209 C.ar      1 <0>        -0.0807
     11 C11         3.4546    2.3898   -0.0173 C.2       1 <0>        -0.2075
     12 C12         2.8483    3.5874   -0.0047 C.2       1 <0>         0.0845
     13 N1          1.4900    3.4224    0.0070 N.pl3     1 <0>        -0.5881
     14 H1          0.8412    4.1434    0.0172 H         1 <0>         0.4226
     15 C13         4.9402    2.1372   -0.0326 C.3       1 <0>        -0.0596
     16 C14         5.4086    1.9362   -1.4752 C.3       1 <0>        -0.0056
     17 C15         7.3430    1.4920   -2.8621 C.3       1 <0>        -0.0429
     18 H2         -0.7634   -2.3392   -0.8942 H         1 <0>         0.0602
     19 H3         -0.2451   -3.7990   -0.0173 H         1 <0>         0.0620
     20 H4         -0.7467   -2.3494    0.8857 H         1 <0>         0.0608
     21 H5          2.9383   -2.3470   -1.2881 H         1 <0>         0.0507
     22 H6          1.9068   -3.7976   -1.2867 H         1 <0>         0.0615
     23 H7          1.3886   -2.3378   -2.1636 H         1 <0>         0.0569
     24 H8          1.4286   -2.3622    2.1146 H         1 <0>         0.0582
     25 H9          1.9302   -3.8118    1.2116 H         1 <0>         0.0614
     26 H10         2.9617   -2.3612    1.2102 H         1 <0>         0.0527
     27 H11        -0.9290   -0.5513    0.0083 H         1 <0>         0.1354
     28 H12        -0.9581    1.9023    0.0169 H         1 <0>         0.1249
     29 H13         3.3262   -0.5662   -0.0331 H         1 <0>         0.1165
     30 H14         3.3572    4.5400   -0.0041 H         1 <0>         0.1721
     31 H15         5.4585    2.9920    0.4020 H         1 <0>         0.0907
     32 H16         5.1627    1.2430    0.5496 H         1 <0>         0.0908
     33 H17         4.8902    1.0815   -1.9097 H         1 <0>         0.1302
     34 H18         5.1860    2.8305   -2.0574 H         1 <0>         0.1296
     35 H19         8.4178    1.3117   -2.8441 H         1 <0>         0.1246
     36 H20         6.8380    0.6342   -3.3062 H         1 <0>         0.1217
     37 H21         7.1338    2.3832   -3.4538 H         1 <0>         0.1216
     38 N2          6.8629    1.6898   -1.4813 N.4       1 <0>        -0.5209
     39 H22         7.0663    0.8489   -0.9283 H         1 <0>         0.4341
     40 H23         7.3448    2.4964   -1.0675 H         1 <0>         0.4336
@<TRIPOS>BOND
     1    1    2 1
     2    1   18 1
     3    1   19 1
     4    1   20 1
     5    2    3 1
     6    2    4 1
     7    2    5 1
     8    3   21 1
     9    3   22 1
    10    3   23 1
    11    4   24 1
    12    4   25 1
    13    4   26 1
    14    5   10 ar
    15    5    6 ar
    16    6    7 ar
    17    6   27 1
    18    7    8 ar
    19    7   28 1
    20    8   13 1
    21    8    9 ar
    22    9   10 ar
    23    9   11 1
    24   10   29 1
    25   11   12 2
    26   11   15 1
    27   12   13 1
    28   12   30 1
    29   13   14 1
    30   15   16 1
    31   15   31 1
    32   15   32 1
    33   16   33 1
    34   16   34 1
    35   16   38 1
    36   17   35 1
    37   17   36 1
    38   17   37 1
    39   17   38 1
    40   38   39 1
    41   38   40 1
@<TRIPOS>MOLECULE
ZINC02539822
   23    24     0     0     0
SMALL
USER_CHARGES

@<TRIPOS>ATOM
      1 C1         -0.0166    1.3765    0.0096 C.ar      1 <0>        -0.0545
      2 C2          1.1705    2.0878    0.0021 C.ar      1 <0>        -0.1138
      3 C3          2.3836    1.4217   -0.0135 C.ar      1 <0>        -0.0545
      4 C4          2.4168    0.0415   -0.0213 C.ar      1 <0>        -0.0640
      5 C5          1.2226   -0.6826   -0.0133 C.ar      1 <0>         0.1998
      6 C6          0.0021   -0.0041    0.0020 C.ar      1 <0>        -0.0642
      7 Cl1        -1.4882   -0.8944    0.0121 Cl        1 <0>        -0.0437
      8 N1          1.2484   -2.0531   -0.0210 N.2       1 <0>        -0.6281
      9 C7          1.2720   -2.7154    1.1120 C.2       1 <0>         0.6681
     10 N2          1.2669   -2.1144    2.3384 N.pl3     1 <0>        -0.7529
     11 C8          1.2980   -3.1500    3.3804 C.3       1 <0>         0.0924
     12 C9          1.3230   -4.4785    2.6033 C.3       1 <0>         0.0999
     13 N3          1.2985   -4.0787    1.1896 N.pl3     1 <0>        -0.7119
     14 Cl2         3.9395   -0.7921   -0.0415 Cl        1 <0>        -0.0438
     15 I1          1.1312    4.1824    0.0138 I         1 <0>        -0.0194
     16 H1         -0.9598    1.9024    0.0260 H         1 <0>         0.1428
     17 H2          3.3064    1.9829   -0.0201 H         1 <0>         0.1428
     18 H3          1.2460   -1.1575    2.4962 H         1 <0>         0.4274
     19 H4          2.1957   -3.0490    3.9903 H         1 <0>         0.0837
     20 H5          0.4053   -3.0902    4.0030 H         1 <0>         0.0837
     21 H6          2.2331   -5.0342    2.8292 H         1 <0>         0.0861
     22 H7          0.4427   -5.0753    2.8418 H         1 <0>         0.0859
     23 H8          1.3028   -4.6855    0.4328 H         1 <0>         0.4381
@<TRIPOS>BOND
     1    1    6 ar
     2    1    2 ar
     3    1   16 1
     4    2    3 ar
     5    2   15 1
     6    3    4 ar
     7    3   17 1
     8    4    5 ar
     9    4   14 1
    10    5    6 ar
    11    5    8 1
    12    6    7 1
    13    8    9 2
    14    9   13 1
    15    9   10 1
    16   10   11 1
    17   10   18 1
    18   11   12 1
    19   11   19 1
    20   11   20 1
    21   12   13 1
    22   12   21 1
    23   12   22 1
    24   13   23 1
@<TRIPOS>MOLECULE
ZINC00009350
   33    35     0     0     0
SMALL
USER_CHARGES

@<TRIPOS>ATOM
      1 C1         -0.0184    1.5028    0.0103 C.3       1 <0>        -0.1021
      2 C2          0.0021   -0.0041    0.0020 C.2       1 <0>         0.1280
      3 C3          0.0075   -0.7795   -1.1127 C.2       1 <0>        -0.1836
      4 C4          0.0286   -2.1786   -0.6531 C.ar      1 <0>        -0.0759
      5 C5          0.0419   -3.4106   -1.3052 C.ar      1 <0>        -0.0731
      6 C6          0.0607   -4.5733   -0.5660 C.ar      1 <0>        -0.0481
      7 C7          0.0659   -4.5213    0.8221 C.ar      1 <0>        -0.0887
      8 C8          0.0524   -3.3110    1.4790 C.ar      1 <0>        -0.1050
      9 C9          0.0343   -2.1255    0.7507 C.ar      1 <0>         0.0979
     10 N1          0.0239   -0.7952    1.1133 N.pl3     1 <0>        -0.5814
     11 H1          0.0285   -0.4690    2.0268 H         1 <0>         0.4237
     12 Cl1         0.0774   -6.1101   -1.3732 Cl        1 <0>        -0.0609
     13 C10        -0.0058   -0.3114   -2.5125 C.2       1 <0>        -0.0025
     14 C11         1.1424   -0.0995   -3.1223 C.2       1 <0>        -0.1935
     15 C12         1.2362    0.3819   -4.5414 C.3       1 <0>         0.0374
     16 N2         -0.0341    0.1601   -5.2420 N.4       1 <0>        -0.5088
     17 C13        -1.1261    0.7510   -4.4525 C.3       1 <0>        -0.0039
     18 C14        -1.3297   -0.0991   -3.1938 C.3       1 <0>        -0.1174
     19 H2          1.0042    1.8801    0.0026 H         1 <0>         0.0864
     20 H3         -0.5455    1.8639   -0.8728 H         1 <0>         0.0842
     21 H4         -0.5286    1.8543    0.9071 H         1 <0>         0.0789
     22 H5          0.0372   -3.4535   -2.3843 H         1 <0>         0.1283
     23 H6          0.0803   -5.4388    1.3916 H         1 <0>         0.1428
     24 H7          0.0559   -3.2820    2.5586 H         1 <0>         0.1360
     25 H8          2.0571   -0.2797   -2.5771 H         1 <0>         0.1496
     26 H9          1.4694    1.4467   -4.5463 H         1 <0>         0.1397
     27 H10         2.0304   -0.1605   -5.0544 H         1 <0>         0.1418
     28 H11         0.0006    0.5975   -6.1506 H         1 <0>         0.4348
     29 H12        -0.8639    1.7710   -4.1713 H         1 <0>         0.1344
     30 H13        -2.0429    0.7554   -5.0419 H         1 <0>         0.1390
     31 H14        -1.7556   -1.0642   -3.4682 H         1 <0>         0.1076
     32 H15        -2.0086    0.4173   -2.5151 H         1 <0>         0.1229
     33 H16        -0.1923   -0.8307   -5.3486 H         1 <0>         0.4316
@<TRIPOS>BOND
     1    1    2 1
     2    1   19 1
     3    1   20 1
     4    1   21 1
     5    2   10 1
     6    2    3 2
     7    3    4 1
     8    3   13 1
     9    4    9 ar
    10    4    5 ar
    11    5    6 ar
    12    5   22 1
    13    6    7 ar
    14    6   12 1
    15    7    8 ar
    16    7   23 1
    17    8    9 ar
    18    8   24 1
    19    9   10 1
    20   10   11 1
    21   13   18 1
    22   13   14 2
    23   14   15 1
    24   14   25 1
    25   15   16 1
    26   15   26 1
    27   15   27 1
    28   16   17 1
    29   16   28 1
    30   16   33 1
    31   17   18 1
    32   17   29 1
    33   17   30 1
    34   18   31 1
    35   18   32 1
@<TRIPOS>MOLECULE
ZINC00057058
   26    27     0     0     0
SMALL
USER_CHARGES

@<TRIPOS>ATOM
      1 C1         -0.0168    1.3880    0.0097 C.ar      1 <0>        -0.1182
      2 C2          1.1587    2.1055    0.0023 C.ar      1 <0>        -0.1024
      3 C3          2.3795    1.4398   -0.0129 C.ar      1 <0>         0.0862
      4 C4          2.4019    0.0334   -0.0206 C.ar      1 <0>        -0.0842
      5 C5          1.2039   -0.6838   -0.0130 C.ar      1 <0>        -0.1143
      6 C6          0.0021   -0.0041    0.0020 C.ar      1 <0>         0.0953
      7 O1         -1.1679   -0.6972    0.0094 O.3       1 <0>        -0.4959
      8 C7          3.8159   -0.3493   -0.0361 C.2       1 <0>        -0.2101
      9 C8          4.5307    0.7870   -0.0369 C.2       1 <0>         0.0918
     10 N1          3.6908    1.8667   -0.0231 N.pl3     1 <0>        -0.5866
     11 H1          3.9751    2.7941   -0.0208 H         1 <0>         0.4248
     12 C9          4.3642   -1.7530   -0.0489 C.3       1 <0>        -0.0616
     13 C10         4.4190   -2.2661   -1.4892 C.3       1 <0>        -0.0080
     14 N2          4.9535   -3.6343   -1.5017 N.4       1 <0>        -0.6389
     15 H2         -0.9621    1.9101    0.0260 H         1 <0>         0.1389
     16 H3          1.1325    3.1852    0.0080 H         1 <0>         0.1315
     17 H4          1.2172   -1.7637   -0.0192 H         1 <0>         0.1256
     18 H5         -1.5147   -0.8930   -0.8718 H         1 <0>         0.3922
     19 H6          5.6093    0.8408   -0.0472 H         1 <0>         0.1750
     20 H7          5.3681   -1.7548    0.3759 H         1 <0>         0.0927
     21 H8          3.7180   -2.4009    0.5433 H         1 <0>         0.0925
     22 H9          3.4152   -2.2643   -1.9140 H         1 <0>         0.1329
     23 H10         5.0652   -1.6182   -2.0814 H         1 <0>         0.1331
     24 H11         5.8827   -3.6360   -1.1085 H         1 <0>         0.4347
     25 H12         4.3553   -4.2341   -0.9535 H         1 <0>         0.4353
     26 H13         4.9896   -3.9727   -2.4515 H         1 <0>         0.4379
@<TRIPOS>BOND
     1    1    6 ar
     2    1    2 ar
     3    1   15 1
     4    2    3 ar
     5    2   16 1
     6    3   10 1
     7    3    4 ar
     8    4    5 ar
     9    4    8 1
    10    5    6 ar
    11    5   17 1
    12    6    7 1
    13    7   18 1
    14    8    9 2
    15    8   12 1
    16    9   10 1
    17    9   19 1
    18   10   11 1
    19   12   13 1
    20   12   20 1
    21   12   21 1
    22   13   14 1
    23   13   22 1
    24   13   23 1
    25   14   24 1
    26   14   25 1
    27   14   26 1
@<TRIPOS>MOLECULE
ZINC22445253
   60    64     0     0     0
SMALL
USER_CHARGES
2-methyl-5-[2-[4-(8-quinolylmethyl)piperazin-1-yl]ethoxy]quinoline
@<TRIPOS>ATOM
      1 C1          9.6512   -3.6668   -2.6438 C.3       1 <0>        -0.1142
      2 C2          8.1656   -3.9126   -2.5828 C.ar      1 <0>         0.1752
      3 C3          7.4552   -3.4958   -1.4598 C.ar      1 <0>        -0.1841
      4 C4          6.1076   -3.7108   -1.3872 C.ar      1 <0>        -0.0329
      5 C5          5.4792   -4.3553   -2.4671 C.ar      1 <0>        -0.1283
      6 C6          6.2607   -4.7539   -3.5797 C.ar      1 <0>         0.1676
      7 N1          7.5763   -4.5134   -3.5881 N.ar      1 <0>        -0.4807
      8 C7          5.6361   -5.3984   -4.6607 C.ar      1 <0>        -0.1314
      9 C8          4.2951   -5.6328   -4.6315 C.ar      1 <0>        -0.0594
     10 C9          3.5212   -5.2507   -3.5401 C.ar      1 <0>        -0.2261
     11 C10         4.0937   -4.6112   -2.4628 C.ar      1 <0>         0.1556
     12 O1          3.3309   -4.2361   -1.4042 O.3       1 <0>        -0.2958
     13 C11         1.9343   -4.5303   -1.4742 C.3       1 <0>         0.0602
     14 C12         1.2446   -4.0366   -0.2008 C.3       1 <0>         0.0544
     15 N2          1.3377   -2.5723   -0.1298 N.3       1 <0>        -0.5317
     16 C13         0.3926   -1.9388   -1.0600 C.3       1 <0>         0.0222
     17 C14         0.5761   -0.4200   -1.0138 C.3       1 <0>         0.0010
     18 N3          0.3577    0.0556    0.3594 N.4       1 <0>        -0.3947
     19 C15         1.3027   -0.5779    1.2897 C.3       1 <0>         0.0064
     20 C16         1.1193   -2.0967    1.2434 C.3       1 <0>         0.0266
     21 C17         0.4507    1.5199    0.4305 C.3       1 <0>         0.0591
     22 C18        -0.0162    1.9878    1.7847 C.ar      1 <0>        -0.1478
     23 C19        -1.2749    2.4821    1.9402 C.ar      1 <0>        -0.0445
     24 C20        -1.7266    2.9205    3.1830 C.ar      1 <0>        -0.1308
     25 C21        -0.9199    2.8658    4.2787 C.ar      1 <0>        -0.0506
     26 C22         0.3844    2.3614    4.1555 C.ar      1 <0>        -0.1078
     27 C23         0.8444    1.9102    2.8933 C.ar      1 <0>         0.1371
     28 N4          2.0836    1.4234    2.7721 N.ar      1 <0>        -0.5014
     29 C24         2.8899    1.3480    3.8028 C.ar      1 <0>         0.1562
     30 C25         2.4987    1.7689    5.0722 C.ar      1 <0>        -0.1711
     31 C26         1.2498    2.2878    5.2634 C.ar      1 <0>        -0.0384
     32 H1          9.9765   -3.1572   -1.7249 H         1 <0>         0.0784
     33 H2          9.8830   -3.0360   -3.5146 H         1 <0>         0.0846
     34 H3         10.1783   -4.6278   -2.7364 H         1 <0>         0.0853
     35 H4          7.9686   -3.0030   -0.6475 H         1 <0>         0.1392
     36 H5          5.5410   -3.3946   -0.5239 H         1 <0>         0.1411
     37 H6          6.2197   -5.7076   -5.5152 H         1 <0>         0.1382
     38 H7          3.8249   -6.1286   -5.4679 H         1 <0>         0.1333
     39 H8          2.4603   -5.4528   -3.5400 H         1 <0>         0.1291
     40 H9          1.4965   -4.0251   -2.3477 H         1 <0>         0.0662
     41 H10         1.7928   -5.6169   -1.5701 H         1 <0>         0.0779
     42 H11         0.1864   -4.3364   -0.2172 H         1 <0>         0.0728
     43 H12         1.7373   -4.4784    0.6779 H         1 <0>         0.0996
     44 H13         0.5841   -2.3014   -2.0807 H         1 <0>         0.1209
     45 H14        -0.6366   -2.1939   -0.7673 H         1 <0>         0.0609
     46 H15         1.5970   -0.1641   -1.3335 H         1 <0>         0.1362
     47 H16        -0.1498    0.0577   -1.6882 H         1 <0>         0.1350
     48 H17         2.3319   -0.3228    0.9971 H         1 <0>         0.1406
     49 H18         1.1111   -0.2154    2.3104 H         1 <0>         0.1373
     50 H19         0.0984   -2.3536    1.5624 H         1 <0>         0.0552
     51 H20         1.8453   -2.5754    1.9171 H         1 <0>         0.1204
     52 H21         1.4950    1.8289    0.2758 H         1 <0>         0.1394
     53 H22        -0.1831    1.9659   -0.3501 H         1 <0>         0.1348
     54 H23        -1.9339    2.5355    1.0862 H         1 <0>         0.1406
     55 H24        -2.7299    3.3087    3.2787 H         1 <0>         0.1422
     56 H25        -1.2814    3.2087    5.2369 H         1 <0>         0.1429
     57 H26         3.8838    0.9486    3.6646 H         1 <0>         0.1698
     58 H27         3.1858    1.6941    5.9020 H         1 <0>         0.1485
     59 H28         0.9301    2.6192    6.2404 H         1 <0>         0.1488
     60 H29        -0.6603   -0.2322    0.6607 H         1 <0>         0.4307
@<TRIPOS>BOND
     1    1    2 1
     2    1   32 1
     3    1   33 1
     4    1   34 1
     5    2    7 ar
     6    2    3 ar
     7    3    4 ar
     8    3   35 1
     9    4    5 ar
    10    4   36 1
    11    5   11 ar
    12    5    6 ar
    13    6    7 ar
    14    6    8 ar
    15    8    9 ar
    16    8   37 1
    17    9   10 ar
    18    9   38 1
    19   10   11 ar
    20   10   39 1
    21   11   12 1
    22   12   13 1
    23   13   14 1
    24   13   40 1
    25   13   41 1
    26   14   15 1
    27   14   42 1
    28   14   43 1
    29   15   20 1
    30   15   16 1
    31   16   17 1
    32   16   44 1
    33   16   45 1
    34   17   18 1
    35   17   46 1
    36   17   47 1
    37   18   19 1
    38   18   21 1
    39   18   60 1
    40   19   20 1
    41   19   48 1
    42   19   49 1
    43   20   50 1
    44   20   51 1
    45   21   22 1
    46   21   52 1
    47   21   53 1
    48   22   27 ar
    49   22   23 ar
    50   23   24 ar
    51   23   54 1
    52   24   25 ar
    53   24   55 1
    54   25   26 ar
    55   25   56 1
    56   26   31 ar
    57   26   27 ar
    58   27   28 ar
    59   28   29 ar
    60   29   30 ar
    61   29   57 1
    62   30   31 ar
    63   30   58 1
    64   31   59 1
@<TRIPOS>MOLECULE
ZINC22445253
   60    64     0     0     0
SMALL
USER_CHARGES
2-methyl-5-[2-[4-(8-quinolylmethyl)piperazin-1-yl]ethoxy]quinoline
@<TRIPOS>ATOM
      1 C1          9.6512   -3.6668   -2.6438 C.3       1 <0>        -0.1171
      2 C2          8.1656   -3.9126   -2.5828 C.ar      1 <0>         0.1791
      3 C3          7.4552   -3.4958   -1.4598 C.ar      1 <0>        -0.1729
      4 C4          6.1076   -3.7108   -1.3872 C.ar      1 <0>        -0.0442
      5 C5          5.4792   -4.3553   -2.4671 C.ar      1 <0>        -0.1231
      6 C6          6.2607   -4.7539   -3.5797 C.ar      1 <0>         0.1661
      7 N1          7.5763   -4.5134   -3.5881 N.ar      1 <0>        -0.4755
      8 C7          5.6361   -5.3984   -4.6607 C.ar      1 <0>        -0.1141
      9 C8          4.2951   -5.6328   -4.6315 C.ar      1 <0>        -0.0664
     10 C9          3.5212   -5.2507   -3.5401 C.ar      1 <0>        -0.2078
     11 C10         4.0937   -4.6112   -2.4628 C.ar      1 <0>         0.1405
     12 O1          3.3309   -4.2361   -1.4042 O.3       1 <0>        -0.3251
     13 C11         1.9343   -4.5303   -1.4742 C.3       1 <0>         0.0245
     14 C12         1.2446   -4.0366   -0.2008 C.3       1 <0>         0.0017
     15 N2          1.3377   -2.5723   -0.1298 N.4       1 <0>        -0.4037
     16 C13         0.3926   -1.9388   -1.0600 C.3       1 <0>        -0.0019
     17 C14         0.5761   -0.4200   -1.0138 C.3       1 <0>         0.0251
     18 N3          0.3577    0.0556    0.3594 N.3       1 <0>        -0.5325
     19 C15         1.3027   -0.5779    1.2897 C.3       1 <0>         0.0277
     20 C16         1.1193   -2.0967    1.2434 C.3       1 <0>        -0.0024
     21 C17         0.4507    1.5199    0.4305 C.3       1 <0>         0.1062
     22 C18        -0.0162    1.9878    1.7847 C.ar      1 <0>        -0.0765
     23 C19        -1.2749    2.4821    1.9402 C.ar      1 <0>        -0.0696
     24 C20        -1.7266    2.9205    3.1830 C.ar      1 <0>        -0.1157
     25 C21        -0.9199    2.8658    4.2787 C.ar      1 <0>        -0.0853
     26 C22         0.3844    2.3614    4.1555 C.ar      1 <0>        -0.1026
     27 C23         0.8444    1.9102    2.8933 C.ar      1 <0>         0.1278
     28 N4          2.0836    1.4234    2.7721 N.ar      1 <0>        -0.4877
     29 C24         2.8899    1.3480    3.8028 C.ar      1 <0>         0.1339
     30 C25         2.4987    1.7689    5.0722 C.ar      1 <0>        -0.1764
     31 C26         1.2498    2.2878    5.2634 C.ar      1 <0>        -0.0465
     32 H1          9.9765   -3.1572   -1.7249 H         1 <0>         0.0807
     33 H2          9.8830   -3.0360   -3.5146 H         1 <0>         0.0874
     34 H3         10.1783   -4.6278   -2.7364 H         1 <0>         0.0878
     35 H4          7.9686   -3.0030   -0.6475 H         1 <0>         0.1431
     36 H5          5.5410   -3.3946   -0.5239 H         1 <0>         0.1383
     37 H6          6.2197   -5.7076   -5.5152 H         1 <0>         0.1427
     38 H7          3.8249   -6.1286   -5.4679 H         1 <0>         0.1383
     39 H8          2.4603   -5.4528   -3.5400 H         1 <0>         0.1321
     40 H9          1.4965   -4.0251   -2.3477 H         1 <0>         0.0889
     41 H10         1.7928   -5.6169   -1.5701 H         1 <0>         0.1132
     42 H11         0.1864   -4.3364   -0.2172 H         1 <0>         0.1494
     43 H12         1.7373   -4.4784    0.6779 H         1 <0>         0.1427
     44 H13         0.5841   -2.3014   -2.0807 H         1 <0>         0.1319
     45 H14        -0.6366   -2.1939   -0.7673 H         1 <0>         0.1368
     46 H15         1.5970   -0.1641   -1.3335 H         1 <0>         0.0609
     47 H16        -0.1498    0.0577   -1.6882 H         1 <0>         0.1233
     48 H17         2.3319   -0.3228    0.9971 H         1 <0>         0.0696
     49 H18         1.1111   -0.2154    2.3104 H         1 <0>         0.1313
     50 H19         0.0984   -2.3536    1.5624 H         1 <0>         0.1318
     51 H20         1.8453   -2.5754    1.9171 H         1 <0>         0.1327
     52 H21         1.4950    1.8289    0.2758 H         1 <0>         0.0650
     53 H22        -0.1831    1.9659   -0.3501 H         1 <0>         0.0941
     54 H23        -1.9339    2.5355    1.0862 H         1 <0>         0.1330
     55 H24        -2.7299    3.3087    3.2787 H         1 <0>         0.1340
     56 H25        -1.2814    3.2087    5.2369 H         1 <0>         0.1351
     57 H26         3.8838    0.9486    3.6646 H         1 <0>         0.1608
     58 H27         3.1858    1.6941    5.9020 H         1 <0>         0.1415
     59 H28         0.9301    2.6192    6.2404 H         1 <0>         0.1430
     60 H29         2.3557   -2.2845   -0.4312 H         1 <0>         0.4446
@<TRIPOS>BOND
     1    1    2 1
     2    1   32 1
     3    1   33 1
     4    1   34 1
     5    2    7 ar
     6    2    3 ar
     7    3    4 ar
     8    3   35 1
     9    4    5 ar
    10    4   36 1
    11    5   11 ar
    12    5    6 ar
    13    6    7 ar
    14    6    8 ar
    15    8    9 ar
    16    8   37 1
    17    9   10 ar
    18    9   38 1
    19   10   11 ar
    20   10   39 1
    21   11   12 1
    22   12   13 1
    23   13   14 1
    24   13   40 1
    25   13   41 1
    26   14   15 1
    27   14   42 1
    28   14   43 1
    29   15   20 1
    30   15   16 1
    31   15   60 1
    32   16   17 1
    33   16   44 1
    34   16   45 1
    35   17   18 1
    36   17   46 1
    37   17   47 1
    38   18   19 1
    39   18   21 1
    40   19   20 1
    41   19   48 1
    42   19   49 1
    43   20   50 1
    44   20   51 1
    45   21   22 1
    46   21   52 1
    47   21   53 1
    48   22   27 ar
    49   22   23 ar
    50   23   24 ar
    51   23   54 1
    52   24   25 ar
    53   24   55 1
    54   25   26 ar
    55   25   56 1
    56   26   31 ar
    57   26   27 ar
    58   27   28 ar
    59   28   29 ar
    60   29   30 ar
    61   29   57 1
    62   30   31 ar
    63   30   58 1
    64   31   59 1
@<TRIPOS>MOLECULE
ZINC22445253
   59    63     0     0     0
SMALL
USER_CHARGES
2-methyl-5-[2-[4-(8-quinolylmethyl)piperazin-1-yl]ethoxy]quinoline
@<TRIPOS>ATOM
      1 C1          9.6512   -3.6668   -2.6438 C.3       1 <0>        -0.1107
      2 C2          8.1656   -3.9126   -2.5828 C.ar      1 <0>         0.1716
      3 C3          7.4552   -3.4958   -1.4598 C.ar      1 <0>        -0.1894
      4 C4          6.1076   -3.7108   -1.3872 C.ar      1 <0>        -0.0262
      5 C5          5.4792   -4.3553   -2.4671 C.ar      1 <0>        -0.1300
      6 C6          6.2607   -4.7539   -3.5797 C.ar      1 <0>         0.1682
      7 N1          7.5763   -4.5134   -3.5881 N.ar      1 <0>        -0.4849
      8 C7          5.6361   -5.3984   -4.6607 C.ar      1 <0>        -0.1418
      9 C8          4.2951   -5.6328   -4.6315 C.ar      1 <0>        -0.0546
     10 C9          3.5212   -5.2507   -3.5401 C.ar      1 <0>        -0.2338
     11 C10         4.0937   -4.6112   -2.4628 C.ar      1 <0>         0.1659
     12 O1          3.3309   -4.2361   -1.4042 O.3       1 <0>        -0.2904
     13 C11         1.9343   -4.5303   -1.4742 C.3       1 <0>         0.0639
     14 C12         1.2446   -4.0366   -0.2008 C.3       1 <0>         0.0533
     15 N2          1.3377   -2.5723   -0.1298 N.3       1 <0>        -0.5310
     16 C13         0.3926   -1.9388   -1.0600 C.3       1 <0>         0.0551
     17 C14         0.5761   -0.4200   -1.0138 C.3       1 <0>         0.0570
     18 N3          0.3577    0.0556    0.3594 N.3       1 <0>        -0.5332
     19 C15         1.3027   -0.5779    1.2897 C.3       1 <0>         0.0641
     20 C16         1.1193   -2.0967    1.2434 C.3       1 <0>         0.0559
     21 C17         0.4507    1.5199    0.4305 C.3       1 <0>         0.1011
     22 C18        -0.0162    1.9878    1.7847 C.ar      1 <0>        -0.0540
     23 C19        -1.2749    2.4821    1.9402 C.ar      1 <0>        -0.0850
     24 C20        -1.7266    2.9205    3.1830 C.ar      1 <0>        -0.1125
     25 C21        -0.9199    2.8658    4.2787 C.ar      1 <0>        -0.0985
     26 C22         0.3844    2.3614    4.1555 C.ar      1 <0>        -0.1022
     27 C23         0.8444    1.9102    2.8933 C.ar      1 <0>         0.1296
     28 N4          2.0836    1.4234    2.7721 N.ar      1 <0>        -0.4658
     29 C24         2.8899    1.3480    3.8028 C.ar      1 <0>         0.1274
     30 C25         2.4987    1.7689    5.0722 C.ar      1 <0>        -0.1748
     31 C26         1.2498    2.2878    5.2634 C.ar      1 <0>        -0.0572
     32 H1          9.9765   -3.1572   -1.7249 H         1 <0>         0.0770
     33 H2          9.8830   -3.0360   -3.5146 H         1 <0>         0.0822
     34 H3         10.1783   -4.6278   -2.7364 H         1 <0>         0.0822
     35 H4          7.9686   -3.0030   -0.6475 H         1 <0>         0.1380
     36 H5          5.5410   -3.3946   -0.5239 H         1 <0>         0.1442
     37 H6          6.2197   -5.7076   -5.5152 H         1 <0>         0.1348
     38 H7          3.8249   -6.1286   -5.4679 H         1 <0>         0.1307
     39 H8          2.4603   -5.4528   -3.5400 H         1 <0>         0.1300
     40 H9          1.4965   -4.0251   -2.3477 H         1 <0>         0.0664
     41 H10         1.7928   -5.6169   -1.5701 H         1 <0>         0.0696
     42 H11         0.1864   -4.3364   -0.2172 H         1 <0>         0.0621
     43 H12         1.7373   -4.4784    0.6779 H         1 <0>         0.0869
     44 H13         0.5841   -2.3014   -2.0807 H         1 <0>         0.0777
     45 H14        -0.6366   -2.1939   -0.7673 H         1 <0>         0.0431
     46 H15         1.5970   -0.1641   -1.3335 H         1 <0>         0.0442
     47 H16        -0.1498    0.0577   -1.6882 H         1 <0>         0.0791
     48 H17         2.3319   -0.3228    0.9971 H         1 <0>         0.0521
     49 H18         1.1111   -0.2154    2.3104 H         1 <0>         0.0873
     50 H19         0.0984   -2.3536    1.5624 H         1 <0>         0.0375
     51 H20         1.8453   -2.5754    1.9171 H         1 <0>         0.0774
     52 H21         1.4950    1.8289    0.2758 H         1 <0>         0.0550
     53 H22        -0.1831    1.9659   -0.3501 H         1 <0>         0.0817
     54 H23        -1.9339    2.5355    1.0862 H         1 <0>         0.1304
     55 H24        -2.7299    3.3087    3.2787 H         1 <0>         0.1290
     56 H25        -1.2814    3.2087    5.2369 H         1 <0>         0.1299
     57 H26         3.8838    0.9486    3.6646 H         1 <0>         0.1588
     58 H27         3.1858    1.6941    5.9020 H         1 <0>         0.1373
     59 H28         0.9301    2.6192    6.2404 H         1 <0>         0.1382
@<TRIPOS>BOND
     1    1    2 1
     2    1   32 1
     3    1   33 1
     4    1   34 1
     5    2    7 ar
     6    2    3 ar
     7    3    4 ar
     8    3   35 1
     9    4    5 ar
    10    4   36 1
    11    5   11 ar
    12    5    6 ar
    13    6    7 ar
    14    6    8 ar
    15    8    9 ar
    16    8   37 1
    17    9   10 ar
    18    9   38 1
    19   10   11 ar
    20   10   39 1
    21   11   12 1
    22   12   13 1
    23   13   14 1
    24   13   40 1
    25   13   41 1
    26   14   15 1
    27   14   42 1
    28   14   43 1
    29   15   20 1
    30   15   16 1
    31   16   17 1
    32   16   44 1
    33   16   45 1
    34   17   18 1
    35   17   46 1
    36   17   47 1
    37   18   19 1
    38   18   21 1
    39   19   20 1
    40   19   48 1
    41   19   49 1
    42   20   50 1
    43   20   51 1
    44   21   22 1
    45   21   52 1
    46   21   53 1
    47   22   27 ar
    48   22   23 ar
    49   23   24 ar
    50   23   54 1
    51   24   25 ar
    52   24   55 1
    53   25   26 ar
    54   25   56 1
    55   26   31 ar
    56   26   27 ar
    57   27   28 ar
    58   28   29 ar
    59   29   30 ar
    60   29   57 1
    61   30   31 ar
    62   30   58 1
    63   31   59 1
@<TRIPOS>MOLECULE
ZINC00537877
   52    55     0     0     0
SMALL
USER_CHARGES

@<TRIPOS>ATOM
      1 C1         -0.0166    1.3749    0.0096 C.ar      1 <0>        -0.1458
      2 C2          1.1694    2.0931    0.0021 C.ar      1 <0>        -0.0357
      3 C3          2.3865    1.4416   -0.0130 C.ar      1 <0>        -0.1583
      4 C4          2.4252    0.0557   -0.0208 C.ar      1 <0>         0.1911
      5 C5          1.2234   -0.6735   -0.0133 C.ar      1 <0>        -0.2028
      6 C6          0.0021   -0.0041    0.0020 C.ar      1 <0>        -0.0119
      7 C7          1.3009   -2.1453   -0.0214 C.2       1 <0>         0.5683
      8 O1          0.2913   -2.8230   -0.0158 O.2       1 <0>        -0.4850
      9 N1          2.5223   -2.7219   -0.0358 N.am      1 <0>        -0.5569
     10 C8          3.6419   -1.9818   -0.0425 C.2       1 <0>         0.7078
     11 O2          4.7159   -2.5515   -0.0555 O.2       1 <0>        -0.5414
     12 N2          3.6268   -0.6377   -0.0356 N.am      1 <0>        -0.6368
     13 H1          4.4640   -0.1479   -0.0410 H         1 <0>         0.4418
     14 C9          2.6269   -4.1831   -0.0436 C.3       1 <0>         0.0867
     15 C10         2.6496   -4.6850   -1.4888 C.3       1 <0>        -0.0251
     16 N3          2.7545   -6.1503   -1.4967 N.4       1 <0>        -0.3797
     17 C11         4.0426   -6.5502   -0.9176 C.3       1 <0>        -0.0117
     18 C12         4.1233   -8.0767   -0.8488 C.3       1 <0>        -0.1358
     19 C13         3.9960   -8.6533   -2.2619 C.3       1 <0>        -0.1487
     20 C14         2.6832   -8.1689   -2.8839 C.3       1 <0>        -0.1361
     21 C15         2.6558   -6.6390   -2.8772 C.3       1 <0>        -0.0021
     22 C16         3.9961  -10.1587   -2.1937 C.2       1 <0>         0.4085
     23 O3          3.5533  -10.7215   -1.2150 O.2       1 <0>        -0.4338
     24 C17         4.5330  -10.9452   -3.3138 C.ar      1 <0>        -0.1959
     25 C18         5.0500  -10.2989   -4.4422 C.ar      1 <0>        -0.0461
     26 C19         5.5516  -11.0417   -5.4882 C.ar      1 <0>        -0.1663
     27 C20         5.5445  -12.4274   -5.4249 C.ar      1 <0>         0.1458
     28 C21         5.0335  -13.0744   -4.3093 C.ar      1 <0>        -0.1631
     29 C22         4.5346  -12.3433   -3.2537 C.ar      1 <0>        -0.0242
     30 F1          6.0370  -13.1502   -6.4546 F         1 <0>        -0.1247
     31 H2         -0.9610    1.8986    0.0260 H         1 <0>         0.1441
     32 H3          1.1408    3.1727    0.0079 H         1 <0>         0.1452
     33 H4          3.3052    2.0094   -0.0191 H         1 <0>         0.1455
     34 H5         -0.9234   -0.5607    0.0079 H         1 <0>         0.1481
     35 H6          3.5454   -4.4843    0.4601 H         1 <0>         0.1238
     36 H7          1.7701   -4.6115    0.4764 H         1 <0>         0.1228
     37 H8          1.7311   -4.3838   -1.9925 H         1 <0>         0.1381
     38 H9          3.5064   -4.2566   -2.0088 H         1 <0>         0.1379
     39 H10         4.8534   -6.1716   -1.5399 H         1 <0>         0.1358
     40 H11         4.1330   -6.1364    0.0868 H         1 <0>         0.1371
     41 H12         5.0811   -8.3717   -0.4203 H         1 <0>         0.1185
     42 H13         3.3129   -8.4564   -0.2265 H         1 <0>         0.1024
     43 H14         4.8345   -8.3147   -2.8705 H         1 <0>         0.1171
     44 H15         2.6116   -8.5297   -3.9100 H         1 <0>         0.1217
     45 H16         1.8429   -8.5505   -2.3038 H         1 <0>         0.0985
     46 H17         1.7225   -6.2907   -3.3196 H         1 <0>         0.1380
     47 H18         3.4963   -6.2585   -3.4578 H         1 <0>         0.1341
     48 H19         5.0555   -9.2201   -4.4930 H         1 <0>         0.1392
     49 H20         5.9508  -10.5441   -6.3596 H         1 <0>         0.1470
     50 H21         5.0309  -14.1535   -4.2663 H         1 <0>         0.1490
     51 H22         4.1411  -12.8481   -2.3838 H         1 <0>         0.1471
     52 H23         2.0047   -6.5431   -0.9475 H         1 <0>         0.4268
@<TRIPOS>BOND
     1    1    6 ar
     2    1    2 ar
     3    1   31 1
     4    2    3 ar
     5    2   32 1
     6    3    4 ar
     7    3   33 1
     8    4   12 1
     9    4    5 ar
    10    5    6 ar
    11    5    7 1
    12    6   34 1
    13    7    8 2
    14    7    9 am
    15    9   10 am
    16    9   14 1
    17   10   11 2
    18   10   12 am
    19   12   13 1
    20   14   15 1
    21   14   35 1
    22   14   36 1
    23   15   16 1
    24   15   37 1
    25   15   38 1
    26   16   21 1
    27   16   17 1
    28   16   52 1
    29   17   18 1
    30   17   39 1
    31   17   40 1
    32   18   19 1
    33   18   41 1
    34   18   42 1
    35   19   20 1
    36   19   22 1
    37   19   43 1
    38   20   21 1
    39   20   44 1
    40   20   45 1
    41   21   46 1
    42   21   47 1
    43   22   23 2
    44   22   24 1
    45   24   29 ar
    46   24   25 ar
    47   25   26 ar
    48   25   48 1
    49   26   27 ar
    50   26   49 1
    51   27   28 ar
    52   27   30 1
    53   28   29 ar
    54   28   50 1
    55   29   51 1
@<TRIPOS>MOLECULE
ZINC00537877
   51    54     0     0     0
SMALL
USER_CHARGES

@<TRIPOS>ATOM
      1 C1         -0.0165    1.3635    0.0095 C.ar      1 <0>        -0.1996
      2 C2          1.1676    2.0893    0.0021 C.ar      1 <0>        -0.0558
      3 C3          2.3794    1.4578   -0.0132 C.ar      1 <0>        -0.1599
      4 C4          2.4313    0.0613   -0.0212 C.ar      1 <0>         0.2387
      5 C5          1.2245   -0.6739   -0.0131 C.ar      1 <0>        -0.2783
      6 C6          0.0021   -0.0041    0.0020 C.ar      1 <0>        -0.0188
      7 C7          1.3072   -2.1409   -0.0223 C.2       1 <0>         0.5603
      8 O1          0.3037   -2.8299   -0.0164 O.2       1 <0>        -0.5531
      9 N1          2.5407   -2.6973   -0.0379 N.am      1 <0>        -0.5574
     10 C8          3.6548   -1.9127   -0.0447 C.2       1 <0>         0.6046
     11 O2          4.8636   -2.5136   -0.0608 O.3       1 <0>        -0.6759
     12 N2          3.6096   -0.6067   -0.0368 N.2       1 <0>        -0.6157
     13 C9          2.6795   -4.1557   -0.0471 C.3       1 <0>         0.0893
     14 C10         2.7130   -4.6557   -1.4927 C.3       1 <0>        -0.0205
     15 N3          2.8521   -6.1181   -1.5019 N.4       1 <0>        -0.3780
     16 C11         4.1496   -6.4882   -0.9239 C.3       1 <0>        -0.0102
     17 C12         4.2660   -8.0125   -0.8566 C.3       1 <0>        -0.1339
     18 C13         4.1514   -8.5907   -2.2700 C.3       1 <0>        -0.1486
     19 C14         2.8272   -8.1366   -2.8908 C.3       1 <0>        -0.1338
     20 C15         2.7641   -6.6078   -2.8828 C.3       1 <0>        -0.0025
     21 C16         4.1868  -10.0958   -2.2032 C.2       1 <0>         0.4088
     22 O3          3.7578  -10.6696   -1.2246 O.2       1 <0>        -0.4351
     23 C17         4.7413  -10.8685   -3.3242 C.ar      1 <0>        -0.1915
     24 C18         5.2423  -10.2093   -4.4524 C.ar      1 <0>        -0.0447
     25 C19         5.7604  -10.9393   -5.4993 C.ar      1 <0>        -0.1657
     26 C20         5.7858  -12.3249   -5.4372 C.ar      1 <0>         0.1414
     27 C21         5.2907  -12.9845   -4.3219 C.ar      1 <0>        -0.1644
     28 C22         4.7756  -12.2663   -3.2654 C.ar      1 <0>        -0.0262
     29 F1          6.2945  -13.0350   -6.4678 F         1 <0>        -0.1274
     30 H1         -0.9623    1.8846    0.0259 H         1 <0>         0.1182
     31 H2          1.1301    3.1686    0.0082 H         1 <0>         0.1206
     32 H3          3.2922    2.0349   -0.0196 H         1 <0>         0.1281
     33 H4         -0.9234   -0.5608    0.0082 H         1 <0>         0.1211
     34 H5          3.6051   -4.4357    0.4558 H         1 <0>         0.1120
     35 H6          1.8332   -4.6044    0.4731 H         1 <0>         0.0972
     36 H7          1.7874   -4.3756   -1.9955 H         1 <0>         0.1295
     37 H8          3.5592   -4.2069   -2.0128 H         1 <0>         0.1372
     38 H9          4.9510   -6.0903   -1.5464 H         1 <0>         0.1348
     39 H10         4.2310   -6.0733    0.0808 H         1 <0>         0.1403
     40 H11         5.2307   -8.2853   -0.4288 H         1 <0>         0.1151
     41 H12         3.4652   -8.4116   -0.2340 H         1 <0>         0.0995
     42 H13         4.9813   -8.2321   -2.8789 H         1 <0>         0.1164
     43 H14         2.7635   -8.4982   -3.9171 H         1 <0>         0.1171
     44 H15         1.9965   -8.5382   -2.3105 H         1 <0>         0.0959
     45 H16         1.8226   -6.2811   -3.3243 H         1 <0>         0.1350
     46 H17         3.5950   -6.2072   -3.4635 H         1 <0>         0.1323
     47 H18         5.2224   -9.1307   -4.5022 H         1 <0>         0.1417
     48 H19         6.1474  -10.4318   -6.3706 H         1 <0>         0.1465
     49 H20         5.3134  -14.0635   -4.2798 H         1 <0>         0.1469
     50 H21         4.3946  -12.7809   -2.3956 H         1 <0>         0.1464
     51 H22         2.1121   -6.5288   -0.9526 H         1 <0>         0.4221
@<TRIPOS>BOND
     1    1    6 ar
     2    1    2 ar
     3    1   30 1
     4    2    3 ar
     5    2   31 1
     6    3    4 ar
     7    3   32 1
     8    4   12 1
     9    4    5 ar
    10    5    6 ar
    11    5    7 1
    12    6   33 1
    13    7    8 2
    14    7    9 am
    15    9   10 1
    16    9   13 1
    17   10   11 1
    18   10   12 2
    19   13   14 1
    20   13   34 1
    21   13   35 1
    22   14   15 1
    23   14   36 1
    24   14   37 1
    25   15   20 1
    26   15   16 1
    27   15   51 1
    28   16   17 1
    29   16   38 1
    30   16   39 1
    31   17   18 1
    32   17   40 1
    33   17   41 1
    34   18   19 1
    35   18   21 1
    36   18   42 1
    37   19   20 1
    38   19   43 1
    39   19   44 1
    40   20   45 1
    41   20   46 1
    42   21   22 2
    43   21   23 1
    44   23   28 ar
    45   23   24 ar
    46   24   25 ar
    47   24   47 1
    48   25   26 ar
    49   25   48 1
    50   26   27 ar
    51   26   29 1
    52   27   28 ar
    53   27   49 1
    54   28   50 1
@<TRIPOS>MOLECULE
ZINC36467752
   37    39     0     0     0
SMALL
USER_CHARGES

@<TRIPOS>ATOM
      1 C1         -0.0178    1.4648    0.0101 C.3       1 <0>        -0.0472
      2 N1          0.0021   -0.0041    0.0020 N.4       1 <0>        -0.3845
      3 C2          0.6815   -0.4760   -1.2105 C.3       1 <0>        -0.0077
      4 C3          0.6339   -2.0045   -1.2642 C.3       1 <0>        -0.1397
      5 C4          1.3359   -2.5754   -0.0287 C.3       1 <0>        -0.0121
      6 C5          0.6658   -2.0178    1.2303 C.3       1 <0>        -0.1396
      7 C6          0.7122   -0.4888    1.1916 C.3       1 <0>        -0.0077
      8 C7          1.2246   -4.0783   -0.0353 C.2       1 <0>        -0.2022
      9 C8          0.0893   -4.7947   -0.0267 C.2       1 <0>         0.0759
     10 N2          0.3807   -6.1312   -0.0368 N.pl3     1 <0>        -0.5893
     11 H1         -0.2761   -6.8450   -0.0337 H         1 <0>         0.4188
     12 C9          1.7482   -6.3123   -0.0526 C.ar      1 <0>         0.0438
     13 C10         2.3348   -5.0339   -0.0587 C.ar      1 <0>        -0.0462
     14 C11         3.7248   -4.9035   -0.0805 C.ar      1 <0>        -0.1764
     15 C12         4.5164   -6.0367   -0.0997 C.ar      1 <0>         0.2041
     16 C13         3.9312   -7.3017   -0.0977 C.ar      1 <0>        -0.1595
     17 C14         2.5615   -7.4403   -0.0672 C.ar      1 <0>        -0.0767
     18 N3          5.9105   -5.9133   -0.1216 N.pl3     1 <0>        -0.8801
     19 H2          1.0047    1.8421    0.0024 H         1 <0>         0.1211
     20 H3         -0.5450    1.8259   -0.8730 H         1 <0>         0.1230
     21 H4         -0.5280    1.8163    0.9069 H         1 <0>         0.1229
     22 H5          0.1827   -0.0663   -2.0888 H         1 <0>         0.1298
     23 H6          1.7201   -0.1456   -1.1964 H         1 <0>         0.1281
     24 H7         -0.4044   -2.3361   -1.2786 H         1 <0>         0.0862
     25 H8          1.1404   -2.3531   -2.1643 H         1 <0>         0.1129
     26 H9          2.3869   -2.2866   -0.0407 H         1 <0>         0.0914
     27 H10        -0.3718   -2.3496    1.2677 H         1 <0>         0.0862
     28 H11         1.1951   -2.3758    2.1133 H         1 <0>         0.1129
     29 H12         1.7502   -0.1581    1.1545 H         1 <0>         0.1282
     30 H13         0.2361   -0.0886    2.0867 H         1 <0>         0.1298
     31 H14        -0.9068   -4.3775   -0.0135 H         1 <0>         0.1630
     32 H15         4.1786   -3.9235   -0.0828 H         1 <0>         0.1164
     33 H16         4.5578   -8.1812   -0.1131 H         1 <0>         0.1286
     34 H17         2.1185   -8.4252   -0.0675 H         1 <0>         0.1244
     35 H18         6.3196   -5.0337   -0.1233 H         1 <0>         0.3979
     36 H19         6.4676   -6.7073   -0.1350 H         1 <0>         0.4004
     37 H20        -0.9449   -0.3523    0.0117 H         1 <0>         0.4235
@<TRIPOS>BOND
     1    1    2 1
     2    1   19 1
     3    1   20 1
     4    1   21 1
     5    2    7 1
     6    2    3 1
     7    2   37 1
     8    3    4 1
     9    3   22 1
    10    3   23 1
    11    4    5 1
    12    4   24 1
    13    4   25 1
    14    5    6 1
    15    5    8 1
    16    5   26 1
    17    6    7 1
    18    6   27 1
    19    6   28 1
    20    7   29 1
    21    7   30 1
    22    8   13 1
    23    8    9 2
    24    9   10 1
    25    9   31 1
    26   10   11 1
    27   10   12 1
    28   12   17 ar
    29   12   13 ar
    30   13   14 ar
    31   14   15 ar
    32   14   32 1
    33   15   16 ar
    34   15   18 1
    35   16   17 ar
    36   16   33 1
    37   17   34 1
    38   18   35 1
    39   18   36 1
@<TRIPOS>MOLECULE
ZINC03870312
   44    45     0     0     0
SMALL
USER_CHARGES

@<TRIPOS>ATOM
      1 C1          2.0344   -2.4614   -1.6117 C.3       1 <0>        -0.1564
      2 C2          1.0053   -1.9689   -0.5924 C.3       1 <0>        -0.1483
      3 C3         -0.3778   -2.5081   -0.9628 C.3       1 <0>        -0.0221
      4 N1         -1.3660   -2.0352    0.0160 N.4       1 <0>        -0.3808
      5 C4         -1.4822   -0.5735   -0.0727 C.3       1 <0>        -0.0216
      6 C5         -2.3990   -0.0662    1.0422 C.3       1 <0>        -0.1495
      7 C6         -2.5852    1.4458    0.9011 C.3       1 <0>        -0.1554
      8 C7         -2.6701   -2.6483   -0.2695 C.3       1 <0>         0.0206
      9 H1         -3.4102   -2.2854    0.4437 H         1 <0>         0.1433
     10 C8         -2.5573   -4.1738   -0.1653 C.3       1 <0>        -0.1378
     11 C9         -3.9635   -4.7663   -0.2291 C.3       1 <0>        -0.0773
     12 C10        -4.7118   -4.2271   -1.4202 C.ar      1 <0>        -0.0686
     13 C11        -5.8362   -4.9235   -1.8466 C.ar      1 <0>        -0.1219
     14 C12        -6.5697   -4.4809   -2.9279 C.ar      1 <0>        -0.0880
     15 C13        -6.1863   -3.3333   -3.5952 C.ar      1 <0>        -0.1382
     16 C14        -5.0658   -2.6373   -3.1752 C.ar      1 <0>         0.1143
     17 C15        -4.3230   -3.0871   -2.0847 C.ar      1 <0>        -0.1167
     18 C16        -3.1061   -2.2922   -1.6893 C.3       1 <0>        -0.0851
     19 O1         -4.6876   -1.5082   -3.8302 O.3       1 <0>        -0.4961
     20 H2          3.0198   -2.0773   -1.3478 H         1 <0>         0.0776
     21 H3          2.0564   -3.5512   -1.6083 H         1 <0>         0.0671
     22 H4          1.7603   -2.1066   -2.6052 H         1 <0>         0.0669
     23 H5          1.2794   -2.3236    0.4012 H         1 <0>         0.0858
     24 H6          0.9833   -0.8791   -0.5958 H         1 <0>         0.0856
     25 H7         -0.6520   -2.1533   -1.9563 H         1 <0>         0.1318
     26 H8         -0.3558   -3.5978   -0.9594 H         1 <0>         0.1333
     27 H9         -0.4954   -0.1233    0.0354 H         1 <0>         0.1342
     28 H10        -1.9020   -0.3004   -1.0408 H         1 <0>         0.1308
     29 H11        -3.3680   -0.5600    0.9687 H         1 <0>         0.0835
     30 H12        -1.9507   -0.2883    2.0106 H         1 <0>         0.0869
     31 H13        -3.0336    1.6679   -0.0673 H         1 <0>         0.0659
     32 H14        -3.2384    1.8072    1.6954 H         1 <0>         0.0773
     33 H15        -1.6163    1.9396    0.9746 H         1 <0>         0.0677
     34 H16        -1.9603   -4.5552   -0.9937 H         1 <0>         0.0927
     35 H17        -2.0879   -4.4434    0.7807 H         1 <0>         0.0935
     36 H18        -3.8932   -5.8510   -0.3098 H         1 <0>         0.0995
     37 H19        -4.5039   -4.5084    0.6817 H         1 <0>         0.0910
     38 H20        -6.1386   -5.8204   -1.3266 H         1 <0>         0.1319
     39 H21        -7.4413   -5.0301   -3.2522 H         1 <0>         0.1360
     40 H22        -6.7582   -2.9810   -4.4410 H         1 <0>         0.1369
     41 H23        -3.3398   -1.2287   -1.7374 H         1 <0>         0.0954
     42 H24        -2.2928   -2.5125   -2.3808 H         1 <0>         0.0981
     43 H25        -5.0813   -0.6984   -3.4777 H         1 <0>         0.3928
     44 H26        -1.0692   -2.2933    0.9451 H         1 <0>         0.4233
@<TRIPOS>BOND
     1    1    2 1
     2    1   20 1
     3    1   21 1
     4    1   22 1
     5    2    3 1
     6    2   23 1
     7    2   24 1
     8    3    4 1
     9    3   25 1
    10    3   26 1
    11    4    5 1
    12    4    8 1
    13    4   44 1
    14    5    6 1
    15    5   27 1
    16    5   28 1
    17    6    7 1
    18    6   29 1
    19    6   30 1
    20    7   31 1
    21    7   32 1
    22    7   33 1
    23    8    9 1
    24    8   18 1
    25    8   10 1
    26   10   11 1
    27   10   34 1
    28   10   35 1
    29   11   12 1
    30   11   36 1
    31   11   37 1
    32   12   17 ar
    33   12   13 ar
    34   13   14 ar
    35   13   38 1
    36   14   15 ar
    37   14   39 1
    38   15   16 ar
    39   15   40 1
    40   16   17 ar
    41   16   19 1
    42   17   18 1
    43   18   41 1
    44   18   42 1
    45   19   43 1
@<TRIPOS>MOLECULE
ZINC03870313
   44    45     0     0     0
SMALL
USER_CHARGES

@<TRIPOS>ATOM
      1 C1          1.4413   -2.5874   -2.4342 C.3       1 <0>        -0.1558
      2 C2          0.7544   -2.1400   -1.1423 C.3       1 <0>        -0.1491
      3 C3         -0.7443   -2.4339   -1.2335 C.3       1 <0>        -0.0201
      4 N1         -1.4039   -2.0044    0.0068 N.4       1 <0>        -0.3818
      5 C4         -1.3254   -0.5420    0.1221 C.3       1 <0>        -0.0189
      6 C5         -1.8949   -0.1056    1.4734 C.3       1 <0>        -0.1495
      7 C6         -1.6913    1.4004    1.6503 C.3       1 <0>        -0.1554
      8 C7         -2.8130   -2.4186   -0.0191 C.3       1 <0>         0.0212
      9 H1         -3.3345   -1.9999    0.8417 H         1 <0>         0.1439
     10 C8         -3.4725   -1.9253   -1.3124 C.3       1 <0>        -0.1372
     11 C9         -4.9780   -2.1583   -1.2047 C.3       1 <0>        -0.0775
     12 C10        -5.2664   -3.5813   -0.8033 C.ar      1 <0>        -0.0684
     13 C11        -6.5491   -4.0680   -1.0239 C.ar      1 <0>        -0.1225
     14 C12        -6.8811   -5.3604   -0.6738 C.ar      1 <0>        -0.0878
     15 C13        -5.9313   -6.1820   -0.0976 C.ar      1 <0>        -0.1384
     16 C14        -4.6513   -5.7025    0.1215 C.ar      1 <0>         0.1150
     17 C15        -4.3156   -4.3974   -0.2354 C.ar      1 <0>        -0.1164
     18 C16        -2.9018   -3.9428    0.0171 C.3       1 <0>        -0.0892
     19 O1         -3.7160   -6.5091    0.6885 O.3       1 <0>        -0.4966
     20 H2          2.5091   -2.3780   -2.3693 H         1 <0>         0.0777
     21 H3          1.2888   -3.6574   -2.5750 H         1 <0>         0.0667
     22 H4          1.0155   -2.0454   -3.2786 H         1 <0>         0.0666
     23 H5          1.1802   -2.6819   -0.2979 H         1 <0>         0.0859
     24 H6          0.9069   -1.0699   -1.0015 H         1 <0>         0.0859
     25 H7         -1.1702   -1.8919   -2.0779 H         1 <0>         0.1316
     26 H8         -0.8968   -3.5039   -1.3743 H         1 <0>         0.1312
     27 H9         -0.2845   -0.2270    0.0477 H         1 <0>         0.1340
     28 H10        -1.9022   -0.0828   -0.6807 H         1 <0>         0.1313
     29 H11        -2.9599   -0.3350    1.5100 H         1 <0>         0.0855
     30 H12        -1.3808   -0.6382    2.2735 H         1 <0>         0.0852
     31 H13        -2.2054    1.9330    0.8503 H         1 <0>         0.0669
     32 H14        -2.0971    1.7113    2.6130 H         1 <0>         0.0774
     33 H15        -0.6264    1.6298    1.6137 H         1 <0>         0.0669
     34 H16        -3.2741   -0.8615   -1.4430 H         1 <0>         0.0923
     35 H17        -3.0749   -2.4804   -2.1620 H         1 <0>         0.0927
     36 H18        -5.3938   -1.4827   -0.4571 H         1 <0>         0.0903
     37 H19        -5.4430   -1.9557   -2.1695 H         1 <0>         0.0990
     38 H20        -7.2937   -3.4279   -1.4736 H         1 <0>         0.1316
     39 H21        -7.8809   -5.7290   -0.8494 H         1 <0>         0.1360
     40 H22        -6.1865   -7.1938    0.1811 H         1 <0>         0.1370
     41 H23        -2.2487   -4.3592   -0.7498 H         1 <0>         0.0928
     42 H24        -2.5786   -4.2985    0.9954 H         1 <0>         0.1031
     43 H25        -3.2026   -7.0244    0.0514 H         1 <0>         0.3942
     44 H26        -0.9429   -2.4293    0.7974 H         1 <0>         0.4229
@<TRIPOS>BOND
     1    1    2 1
     2    1   20 1
     3    1   21 1
     4    1   22 1
     5    2    3 1
     6    2   23 1
     7    2   24 1
     8    3    4 1
     9    3   25 1
    10    3   26 1
    11    4    5 1
    12    4    8 1
    13    4   44 1
    14    5    6 1
    15    5   27 1
    16    5   28 1
    17    6    7 1
    18    6   29 1
    19    6   30 1
    20    7   31 1
    21    7   32 1
    22    7   33 1
    23    8    9 1
    24    8   18 1
    25    8   10 1
    26   10   11 1
    27   10   34 1
    28   10   35 1
    29   11   12 1
    30   11   36 1
    31   11   37 1
    32   12   17 ar
    33   12   13 ar
    34   13   14 ar
    35   13   38 1
    36   14   15 ar
    37   14   39 1
    38   15   16 ar
    39   15   40 1
    40   16   17 ar
    41   16   19 1
    42   17   18 1
    43   18   41 1
    44   18   42 1
    45   19   43 1
@<TRIPOS>MOLECULE
ZINC00000504
   41    44     0     0     0
SMALL
USER_CHARGES

@<TRIPOS>ATOM
      1 C1         -0.0178    1.4648    0.0101 C.3       1 <0>        -0.0457
      2 N1          0.0021   -0.0041    0.0020 N.4       1 <0>        -0.3851
      3 C2         -1.3782   -0.5248    0.0610 C.3       1 <0>        -0.0107
      4 C3         -1.3147   -2.0017   -0.3247 C.3       1 <0>         0.1097
      5 N2         -0.2536   -2.6823    0.4304 N.pl3     1 <0>        -0.6570
      6 C4         -0.1632   -4.0681    0.2474 C.ar      1 <0>         0.1515
      7 C5          0.1651   -4.5655   -1.0110 C.ar      1 <0>        -0.1283
      8 C6          0.3219   -5.9257   -1.1894 C.ar      1 <0>        -0.1053
      9 C7          0.1595   -6.7897   -0.1216 C.ar      1 <0>        -0.1122
     10 C8         -0.1903   -6.2968    1.1226 C.ar      1 <0>        -0.0978
     11 C9         -0.3794   -4.9379    1.2936 C.ar      1 <0>        -0.0863
     12 C10        -0.9055   -4.4020    2.5876 C.3       1 <0>        -0.0401
     13 C11         0.0255   -3.4607    3.2849 C.ar      1 <0>        -0.0434
     14 C12         0.2033   -3.7275    4.6483 C.ar      1 <0>        -0.1164
     15 C13         1.0009   -2.9352    5.4386 C.ar      1 <0>        -0.1037
     16 C14         1.6407   -1.8450    4.8776 C.ar      1 <0>        -0.1092
     17 C15         1.4792   -1.5873    3.5373 C.ar      1 <0>        -0.1345
     18 C16         0.6836   -2.4040    2.7249 C.ar      1 <0>        -0.1120
     19 C17         0.6957   -2.0166    1.2712 C.3       1 <0>         0.2145
     20 H1          1.6762   -2.3177    0.9022 H         1 <0>         0.0814
     21 C18         0.7079   -0.4980    1.1840 C.3       1 <0>        -0.0096
     22 H2          1.0047    1.8421    0.0024 H         1 <0>         0.1256
     23 H3         -0.5450    1.8259   -0.8730 H         1 <0>         0.1278
     24 H4         -0.5280    1.8163    0.9069 H         1 <0>         0.1233
     25 H5         -1.7720   -0.4210    1.0720 H         1 <0>         0.1359
     26 H6         -2.0104    0.0166   -0.6429 H         1 <0>         0.1459
     27 H7         -2.2727   -2.4732   -0.1054 H         1 <0>         0.1007
     28 H8         -1.1096   -2.0872   -1.3918 H         1 <0>         0.0828
     29 H9          0.2970   -3.8905   -1.8436 H         1 <0>         0.1222
     30 H10         0.5722   -6.3158   -2.1649 H         1 <0>         0.1292
     31 H11         0.3058   -7.8509   -0.2596 H         1 <0>         0.1304
     32 H12        -0.3156   -6.9709    1.9570 H         1 <0>         0.1304
     33 H13        -1.8427   -3.8810    2.3915 H         1 <0>         0.0851
     34 H14        -1.1118   -5.2412    3.2519 H         1 <0>         0.0847
     35 H15        -0.2988   -4.5760    5.0892 H         1 <0>         0.1275
     36 H16         1.1270   -3.1618    6.4870 H         1 <0>         0.1317
     37 H17         2.2602   -1.2030    5.4861 H         1 <0>         0.1308
     38 H18         1.9776   -0.7345    3.1006 H         1 <0>         0.1191
     39 H19         1.7417   -0.1544    1.1475 H         1 <0>         0.1407
     40 H20         0.2329   -0.0891    2.0758 H         1 <0>         0.1370
     41 H21         0.4593   -0.3360   -0.8339 H         1 <0>         0.4294
@<TRIPOS>BOND
     1    1    2 1
     2    1   22 1
     3    1   23 1
     4    1   24 1
     5    2   21 1
     6    2    3 1
     7    2   41 1
     8    3    4 1
     9    3   25 1
    10    3   26 1
    11    4    5 1
    12    4   27 1
    13    4   28 1
    14    5   19 1
    15    5    6 1
    16    6   11 ar
    17    6    7 ar
    18    7    8 ar
    19    7   29 1
    20    8    9 ar
    21    8   30 1
    22    9   10 ar
    23    9   31 1
    24   10   11 ar
    25   10   32 1
    26   11   12 1
    27   12   13 1
    28   12   33 1
    29   12   34 1
    30   13   18 ar
    31   13   14 ar
    32   14   15 ar
    33   14   35 1
    34   15   16 ar
    35   15   36 1
    36   16   17 ar
    37   16   37 1
    38   17   18 ar
    39   17   38 1
    40   18   19 1
    41   19   20 1
    42   19   21 1
    43   21   39 1
    44   21   40 1
@<TRIPOS>MOLECULE
ZINC19702119
   40    43     0     0     0
SMALL
USER_CHARGES

@<TRIPOS>ATOM
      1 C1         -0.0178    1.4648    0.0101 C.3       1 <0>        -0.0454
      2 N1          0.0021   -0.0041    0.0020 N.4       1 <0>        -0.3860
      3 C2         -1.3783   -0.5248    0.0608 C.3       1 <0>        -0.0097
      4 C3         -1.3145   -2.0016   -0.3258 C.3       1 <0>         0.1124
      5 N2         -0.2539   -2.6821    0.4305 N.pl3     1 <0>        -0.6421
      6 C4         -0.1644   -4.0618    0.2458 C.ar      1 <0>         0.3542
      7 C5         -0.3795   -4.9308    1.2960 C.ar      1 <0>        -0.1288
      8 C6         -0.1847   -6.2880    1.1174 C.ar      1 <0>        -0.0548
      9 C7          0.1706   -6.7372   -0.1491 C.ar      1 <0>        -0.1645
     10 C8          0.3143   -5.8212   -1.1718 C.ar      1 <0>         0.1192
     11 N3          0.1488   -4.5302   -0.9575 N.ar      1 <0>        -0.4975
     12 C9         -0.9081   -4.3992    2.5895 C.3       1 <0>        -0.0368
     13 C10         0.0224   -3.4574    3.2885 C.ar      1 <0>        -0.0457
     14 C11         0.1986   -3.7223    4.6521 C.ar      1 <0>        -0.1150
     15 C12         0.9953   -2.9282    5.4417 C.ar      1 <0>        -0.1027
     16 C13         1.6349   -1.8386    4.8795 C.ar      1 <0>        -0.1076
     17 C14         1.4749   -1.5830    3.5386 C.ar      1 <0>        -0.1330
     18 C15         0.6805   -2.4016    2.7268 C.ar      1 <0>        -0.1121
     19 C16         0.6937   -2.0166    1.2726 C.3       1 <0>         0.2159
     20 H1          1.6746   -2.3185    0.9055 H         1 <0>         0.0814
     21 C17         0.7079   -0.4980    1.1840 C.3       1 <0>        -0.0074
     22 H2          1.0047    1.8421    0.0024 H         1 <0>         0.1257
     23 H3         -0.5450    1.8259   -0.8730 H         1 <0>         0.1282
     24 H4         -0.5280    1.8163    0.9069 H         1 <0>         0.1236
     25 H5         -1.7720   -0.4217    1.0720 H         1 <0>         0.1366
     26 H6         -2.0105    0.0169   -0.6426 H         1 <0>         0.1472
     27 H7         -2.2726   -2.4733   -0.1077 H         1 <0>         0.0996
     28 H8         -1.1080   -2.0865   -1.3927 H         1 <0>         0.0904
     29 H9         -0.3056   -6.9793    1.9383 H         1 <0>         0.1438
     30 H10         0.3326   -7.7894   -0.3307 H         1 <0>         0.1453
     31 H11         0.5666   -6.1671   -2.1633 H         1 <0>         0.1637
     32 H12        -1.8457   -3.8790    2.3937 H         1 <0>         0.0888
     33 H13        -1.1133   -5.2399    3.2522 H         1 <0>         0.0879
     34 H14        -0.3035   -4.5704    5.0938 H         1 <0>         0.1284
     35 H15         1.1202   -3.1526    6.4908 H         1 <0>         0.1325
     36 H16         2.2534   -1.1951    5.4877 H         1 <0>         0.1318
     37 H17         1.9733   -0.7306    3.1011 H         1 <0>         0.1205
     38 H18         1.7422   -0.1560    1.1466 H         1 <0>         0.1419
     39 H19         0.2340   -0.0876    2.0757 H         1 <0>         0.1388
     40 H20         0.4594   -0.3360   -0.8339 H         1 <0>         0.4313
@<TRIPOS>BOND
     1    1    2 1
     2    1   22 1
     3    1   23 1
     4    1   24 1
     5    2   21 1
     6    2    3 1
     7    2   40 1
     8    3    4 1
     9    3   25 1
    10    3   26 1
    11    4    5 1
    12    4   27 1
    13    4   28 1
    14    5   19 1
    15    5    6 1
    16    6   11 ar
    17    6    7 ar
    18    7    8 ar
    19    7   12 1
    20    8    9 ar
    21    8   29 1
    22    9   10 ar
    23    9   30 1
    24   10   11 ar
    25   10   31 1
    26   12   13 1
    27   12   32 1
    28   12   33 1
    29   13   18 ar
    30   13   14 ar
    31   14   15 ar
    32   14   34 1
    33   15   16 ar
    34   15   35 1
    35   16   17 ar
    36   16   36 1
    37   17   18 ar
    38   17   37 1
    39   18   19 1
    40   19   20 1
    41   19   21 1
    42   21   38 1
    43   21   39 1
@<TRIPOS>MOLECULE
ZINC19702119
   39    42     0     0     0
SMALL
USER_CHARGES

@<TRIPOS>ATOM
      1 C1         -0.0178    1.4648    0.0101 C.3       1 <0>         0.0209
      2 N1          0.0021   -0.0041    0.0020 N.3       1 <0>        -0.5267
      3 C2         -1.3696   -0.5520   -0.0129 C.3       1 <0>         0.0369
      4 C3         -1.2587   -2.0140   -0.4414 C.3       1 <0>         0.1508
      5 N2         -0.2104   -2.6979    0.3284 N.pl3     1 <0>        -0.6237
      6 C4         -0.0943   -4.0707    0.1064 C.ar      1 <0>         0.3753
      7 C5         -0.3267   -4.9738    1.1232 C.ar      1 <0>        -0.1410
      8 C6         -0.1059   -6.3221    0.9104 C.ar      1 <0>        -0.0580
      9 C7          0.2932   -6.7278   -0.3578 C.ar      1 <0>        -0.1849
     10 C8          0.4527   -5.7794   -1.3480 C.ar      1 <0>         0.1154
     11 N3          0.2613   -4.4979   -1.1005 N.ar      1 <0>        -0.4972
     12 C9         -0.9013   -4.4894    2.4157 C.3       1 <0>        -0.0291
     13 C10        -0.0060   -3.5560    3.1696 C.ar      1 <0>        -0.0590
     14 C11         0.1339   -3.8590    4.5295 C.ar      1 <0>        -0.1210
     15 C12         0.8955   -3.0778    5.3654 C.ar      1 <0>        -0.1186
     16 C13         1.5355   -1.9634    4.8545 C.ar      1 <0>        -0.1174
     17 C14         1.4109   -1.6701    3.5176 C.ar      1 <0>        -0.1238
     18 C15         0.6525   -2.4748    2.6589 C.ar      1 <0>        -0.0908
     19 C16         0.7020   -2.0462    1.2178 C.3       1 <0>         0.2293
     20 H1          1.6969   -2.3259    0.8715 H         1 <0>         0.0579
     21 C17         0.7034   -0.5254    1.1756 C.3       1 <0>         0.0547
     22 H2          1.0047    1.8421    0.0024 H         1 <0>         0.0713
     23 H3         -0.5450    1.8259   -0.8730 H         1 <0>         0.0737
     24 H4         -0.5280    1.8163    0.9069 H         1 <0>         0.0282
     25 H5         -1.8068   -0.4882    0.9835 H         1 <0>         0.0458
     26 H6         -1.9829   -0.0007   -0.7257 H         1 <0>         0.0907
     27 H7         -2.2131   -2.5122   -0.2709 H         1 <0>         0.0539
     28 H8         -1.0139   -2.0603   -1.5025 H         1 <0>         0.0678
     29 H9         -0.2394   -7.0394    1.7068 H         1 <0>         0.1364
     30 H10         0.4764   -7.7717   -0.5656 H         1 <0>         0.1367
     31 H11         0.7392   -6.0916   -2.3414 H         1 <0>         0.1559
     32 H12        -1.8406   -3.9771    2.2077 H         1 <0>         0.0849
     33 H13        -1.1129   -5.3527    3.0467 H         1 <0>         0.0801
     34 H14        -0.3687   -4.7265    4.9310 H         1 <0>         0.1207
     35 H15         0.9929   -3.3315    6.4106 H         1 <0>         0.1241
     36 H16         2.1272   -1.3304    5.4992 H         1 <0>         0.1247
     37 H17         1.9097   -0.7985    3.1202 H         1 <0>         0.1225
     38 H18         1.7347   -0.1731    1.1568 H         1 <0>         0.0868
     39 H19         0.2182   -0.1462    2.0750 H         1 <0>         0.0458
@<TRIPOS>BOND
     1    1    2 1
     2    1   22 1
     3    1   23 1
     4    1   24 1
     5    2   21 1
     6    2    3 1
     7    3    4 1
     8    3   25 1
     9    3   26 1
    10    4    5 1
    11    4   27 1
    12    4   28 1
    13    5   19 1
    14    5    6 1
    15    6   11 ar
    16    6    7 ar
    17    7    8 ar
    18    7   12 1
    19    8    9 ar
    20    8   29 1
    21    9   10 ar
    22    9   30 1
    23   10   11 ar
    24   10   31 1
    25   12   13 1
    26   12   32 1
    27   12   33 1
    28   13   18 ar
    29   13   14 ar
    30   14   15 ar
    31   14   34 1
    32   15   16 ar
    33   15   35 1
    34   16   17 ar
    35   16   36 1
    36   17   18 ar
    37   17   37 1
    38   18   19 1
    39   19   20 1
    40   19   21 1
    41   21   38 1
    42   21   39 1
@<TRIPOS>MOLECULE
ZINC00120144
   25    26     0     0     0
SMALL
USER_CHARGES

@<TRIPOS>ATOM
      1 C1         -0.0165    1.3620    0.0095 C.ar      1 <0>        -0.1317
      2 C2          1.1697    2.0834    0.0021 C.ar      1 <0>        -0.0931
      3 C3          2.3856    1.4362   -0.0134 C.ar      1 <0>        -0.1213
      4 C4          2.4281    0.0456   -0.0212 C.ar      1 <0>         0.0938
      5 C5          1.2234   -0.6807   -0.0132 C.ar      1 <0>        -0.1015
      6 C6          0.0021   -0.0041    0.0020 C.ar      1 <0>        -0.0852
      7 C7          1.6036   -2.0953   -0.0245 C.2       1 <0>        -0.2088
      8 C8          2.9451   -2.1410   -0.0380 C.2       1 <0>         0.0855
      9 N1          3.4551   -0.8713   -0.0363 N.pl3     1 <0>        -0.5877
     10 H1          4.3995   -0.6501   -0.0442 H         1 <0>         0.4235
     11 C9          0.6664   -3.2754   -0.0210 C.3       1 <0>        -0.0608
     12 C10         0.2361   -3.5891   -1.4554 C.3       1 <0>        -0.0081
     13 N2         -0.6775   -4.7395   -1.4520 N.4       1 <0>        -0.6388
     14 H2         -0.9613    1.8849    0.0259 H         1 <0>         0.1276
     15 H3          1.1388    3.1630    0.0081 H         1 <0>         0.1321
     16 H4          3.3028    2.0064   -0.0198 H         1 <0>         0.1260
     17 H5         -0.9246   -0.5587    0.0082 H         1 <0>         0.1181
     18 H6          3.5346   -3.0459   -0.0490 H         1 <0>         0.1733
     19 H7          1.1742   -4.1414    0.4036 H         1 <0>         0.0916
     20 H8         -0.2127   -3.0396    0.5787 H         1 <0>         0.0920
     21 H9         -0.2717   -2.7231   -1.8800 H         1 <0>         0.1335
     22 H10         1.1152   -3.8250   -2.0551 H         1 <0>         0.1327
     23 H11        -0.9613   -4.9464   -2.3979 H         1 <0>         0.4379
     24 H12        -0.2074   -5.5412   -1.0590 H         1 <0>         0.4345
     25 H13        -1.4912   -4.5212   -0.8969 H         1 <0>         0.4350
@<TRIPOS>BOND
     1    1    6 ar
     2    1    2 ar
     3    1   14 1
     4    2    3 ar
     5    2   15 1
     6    3    4 ar
     7    3   16 1
     8    4    9 1
     9    4    5 ar
    10    5    6 ar
    11    5    7 1
    12    6   17 1
    13    7    8 2
    14    7   11 1
    15    8    9 1
    16    8   18 1
    17    9   10 1
    18   11   12 1
    19   11   19 1
    20   11   20 1
    21   12   13 1
    22   12   21 1
    23   12   22 1
    24   13   23 1
    25   13   24 1
    26   13   25 1
@<TRIPOS>MOLECULE
ZINC13779795
   29    30     0     0     0
SMALL
USER_CHARGES
2-[(3-methoxyphenyl)methyl]-4,5-dihydro-1H-imidazole
@<TRIPOS>ATOM
      1 C1          0.0021   -0.0041    0.0020 C.3       1 <0>         0.0221
      2 O1         -0.0173    1.4248    0.0099 O.3       1 <0>        -0.3121
      3 C2          1.1850    2.0582    0.0018 C.ar      1 <0>         0.1385
      4 C3          2.3596    1.3195   -0.0077 C.ar      1 <0>        -0.1871
      5 C4          3.5803    1.9657   -0.0221 C.ar      1 <0>        -0.0695
      6 C5          3.6326    3.3475   -0.0147 C.ar      1 <0>        -0.1454
      7 C6          2.4638    4.0857    0.0004 C.ar      1 <0>        -0.1038
      8 C7          1.2402    3.4442    0.0087 C.ar      1 <0>        -0.1430
      9 C8          2.5245    5.5915    0.0074 C.3       1 <0>        -0.0602
     10 C9          2.5581    6.0863    1.4305 C.cat     1 <0>         0.5162
     11 C10         2.5793    6.0671    3.6899 C.3       1 <0>         0.0490
     12 C11         2.6331    7.5337    3.2162 C.3       1 <0>         0.0670
     13 N1          2.6197    7.4100    1.7486 N.pl3     1 <0>        -0.6658
     14 H1          0.5293   -0.3651    0.8851 H         1 <0>         0.0610
     15 H2         -1.0205   -0.3814    0.0098 H         1 <0>         0.1098
     16 H3          0.5123   -0.3556   -0.8948 H         1 <0>         0.0625
     17 H4          2.3193    0.2403   -0.0082 H         1 <0>         0.1395
     18 H5          4.4947    1.3912   -0.0343 H         1 <0>         0.1378
     19 H6          4.5881    3.8509   -0.0212 H         1 <0>         0.1326
     20 H7          0.3274    4.0213    0.0202 H         1 <0>         0.1384
     21 H8          3.4235    5.9213   -0.5132 H         1 <0>         0.1447
     22 H9          1.6451    5.9929   -0.4961 H         1 <0>         0.1438
     23 H10         1.6810    5.8885    4.2809 H         1 <0>         0.1276
     24 H11         3.4706    5.8153    4.2647 H         1 <0>         0.1279
     25 H12         1.7607    8.0844    3.5680 H         1 <0>         0.1219
     26 H13         3.5518    8.0140    3.5531 H         1 <0>         0.1218
     27 H14         2.6477    8.1452    1.1165 H         1 <0>         0.4584
     28 N2          2.5362    5.2907    2.4394 N.pl3     1 <0>        -0.6086
     29 H15         2.4948    4.2664    2.3821 H         1 <0>         0.4750
@<TRIPOS>BOND
     1    1    2 1
     2    1   14 1
     3    1   15 1
     4    1   16 1
     5    2    3 1
     6    3    8 ar
     7    3    4 ar
     8    4    5 ar
     9    4   17 1
    10    5    6 ar
    11    5   18 1
    12    6    7 ar
    13    6   19 1
    14    7    8 ar
    15    7    9 1
    16    8   20 1
    17    9   10 1
    18    9   21 1
    19    9   22 1
    20   10   13 1
    21   10   28 2
    22   11   12 1
    23   11   23 1
    24   11   24 1
    25   11   28 1
    26   12   13 1
    27   12   25 1
    28   12   26 1
    29   13   27 1
    30   28   29 1
@<TRIPOS>MOLECULE
ZINC03828610
   62    65     0     0     0
SMALL
USER_CHARGES
1-[2-[4-(4-methoxyphenyl)piperazin-1-yl]ethyl]-N-methyl-isochroman-6-carboxamide
@<TRIPOS>ATOM
      1 C1         -2.8529   -7.5128   14.6952 C.3       1 <0>         0.0839
      2 N1         -1.8311   -6.9279   13.8233 N.am      1 <0>        -0.7288
      3 C2         -0.7235   -7.6319   13.5167 C.2       1 <0>         0.5514
      4 O1         -0.5723   -8.7521   13.9637 O.2       1 <0>        -0.5258
      5 C3          0.3077   -7.0417   12.6369 C.ar      1 <0>        -0.1180
      6 C4          0.1386   -5.7557   12.1206 C.ar      1 <0>        -0.0879
      7 C5          1.1062   -5.2150   11.3028 C.ar      1 <0>        -0.1196
      8 C6          2.2479   -5.9390   10.9878 C.ar      1 <0>        -0.1055
      9 C7          2.4191   -7.2125   11.4933 C.ar      1 <0>        -0.0688
     10 C8          1.4551   -7.7657   12.3168 C.ar      1 <0>        -0.0537
     11 C9          3.6446   -8.0277   11.1663 C.3       1 <0>        -0.1217
     12 C10         4.7416   -7.1149   10.6157 C.3       1 <0>         0.0627
     13 O2          4.1749   -6.2939    9.5882 O.3       1 <0>        -0.3749
     14 C11         3.2800   -5.3032   10.0924 C.3       1 <0>         0.1393
     15 H1          3.8434   -4.5647   10.6627 H         1 <0>         0.0844
     16 C12         2.5782   -4.6116    8.9219 C.3       1 <0>        -0.1421
     17 C13         3.6084   -3.8437    8.0913 C.3       1 <0>        -0.0020
     18 C14         3.8421   -2.2451    6.2872 C.3       1 <0>         0.0036
     19 C15         3.0816   -1.5174    5.1761 C.3       1 <0>         0.0202
     20 N2          2.5394   -2.5030    4.2305 N.pl3     1 <0>        -0.4816
     21 C16         1.6319   -3.4375    4.9108 C.3       1 <0>         0.0249
     22 C17         2.3924   -4.1652    6.0218 C.3       1 <0>        -0.0009
     23 C18         1.8975   -1.8704    3.1599 C.ar      1 <0>         0.0446
     24 C19         1.3154   -2.6288    2.1527 C.ar      1 <0>        -0.0853
     25 C20         0.6817   -2.0036    1.0968 C.ar      1 <0>        -0.1265
     26 C21         0.6263   -0.6188    1.0423 C.ar      1 <0>         0.1265
     27 C22         1.2120    0.1395    2.0451 C.ar      1 <0>        -0.1843
     28 C23         1.8419   -0.4840    3.1043 C.ar      1 <0>        -0.1193
     29 O3          0.0021   -0.0041    0.0020 O.3       1 <0>        -0.3131
     30 C24        -0.0173    1.4248    0.0099 C.3       1 <0>         0.0245
     31 H2         -2.4128   -7.7466   15.6646 H         1 <0>         0.0652
     32 H3         -3.6677   -6.8011   14.8282 H         1 <0>         0.0807
     33 H4         -3.2384   -8.4258   14.2415 H         1 <0>         0.0650
     34 H5         -1.9518   -6.0340   13.4666 H         1 <0>         0.4006
     35 H6         -0.7476   -5.1871   12.3612 H         1 <0>         0.1312
     36 H7          0.9757   -4.2199   10.9038 H         1 <0>         0.1289
     37 H8          1.5916   -8.7613   12.7124 H         1 <0>         0.1430
     38 H9          3.3907   -8.7803   10.4199 H         1 <0>         0.0939
     39 H10         4.0029   -8.5202   12.0703 H         1 <0>         0.0961
     40 H11         5.5467   -7.7200   10.1987 H         1 <0>         0.1112
     41 H12         5.1297   -6.4846   11.4158 H         1 <0>         0.0634
     42 H13         1.8304   -3.9175    9.3054 H         1 <0>         0.1024
     43 H14         2.0921   -5.3601    8.2961 H         1 <0>         0.1003
     44 H15         4.3562   -4.5378    7.7078 H         1 <0>         0.1426
     45 H16         4.0945   -3.0952    8.7170 H         1 <0>         0.1312
     46 H17         4.6763   -2.7979    5.8550 H         1 <0>         0.1416
     47 H18         4.2205   -1.5178    7.0054 H         1 <0>         0.1372
     48 H19         3.7600   -0.8448    4.6513 H         1 <0>         0.1285
     49 H20         2.2639   -0.9426    5.6109 H         1 <0>         0.0691
     50 H21         0.7977   -2.8847    5.3429 H         1 <0>         0.0673
     51 H22         1.2535   -4.1648    4.1925 H         1 <0>         0.1273
     52 H23         3.2101   -4.7398    5.5867 H         1 <0>         0.1425
     53 H24         1.7143   -4.8380    6.5467 H         1 <0>         0.1370
     54 H25         1.3578   -3.7071    2.1954 H         1 <0>         0.1351
     55 H26         0.2289   -2.5933    0.3134 H         1 <0>         0.1404
     56 H27         1.1723    1.2178    1.9995 H         1 <0>         0.1349
     57 H28         2.2944    0.1065    3.8872 H         1 <0>         0.1290
     58 H29         1.0053    1.8021    0.0021 H         1 <0>         0.0586
     59 H30        -0.5445    1.7859   -0.8732 H         1 <0>         0.1069
     60 H31        -0.5275    1.7763    0.9067 H         1 <0>         0.0575
     61 N3          2.9131   -3.1646    6.9771 N.4       1 <0>        -0.3977
     62 H32         2.1269   -2.6231    7.3551 H         1 <0>         0.4230
@<TRIPOS>BOND
     1    1    2 1
     2    1   31 1
     3    1   32 1
     4    1   33 1
     5    2    3 am
     6    2   34 1
     7    3    4 2
     8    3    5 1
     9    5   10 ar
    10    5    6 ar
    11    6    7 ar
    12    6   35 1
    13    7    8 ar
    14    7   36 1
    15    8   14 1
    16    8    9 ar
    17    9   10 ar
    18    9   11 1
    19   10   37 1
    20   11   12 1
    21   11   38 1
    22   11   39 1
    23   12   13 1
    24   12   40 1
    25   12   41 1
    26   13   14 1
    27   14   15 1
    28   14   16 1
    29   16   17 1
    30   16   42 1
    31   16   43 1
    32   17   44 1
    33   17   45 1
    34   17   61 1
    35   18   19 1
    36   18   46 1
    37   18   47 1
    38   18   61 1
    39   19   20 1
    40   19   48 1
    41   19   49 1
    42   20   21 1
    43   20   23 1
    44   21   22 1
    45   21   50 1
    46   21   51 1
    47   22   52 1
    48   22   53 1
    49   22   61 1
    50   23   28 ar
    51   23   24 ar
    52   24   25 ar
    53   24   54 1
    54   25   26 ar
    55   25   55 1
    56   26   27 ar
    57   26   29 1
    58   27   28 ar
    59   27   56 1
    60   28   57 1
    61   29   30 1
    62   30   58 1
    63   30   59 1
    64   30   60 1
    65   61   62 1
