@<TRIPOS>MOLECULE
ZINC00014360
   42    43     0     0     0
SMALL
USER_CHARGES

@<TRIPOS>ATOM
      1 C1         -0.0178    1.4608    0.0101 C.3       1 <0>         0.0793
      2 N1          0.0021   -0.0041    0.0020 N.pl3     1 <0>        -1.1235
      3 S1          0.7421   -0.8289    1.2326 S.o2      1 <0>         2.6084
      4 O1          0.5924   -2.2002    0.8914 O.2       1 <0>        -0.9468
      5 O2          2.0334   -0.2448    1.3355 O.2       1 <0>        -0.9510
      6 C2         -0.2382   -0.4417    2.7090 C.3       1 <0>        -0.5828
      7 C3          0.3516   -1.1474    3.9028 C.ar      1 <0>        -0.1049
      8 C4         -0.0784   -2.4267    4.2282 C.ar      1 <0>        -0.0826
      9 C5          0.4473   -3.0893    5.3155 C.ar      1 <0>        -0.1137
     10 C6          1.4193   -2.4726    6.0968 C.ar      1 <0>         0.1042
     11 C7          1.8519   -1.1765    5.7625 C.ar      1 <0>        -0.0991
     12 C8          1.3091   -0.5253    4.6530 C.ar      1 <0>        -0.0640
     13 C9          2.8614   -0.8166    6.7612 C.2       1 <0>        -0.2000
     14 C10         2.9754   -1.8603    7.5977 C.2       1 <0>         0.0879
     15 N2          2.1214   -2.8591    7.2163 N.pl3     1 <0>        -0.5851
     16 H1          2.0253   -3.7124    7.6673 H         1 <0>         0.4255
     17 C11         3.6270    0.4793    6.8351 C.3       1 <0>        -0.0627
     18 C12         2.7992    1.5182    7.5943 C.3       1 <0>        -0.0095
     19 N3          3.5455    2.7814    7.6664 N.4       1 <0>        -0.3881
     20 C13         3.7116    3.3299    6.3138 C.3       1 <0>        -0.0545
     21 C14         2.8051    3.7410    8.4964 C.3       1 <0>        -0.0469
     22 H2          1.0048    1.8381    0.0023 H         1 <0>         0.0693
     23 H3         -0.5450    1.8219   -0.8730 H         1 <0>         0.0876
     24 H4         -0.5280    1.8123    0.9069 H         1 <0>         0.0574
     25 H5         -0.4183   -0.4908   -0.7241 H         1 <0>         0.4222
     26 H6         -0.2266    0.6346    2.8808 H         1 <0>         0.1378
     27 H7         -1.2653   -0.7750    2.5608 H         1 <0>         0.1453
     28 H8         -0.8329   -2.9072    3.6230 H         1 <0>         0.1399
     29 H9          0.1057   -4.0841    5.5609 H         1 <0>         0.1340
     30 H10         1.6421    0.4681    4.3911 H         1 <0>         0.1262
     31 H11         3.6421   -1.9048    8.4461 H         1 <0>         0.1761
     32 H12         4.5701    0.3149    7.3563 H         1 <0>         0.0931
     33 H13         3.8275    0.8410    5.8266 H         1 <0>         0.0945
     34 H14         1.8561    1.6826    7.0732 H         1 <0>         0.1293
     35 H15         2.5988    1.1565    8.6029 H         1 <0>         0.1303
     36 H16         4.2654    4.2672    6.3673 H         1 <0>         0.1245
     37 H17         4.2611    2.6179    5.6980 H         1 <0>         0.1265
     38 H18         2.7316    3.5116    5.8726 H         1 <0>         0.1219
     39 H19         2.6818    3.3340    9.5001 H         1 <0>         0.1225
     40 H20         3.3588    4.6783    8.5499 H         1 <0>         0.1241
     41 H21         1.8251    3.9226    8.0552 H         1 <0>         0.1209
     42 H22         4.4527    2.6132    8.0749 H         1 <0>         0.4266
@<TRIPOS>BOND
     1    1    2 1
     2    1   22 1
     3    1   23 1
     4    1   24 1
     5    2    3 1
     6    2   25 1
     7    3    4 2
     8    3    5 2
     9    3    6 1
    10    6    7 1
    11    6   26 1
    12    6   27 1
    13    7   12 ar
    14    7    8 ar
    15    8    9 ar
    16    8   28 1
    17    9   10 ar
    18    9   29 1
    19   10   15 1
    20   10   11 ar
    21   11   12 ar
    22   11   13 1
    23   12   30 1
    24   13   14 2
    25   13   17 1
    26   14   15 1
    27   14   31 1
    28   15   16 1
    29   17   18 1
    30   17   32 1
    31   17   33 1
    32   18   19 1
    33   18   34 1
    34   18   35 1
    35   19   20 1
    36   19   21 1
    37   19   42 1
    38   20   36 1
    39   20   37 1
    40   20   38 1
    41   21   39 1
    42   21   40 1
    43   21   41 1
@<TRIPOS>MOLECULE
ZINC19376338
   32    34     0     0     0
SMALL
USER_CHARGES

@<TRIPOS>ATOM
      1 C1         -0.0239    1.3370    0.2441 C.ar      1 <0>        -0.1256
      2 C2          1.1550    2.0478    0.4568 C.ar      1 <0>        -0.0782
      3 C3          2.3643    1.4231    0.4379 C.ar      1 <0>        -0.1141
      4 C4          2.4311    0.0393    0.2011 C.ar      1 <0>         0.1744
      5 C5          1.2312   -0.6814   -0.0144 C.ar      1 <0>        -0.1375
      6 C6          0.0018   -0.0048    0.0116 C.ar      1 <0>        -0.0809
      7 C7          1.2976   -2.0694   -0.2519 C.ar      1 <0>        -0.0096
      8 C8          2.5231   -2.6645   -0.2643 C.ar      1 <0>        -0.2222
      9 C9          3.6751   -1.8960   -0.0441 C.ar      1 <0>         0.4150
     10 N1          3.6064   -0.5993    0.1777 N.ar      1 <0>        -0.5363
     11 N2          4.9157   -2.5156   -0.0597 N.pl3     1 <0>        -0.6266
     12 C10         6.1561   -1.7247   -0.0617 C.3       1 <0>         0.1015
     13 C11         7.0719   -2.2550    1.0465 C.3       1 <0>        -0.0225
     14 N3          7.2730   -3.6982    0.8653 N.4       1 <0>        -0.5046
     15 C12         5.9976   -4.4059    1.0344 C.3       1 <0>        -0.0221
     16 C13         5.0286   -3.9823   -0.0687 C.3       1 <0>         0.0992
     17 H1         -0.9708    1.8557    0.2683 H         1 <0>         0.1324
     18 H2          1.1089    3.1113    0.6392 H         1 <0>         0.1343
     19 H3          3.2692    1.9888    0.6039 H         1 <0>         0.1349
     20 H4         -0.9189   -0.5453   -0.1515 H         1 <0>         0.1333
     21 H5          0.4000   -2.6463   -0.4193 H         1 <0>         0.1464
     22 H6          2.6072   -3.7262   -0.4432 H         1 <0>         0.1365
     23 H7          6.6530   -1.8250   -1.0266 H         1 <0>         0.0880
     24 H8          5.9227   -0.6768    0.1263 H         1 <0>         0.1390
     25 H9          8.0340   -1.7450    0.9980 H         1 <0>         0.1449
     26 H10         6.6116   -2.0712    2.0173 H         1 <0>         0.1341
     27 H11         7.6328   -3.8727   -0.0611 H         1 <0>         0.4286
     28 H12         6.1681   -5.4809    0.9769 H         1 <0>         0.1469
     29 H13         5.5698   -4.1571    2.0056 H         1 <0>         0.1344
     30 H14         4.0501   -4.4261    0.1146 H         1 <0>         0.1284
     31 H15         5.4097   -4.3144   -1.0344 H         1 <0>         0.0943
     32 H16         7.9351   -4.0327    1.5492 H         1 <0>         0.4339
@<TRIPOS>BOND
     1    1    6 ar
     2    1    2 ar
     3    1   17 1
     4    2    3 ar
     5    2   18 1
     6    3    4 ar
     7    3   19 1
     8    4   10 ar
     9    4    5 ar
    10    5    6 ar
    11    5    7 ar
    12    6   20 1
    13    7    8 ar
    14    7   21 1
    15    8    9 ar
    16    8   22 1
    17    9   10 ar
    18    9   11 1
    19   11   16 1
    20   11   12 1
    21   12   13 1
    22   12   23 1
    23   12   24 1
    24   13   14 1
    25   13   25 1
    26   13   26 1
    27   14   15 1
    28   14   27 1
    29   14   32 1
    30   15   16 1
    31   15   28 1
    32   15   29 1
    33   16   30 1
    34   16   31 1
@<TRIPOS>MOLECULE
ZINC02516018
   42    45     0     0     0
SMALL
USER_CHARGES

@<TRIPOS>ATOM
      1 C1         -0.1860    1.3185   -0.8853 C.3       1 <0>        -0.0470
      2 N1         -0.0797   -0.0752   -0.4333 N.4       1 <0>        -0.3855
      3 C2          0.1907   -0.9426   -1.5868 C.3       1 <0>        -0.0219
      4 C3          0.1880   -2.4068   -1.1352 C.3       1 <0>         0.1040
      5 N2          1.1441   -2.5548   -0.0269 N.pl3     1 <0>        -0.6096
      6 C4          1.0479   -1.6159    1.1015 C.3       1 <0>         0.0886
      7 C5          1.0100   -0.1890    0.5444 C.3       1 <0>        -0.0219
      8 C6          2.1048   -3.5477   -0.0452 C.2       1 <0>         0.4845
      9 C7          2.7058   -4.0075    1.2067 C.2       1 <0>        -0.0476
     10 C8          2.5234   -3.6518    2.5251 C.2       1 <0>        -0.1441
     11 C9          3.3872   -4.4452    3.2875 C.2       1 <0>        -0.1659
     12 C10         4.0677   -5.2545    2.4395 C.2       1 <0>         0.0202
     13 N3          3.6637   -4.9997    1.1696 N.pl3     1 <0>        -0.3550
     14 C11         4.0278   -5.5327   -0.0637 C.ar      1 <0>         0.0977
     15 C12         4.9878   -6.5325   -0.1372 C.ar      1 <0>        -0.1121
     16 C13         5.3451   -7.0580   -1.3623 C.ar      1 <0>        -0.0561
     17 C14         4.7502   -6.5931   -2.5249 C.ar      1 <0>        -0.1673
     18 C15         3.7965   -5.6017   -2.4718 C.ar      1 <0>        -0.0269
     19 C16         3.4219   -5.0578   -1.2370 C.ar      1 <0>         0.1239
     20 N4          2.4755   -4.0835   -1.1873 N.2       1 <0>        -0.5424
     21 C17         5.1504   -7.1764   -3.8556 C.3       1 <0>         0.5116
     22 F1          6.1269   -8.1588   -3.6594 F         1 <0>        -0.1706
     23 F2          4.0309   -7.7478   -4.4699 F         1 <0>        -0.1713
     24 F3          5.6649   -6.1641   -4.6727 F         1 <0>        -0.1719
     25 H1          0.7524    1.6227   -1.3490 H         1 <0>         0.1220
     26 H2         -0.9946    1.4044   -1.6111 H         1 <0>         0.1262
     27 H3         -0.3946    1.9626   -0.0310 H         1 <0>         0.1260
     28 H4         -0.5809   -0.7939   -2.3422 H         1 <0>         0.1448
     29 H5          1.1648   -0.6940   -2.0081 H         1 <0>         0.1348
     30 H6         -0.8104   -2.6840   -0.7971 H         1 <0>         0.0940
     31 H7          0.4876   -3.0467   -1.9652 H         1 <0>         0.1392
     32 H8          0.1362   -1.8132    1.6655 H         1 <0>         0.0999
     33 H9          1.9160   -1.7328    1.7503 H         1 <0>         0.1385
     34 H10         1.9592    0.0368    0.0586 H         1 <0>         0.1339
     35 H11         0.8421    0.5150    1.3593 H         1 <0>         0.1467
     36 H12         1.8423   -2.9018    2.8993 H         1 <0>         0.1549
     37 H13         3.4934   -4.4176    4.3619 H         1 <0>         0.1612
     38 H14         4.8108   -5.9833    2.7278 H         1 <0>         0.1810
     39 H15         5.4555   -6.8990    0.7646 H         1 <0>         0.1481
     40 H16         6.0927   -7.8356   -1.4155 H         1 <0>         0.1560
     41 H17         3.3377   -5.2438   -3.3817 H         1 <0>         0.1538
     42 H18        -0.9478   -0.3546   -0.0016 H         1 <0>         0.4256
@<TRIPOS>BOND
     1    1    2 1
     2    1   25 1
     3    1   26 1
     4    1   27 1
     5    2    7 1
     6    2    3 1
     7    2   42 1
     8    3    4 1
     9    3   28 1
    10    3   29 1
    11    4    5 1
    12    4   30 1
    13    4   31 1
    14    5    6 1
    15    5    8 1
    16    6    7 1
    17    6   32 1
    18    6   33 1
    19    7   34 1
    20    7   35 1
    21    8   20 2
    22    8    9 1
    23    9   13 1
    24    9   10 2
    25   10   11 1
    26   10   36 1
    27   11   12 2
    28   11   37 1
    29   12   13 1
    30   12   38 1
    31   13   14 1
    32   14   19 ar
    33   14   15 ar
    34   15   16 ar
    35   15   39 1
    36   16   17 ar
    37   16   40 1
    38   17   18 ar
    39   17   21 1
    40   18   19 ar
    41   18   41 1
    42   19   20 1
    43   21   22 1
    44   21   23 1
    45   21   24 1
@<TRIPOS>MOLECULE
ZINC02516018
   41    44     0     0     0
SMALL
USER_CHARGES

@<TRIPOS>ATOM
      1 C1         -0.1164    1.3382    0.8434 C.3       1 <0>         0.0241
      2 N1         -0.0480   -0.0683    0.4251 N.3       1 <0>        -0.5421
      3 C2          0.9240   -0.2477   -0.6616 C.3       1 <0>         0.0380
      4 C3          0.8354   -1.6834   -1.1900 C.3       1 <0>         0.1350
      5 N2          0.9912   -2.6085   -0.0572 N.pl3     1 <0>        -0.5914
      6 C4          0.1441   -2.4063    1.1280 C.3       1 <0>         0.1130
      7 C5          0.2600   -0.9422    1.5651 C.3       1 <0>         0.0374
      8 C6          1.9088   -3.6406   -0.1055 C.2       1 <0>         0.4952
      9 C7          2.5321   -4.1237    1.1264 C.2       1 <0>        -0.0389
     10 C8          2.4093   -3.7594    2.4494 C.2       1 <0>        -0.1413
     11 C9          3.2648   -4.5872    3.1841 C.2       1 <0>        -0.1716
     12 C10         3.8820   -5.4249    2.3156 C.2       1 <0>         0.0082
     13 N3          3.4463   -5.1549    1.0594 N.pl3     1 <0>        -0.3564
     14 C11         3.7460   -5.7037   -0.1842 C.ar      1 <0>         0.0844
     15 C12         4.6606   -6.7426   -0.2876 C.ar      1 <0>        -0.1096
     16 C13         4.9541   -7.2838   -1.5228 C.ar      1 <0>        -0.0739
     17 C14         4.3400   -6.7958   -2.6658 C.ar      1 <0>        -0.1692
     18 C15         3.4307   -5.7656   -2.5829 C.ar      1 <0>        -0.0360
     19 C16         3.1210   -5.2053   -1.3374 C.ar      1 <0>         0.1422
     20 N4          2.2180   -4.1925   -1.2582 N.2       1 <0>        -0.5575
     21 C17         4.6704   -7.3966   -4.0078 C.3       1 <0>         0.5124
     22 F1          5.6114   -8.4185   -3.8423 F         1 <0>        -0.1745
     23 F2          3.5080   -7.9216   -4.5826 F         1 <0>        -0.1732
     24 F3          5.1985   -6.4074   -4.8443 F         1 <0>        -0.1734
     25 H1          0.8426    1.6389    1.2652 H         1 <0>         0.0270
     26 H2         -0.3457    1.9632   -0.0197 H         1 <0>         0.0715
     27 H3         -0.8969    1.4561    1.5951 H         1 <0>         0.0720
     28 H4          0.7011    0.4511   -1.4679 H         1 <0>         0.0913
     29 H5          1.9295   -0.0602   -0.2849 H         1 <0>         0.0392
     30 H6         -0.1350   -1.8410   -1.6607 H         1 <0>         0.0775
     31 H7          1.6300   -1.8561   -1.9158 H         1 <0>         0.0931
     32 H8         -0.8927   -2.6335    0.8801 H         1 <0>         0.0813
     33 H9          0.4817   -3.0571    1.9346 H         1 <0>         0.1005
     34 H10         1.2747   -0.7450    1.9108 H         1 <0>         0.0425
     35 H11        -0.4445   -0.7471    2.3736 H         1 <0>         0.0918
     36 H12         1.7731   -2.9813    2.8446 H         1 <0>         0.1559
     37 H13         3.4083   -4.5629    4.2543 H         1 <0>         0.1563
     38 H14         4.6036   -6.1837    2.5804 H         1 <0>         0.1758
     39 H15         5.1430   -7.1274    0.5988 H         1 <0>         0.1424
     40 H16         5.6666   -8.0919   -1.5994 H         1 <0>         0.1495
     41 H17         2.9566   -5.3898   -3.4776 H         1 <0>         0.1515
@<TRIPOS>BOND
     1    1    2 1
     2    1   25 1
     3    1   26 1
     4    1   27 1
     5    2    7 1
     6    2    3 1
     7    3    4 1
     8    3   28 1
     9    3   29 1
    10    4    5 1
    11    4   30 1
    12    4   31 1
    13    5    6 1
    14    5    8 1
    15    6    7 1
    16    6   32 1
    17    6   33 1
    18    7   34 1
    19    7   35 1
    20    8   20 2
    21    8    9 1
    22    9   13 1
    23    9   10 2
    24   10   11 1
    25   10   36 1
    26   11   12 2
    27   11   37 1
    28   12   13 1
    29   12   38 1
    30   13   14 1
    31   14   19 ar
    32   14   15 ar
    33   15   16 ar
    34   15   39 1
    35   16   17 ar
    36   16   40 1
    37   17   18 ar
    38   17   21 1
    39   18   19 ar
    40   18   41 1
    41   19   20 1
    42   21   22 1
    43   21   23 1
    44   21   24 1
@<TRIPOS>MOLECULE
ZINC03984030
   58    63     0     0     0
SMALL
USER_CHARGES
8-[5-(5,7-dihydroxy-4-oxo-chromen-2-yl)-2-hydroxy-phenyl]-5,7-dihydroxy-2-(4-hydroxyphenyl)chromen-4-one
@<TRIPOS>ATOM
      1 C1         -6.6020    1.8042    6.0990 C.ar      1 <0>        -0.0607
      2 C2         -5.9382    1.4440    7.2507 C.ar      1 <0>        -0.1468
      3 C3         -4.7115    0.7954    7.1742 C.ar      1 <0>         0.1378
      4 C4         -4.1521    0.5021    5.9364 C.ar      1 <0>        -0.1491
      5 C5         -4.8118    0.8534    4.7796 C.ar      1 <0>        -0.0601
      6 C6         -6.0457    1.5059    4.8519 C.ar      1 <0>        -0.0854
      7 C7         -6.7560    1.8841    3.6156 C.2       1 <0>         0.2075
      8 C8         -7.9553    2.5182    3.7175 C.2       1 <0>        -0.3096
      9 C9         -8.6505    2.8878    2.5419 C.2       1 <0>         0.4236
     10 O1         -9.7281    3.4581    2.5954 O.2       1 <0>        -0.4510
     11 C10        -8.0226    2.5578    1.2508 C.ar      1 <0>        -0.2639
     12 C11        -8.6408    2.8871    0.0370 C.ar      1 <0>         0.2260
     13 C12        -8.0238    2.5633   -1.1580 C.ar      1 <0>        -0.2031
     14 C13        -6.7962    1.9146   -1.1593 C.ar      1 <0>         0.2147
     15 C14        -6.1693    1.5806    0.0441 C.ar      1 <0>        -0.1114
     16 C15        -6.7847    1.8965    1.2584 C.ar      1 <0>         0.1942
     17 O2         -6.1949    1.5893    2.4322 O.3       1 <0>        -0.2149
     18 C16        -4.8586    0.8881    0.0326 C.ar      1 <0>        -0.0643
     19 C17        -3.6811    1.6258    0.0345 C.ar      1 <0>        -0.0359
     20 C18        -2.4507    0.9671    0.0193 C.ar      1 <0>        -0.0795
     21 C19        -2.4076   -0.4306    0.0120 C.ar      1 <0>        -0.0561
     22 C20        -3.5773   -1.1593    0.0145 C.ar      1 <0>        -0.1433
     23 C21        -4.8042   -0.5114    0.0247 C.ar      1 <0>         0.1513
     24 O3         -5.9530   -1.2346    0.0276 O.3       1 <0>        -0.4914
     25 C22        -1.1969    1.7446    0.0172 C.2       1 <0>         0.2090
     26 C23        -0.0126    1.0758    0.0080 C.2       1 <0>        -0.3096
     27 C24         1.2002    1.8049    0.0003 C.2       1 <0>         0.4229
     28 O4          2.2808    1.2378   -0.0122 O.2       1 <0>        -0.4531
     29 C25         1.1075    3.2746    0.0085 C.ar      1 <0>        -0.2660
     30 C26         2.2563    4.0758    0.0013 C.ar      1 <0>         0.2193
     31 C27         2.1265    5.4522    0.0089 C.ar      1 <0>        -0.2047
     32 C28         0.8637    6.0348    0.0232 C.ar      1 <0>         0.1929
     33 C29        -0.2774    5.2478    0.0309 C.ar      1 <0>        -0.1830
     34 C30        -0.1673    3.8660    0.0234 C.ar      1 <0>         0.1835
     35 O5         -1.2685    3.0851    0.0294 O.3       1 <0>        -0.2179
     36 O6          0.7475    7.3873    0.0302 O.3       1 <0>        -0.4872
     37 O7          3.4876    3.5054   -0.0136 O.3       1 <0>        -0.4723
     38 O8         -6.2009    1.6021   -2.3382 O.3       1 <0>        -0.4809
     39 O9         -9.8401    3.5219    0.0339 O.3       1 <0>        -0.4713
     40 O10        -4.0576    0.4477    8.3120 O.3       1 <0>        -0.4966
     41 H1         -7.5530    2.3125    6.1593 H         1 <0>         0.1416
     42 H2         -6.3694    1.6701    8.2147 H         1 <0>         0.1417
     43 H3         -3.1984   -0.0018    5.8814 H         1 <0>         0.1389
     44 H4         -4.3761    0.6254    3.8180 H         1 <0>         0.1375
     45 H5         -8.3735    2.7383    4.6886 H         1 <0>         0.1643
     46 H6         -8.4990    2.8165   -2.0942 H         1 <0>         0.1534
     47 H7         -3.7179    2.7051    0.0447 H         1 <0>         0.1398
     48 H8         -1.4554   -0.9401    0.0047 H         1 <0>         0.1436
     49 H9         -3.5389   -2.2386    0.0088 H         1 <0>         0.1450
     50 H10        -6.2808   -1.4486    0.9118 H         1 <0>         0.3974
     51 H11         0.0021   -0.0041    0.0020 H         1 <0>         0.1641
     52 H12         3.0078    6.0765    0.0034 H         1 <0>         0.1502
     53 H13        -1.2527    5.7115    0.0424 H         1 <0>         0.1530
     54 H14         0.7056    7.7831   -0.8511 H         1 <0>         0.4041
     55 H15         3.8358    3.3444   -0.9013 H         1 <0>         0.4032
     56 H16        -6.4413    0.7307   -2.6814 H         1 <0>         0.4051
     57 H17       -10.6010    2.9252    0.0313 H         1 <0>         0.4046
     58 H18        -3.4554    1.1280    8.6431 H         1 <0>         0.3992
@<TRIPOS>BOND
     1    1    6 ar
     2    1    2 ar
     3    1   41 1
     4    2    3 ar
     5    2   42 1
     6    3    4 ar
     7    3   40 1
     8    4    5 ar
     9    4   43 1
    10    5    6 ar
    11    5   44 1
    12    6    7 1
    13    7   17 1
    14    7    8 2
    15    8    9 1
    16    8   45 1
    17    9   10 2
    18    9   11 1
    19   11   16 ar
    20   11   12 ar
    21   12   13 ar
    22   12   39 1
    23   13   14 ar
    24   13   46 1
    25   14   15 ar
    26   14   38 1
    27   15   16 ar
    28   15   18 1
    29   16   17 1
    30   18   23 ar
    31   18   19 ar
    32   19   20 ar
    33   19   47 1
    34   20   21 ar
    35   20   25 1
    36   21   22 ar
    37   21   48 1
    38   22   23 ar
    39   22   49 1
    40   23   24 1
    41   24   50 1
    42   25   35 1
    43   25   26 2
    44   26   27 1
    45   26   51 1
    46   27   28 2
    47   27   29 1
    48   29   34 ar
    49   29   30 ar
    50   30   31 ar
    51   30   37 1
    52   31   32 ar
    53   31   52 1
    54   32   33 ar
    55   32   36 1
    56   33   34 ar
    57   33   53 1
    58   34   35 1
    59   36   54 1
    60   37   55 1
    61   38   56 1
    62   39   57 1
    63   40   58 1
@<TRIPOS>MOLECULE
ZINC01999529
   52    55     0     0     0
SMALL
USER_CHARGES

@<TRIPOS>ATOM
      1 C1         -0.0166    1.3718    0.0096 C.ar      1 <0>        -0.0777
      2 C2          1.1605    2.0994    0.0023 C.ar      1 <0>        -0.0864
      3 C3          2.3767    1.4321   -0.0129 C.ar      1 <0>         0.0073
      4 C4          2.3992    0.0662   -0.0204 C.ar      1 <0>        -0.6175
      5 C5          1.2246   -0.6975   -0.0133 C.ar      1 <0>        -0.1240
      6 C6          0.0021   -0.0041    0.0020 C.ar      1 <0>        -0.0321
      7 C7          1.4909   -2.1423   -0.0240 C.2       1 <0>         0.5408
      8 O1          0.5787   -2.9456   -0.0200 O.2       1 <0>        -0.4623
      9 N1          2.7689   -2.5506   -0.0387 N.am      1 <0>        -0.9253
     10 S1          3.6863   -1.1515   -0.0397 S.o2      1 <0>         2.6548
     11 O2          4.3669   -1.0804    1.2056 O.2       1 <0>        -0.9145
     12 O3          4.3426   -1.0663   -1.2972 O.2       1 <0>        -0.9196
     13 C8          3.2582   -3.9315   -0.0505 C.3       1 <0>         0.1395
     14 C9          3.2964   -4.4467   -1.4906 C.3       1 <0>        -0.1474
     15 C10         3.8074   -5.8888   -1.5029 C.3       1 <0>        -0.1473
     16 C11         3.8456   -6.4041   -2.9430 C.3       1 <0>        -0.0102
     17 N2          4.3362   -7.7887   -2.9548 N.4       1 <0>        -0.3846
     18 C12         5.7269   -7.8173   -2.4842 C.3       1 <0>        -0.0271
     19 C13         6.2023   -9.2707   -2.3871 C.3       1 <0>         0.1084
     20 N3          5.9887   -9.9193   -3.6901 N.pl3     1 <0>        -0.6062
     21 C14         4.6622   -9.8000   -4.3147 C.3       1 <0>         0.1079
     22 C15         4.2595   -8.3216   -4.3209 C.3       1 <0>        -0.0203
     23 C16         7.0071  -10.6215   -4.3109 C.ar      1 <0>         0.5561
     24 N4          8.1872  -10.7115   -3.7152 N.ar      1 <0>        -0.5663
     25 C17         9.1814  -11.3755   -4.2811 C.ar      1 <0>         0.1960
     26 C18         8.9767  -11.9805   -5.5112 C.ar      1 <0>        -0.2677
     27 C19         7.7301  -11.8667   -6.1064 C.ar      1 <0>         0.1958
     28 N5          6.7772  -11.1924   -5.4842 N.ar      1 <0>        -0.5665
     29 H1         -0.9633    1.8912    0.0260 H         1 <0>         0.1509
     30 H2          1.1326    3.1791    0.0079 H         1 <0>         0.1535
     31 H3          3.3014    1.9899   -0.0191 H         1 <0>         0.1494
     32 H4         -0.9274   -0.5540    0.0083 H         1 <0>         0.1485
     33 H5          4.2615   -3.9650    0.3742 H         1 <0>         0.1015
     34 H6          2.5917   -4.5582    0.5421 H         1 <0>         0.1059
     35 H7          2.2931   -4.4131   -1.9152 H         1 <0>         0.0892
     36 H8          3.9629   -3.8200   -2.0832 H         1 <0>         0.0898
     37 H9          4.8107   -5.9224   -1.0783 H         1 <0>         0.0933
     38 H10         3.1409   -6.5155   -0.9103 H         1 <0>         0.0955
     39 H11         2.8423   -6.3705   -3.3677 H         1 <0>         0.1353
     40 H12         4.5121   -5.7774   -3.5356 H         1 <0>         0.1327
     41 H13         6.3594   -7.2742   -3.1864 H         1 <0>         0.1335
     42 H14         5.7879   -7.3485   -1.5021 H         1 <0>         0.1458
     43 H15         7.2628   -9.2931   -2.1362 H         1 <0>         0.1405
     44 H16         5.6303   -9.7927   -1.6200 H         1 <0>         0.0917
     45 H17         4.7045  -10.1723   -5.3383 H         1 <0>         0.1405
     46 H18         3.9347  -10.3754   -3.7423 H         1 <0>         0.0917
     47 H19         3.2393   -8.2244   -4.6922 H         1 <0>         0.1446
     48 H20         4.9364   -7.7632   -4.9675 H         1 <0>         0.1326
     49 H21        10.1412  -11.4451   -3.7908 H         1 <0>         0.1760
     50 H22         9.7713  -12.5285   -5.9956 H         1 <0>         0.1542
     51 H23         7.5380  -12.3261   -7.0647 H         1 <0>         0.1759
     52 H24         3.7650   -8.3518   -2.3428 H         1 <0>         0.4236
@<TRIPOS>BOND
     1    1    6 ar
     2    1    2 ar
     3    1   29 1
     4    2    3 ar
     5    2   30 1
     6    3    4 ar
     7    3   31 1
     8    4   10 1
     9    4    5 ar
    10    5    6 ar
    11    5    7 1
    12    6   32 1
    13    7    8 2
    14    7    9 am
    15    9   10 1
    16    9   13 1
    17   10   11 2
    18   10   12 2
    19   13   14 1
    20   13   33 1
    21   13   34 1
    22   14   15 1
    23   14   35 1
    24   14   36 1
    25   15   16 1
    26   15   37 1
    27   15   38 1
    28   16   17 1
    29   16   39 1
    30   16   40 1
    31   17   22 1
    32   17   18 1
    33   17   52 1
    34   18   19 1
    35   18   41 1
    36   18   42 1
    37   19   20 1
    38   19   43 1
    39   19   44 1
    40   20   21 1
    41   20   23 1
    42   21   22 1
    43   21   45 1
    44   21   46 1
    45   22   47 1
    46   22   48 1
    47   23   28 ar
    48   23   24 ar
    49   24   25 ar
    50   25   26 ar
    51   25   49 1
    52   26   27 ar
    53   26   50 1
    54   27   28 ar
    55   27   51 1
@<TRIPOS>MOLECULE
ZINC01999529
   51    54     0     0     0
SMALL
USER_CHARGES

@<TRIPOS>ATOM
      1 C1         -0.0166    1.3718    0.0096 C.ar      1 <0>        -0.0797
      2 C2          1.1605    2.0994    0.0023 C.ar      1 <0>        -0.0925
      3 C3          2.3767    1.4321   -0.0129 C.ar      1 <0>         0.0055
      4 C4          2.3992    0.0662   -0.0204 C.ar      1 <0>        -0.6181
      5 C5          1.2246   -0.6975   -0.0133 C.ar      1 <0>        -0.1153
      6 C6          0.0021   -0.0041    0.0020 C.ar      1 <0>        -0.0365
      7 C7          1.4909   -2.1423   -0.0240 C.2       1 <0>         0.5361
      8 O1          0.5787   -2.9456   -0.0200 O.2       1 <0>        -0.4603
      9 N1          2.7689   -2.5506   -0.0387 N.am      1 <0>        -0.9199
     10 S1          3.6863   -1.1515   -0.0397 S.o2      1 <0>         2.6544
     11 O2          4.3669   -1.0804    1.2056 O.2       1 <0>        -0.9194
     12 O3          4.3426   -1.0663   -1.2972 O.2       1 <0>        -0.9182
     13 C8          3.2582   -3.9315   -0.0505 C.3       1 <0>         0.1391
     14 C9          3.2964   -4.4467   -1.4906 C.3       1 <0>        -0.1462
     15 C10         3.8074   -5.8888   -1.5029 C.3       1 <0>        -0.1140
     16 C11         3.8456   -6.4041   -2.9430 C.3       1 <0>         0.0557
     17 N2          4.3362   -7.7887   -2.9548 N.3       1 <0>        -0.5381
     18 C12         5.7363   -7.8548   -2.5151 C.3       1 <0>         0.0366
     19 C13         6.1531   -9.3220   -2.3677 C.3       1 <0>         0.1319
     20 N3          5.8642  -10.0190   -3.6302 N.pl3     1 <0>        -0.5851
     21 C14         4.5174   -9.8860   -4.2060 C.3       1 <0>         0.1323
     22 C15         4.1649   -8.3966   -4.2811 C.3       1 <0>         0.0413
     23 C16         6.8339  -10.7801   -4.2595 C.ar      1 <0>         0.5658
     24 N4          8.0345  -10.8821   -3.7086 N.ar      1 <0>        -0.5729
     25 C17         8.9835  -11.6019   -4.2839 C.ar      1 <0>         0.1940
     26 C18         8.7091  -12.2531   -5.4763 C.ar      1 <0>        -0.2967
     27 C19         7.4428  -12.1251   -6.0250 C.ar      1 <0>         0.1939
     28 N5          6.5378  -11.3939   -5.3958 N.ar      1 <0>        -0.5731
     29 H1         -0.9633    1.8912    0.0260 H         1 <0>         0.1479
     30 H2          1.1326    3.1791    0.0079 H         1 <0>         0.1502
     31 H3          3.3014    1.9899   -0.0191 H         1 <0>         0.1474
     32 H4         -0.9274   -0.5540    0.0083 H         1 <0>         0.1478
     33 H5          4.2615   -3.9650    0.3742 H         1 <0>         0.0985
     34 H6          2.5917   -4.5582    0.5421 H         1 <0>         0.1041
     35 H7          2.2931   -4.4131   -1.9152 H         1 <0>         0.0780
     36 H8          3.9629   -3.8200   -2.0832 H         1 <0>         0.0764
     37 H9          4.8107   -5.9224   -1.0783 H         1 <0>         0.0686
     38 H10         3.1409   -6.5155   -0.9103 H         1 <0>         0.0799
     39 H11         2.8423   -6.3705   -3.3677 H         1 <0>         0.0786
     40 H12         4.5121   -5.7774   -3.5356 H         1 <0>         0.0367
     41 H13         6.3730   -7.3683   -3.2541 H         1 <0>         0.0381
     42 H14         5.8404   -7.3489   -1.5553 H         1 <0>         0.0926
     43 H15         7.2203   -9.3798   -2.1535 H         1 <0>         0.1013
     44 H16         5.5887   -9.7834   -1.5573 H         1 <0>         0.0736
     45 H17         4.5031  -10.3166   -5.2073 H         1 <0>         0.1015
     46 H18         3.7957  -10.4015   -3.5724 H         1 <0>         0.0737
     47 H19         3.1294   -8.2836   -4.6020 H         1 <0>         0.0896
     48 H20         4.8235   -7.9025   -4.9955 H         1 <0>         0.0380
     49 H21         9.9604  -11.6810   -3.8302 H         1 <0>         0.1667
     50 H22         9.4658  -12.8471   -5.9673 H         1 <0>         0.1437
     51 H23         7.1969  -12.6195   -6.9532 H         1 <0>         0.1666
@<TRIPOS>BOND
     1    1    6 ar
     2    1    2 ar
     3    1   29 1
     4    2    3 ar
     5    2   30 1
     6    3    4 ar
     7    3   31 1
     8    4   10 1
     9    4    5 ar
    10    5    6 ar
    11    5    7 1
    12    6   32 1
    13    7    8 2
    14    7    9 am
    15    9   10 1
    16    9   13 1
    17   10   11 2
    18   10   12 2
    19   13   14 1
    20   13   33 1
    21   13   34 1
    22   14   15 1
    23   14   35 1
    24   14   36 1
    25   15   16 1
    26   15   37 1
    27   15   38 1
    28   16   17 1
    29   16   39 1
    30   16   40 1
    31   17   22 1
    32   17   18 1
    33   18   19 1
    34   18   41 1
    35   18   42 1
    36   19   20 1
    37   19   43 1
    38   19   44 1
    39   20   21 1
    40   20   23 1
    41   21   22 1
    42   21   45 1
    43   21   46 1
    44   22   47 1
    45   22   48 1
    46   23   28 ar
    47   23   24 ar
    48   24   25 ar
    49   25   26 ar
    50   25   49 1
    51   26   27 ar
    52   26   50 1
    53   27   28 ar
    54   27   51 1
@<TRIPOS>MOLECULE
ZINC00005895
   40    42     0     0     0
SMALL
USER_CHARGES

@<TRIPOS>ATOM
      1 C1         -0.0178    1.4648    0.0101 C.3       1 <0>        -0.0532
      2 N1          0.0021   -0.0041    0.0020 N.4       1 <0>        -0.3879
      3 C2          0.6897   -0.4778   -1.2066 C.3       1 <0>        -0.0470
      4 C3          0.7126   -0.4907    1.1921 C.3       1 <0>        -0.0086
      5 C4         -0.0711   -0.1034    2.4478 C.3       1 <0>        -0.0609
      6 C5          0.6578   -0.6026    3.6687 C.2       1 <0>        -0.1991
      7 C6          0.4369   -1.7593    4.3132 C.2       1 <0>         0.0848
      8 N2          1.2907   -1.8713    5.3767 N.pl3     1 <0>        -0.5871
      9 H1          1.3197   -2.6210    5.9914 H         1 <0>         0.4243
     10 C7          2.1025   -0.7612    5.4442 C.ar      1 <0>         0.1061
     11 C8          1.7460    0.0793    4.3735 C.ar      1 <0>        -0.1023
     12 C9          2.4143    1.2905    4.1864 C.ar      1 <0>        -0.0409
     13 C10         3.4154    1.6524    5.0434 C.ar      1 <0>        -0.1267
     14 C11         3.7736    0.8250    6.0985 C.ar      1 <0>        -0.0764
     15 C12         3.1209   -0.3705    6.3071 C.ar      1 <0>        -0.1221
     16 C13         4.1365    2.9600    4.8408 C.3       1 <0>         0.1747
     17 N3          3.4480    4.0178    5.5847 N.pl3     1 <0>        -0.3804
     18 C14         3.9891    4.8454    6.4953 C.2       1 <0>         0.2572
     19 N4          3.0476    5.6443    6.9279 N.2       1 <0>        -0.5428
     20 C15         1.8973    5.3583    6.3195 C.2       1 <0>         0.2015
     21 N5          2.0929    4.3725    5.4837 N.2       1 <0>        -0.3194
     22 H2          1.0047    1.8421    0.0024 H         1 <0>         0.1216
     23 H3         -0.5450    1.8259   -0.8730 H         1 <0>         0.1242
     24 H4         -0.5280    1.8163    0.9069 H         1 <0>         0.1255
     25 H5          1.7123   -0.1005   -1.2143 H         1 <0>         0.1211
     26 H6          0.7044   -1.5677   -1.2126 H         1 <0>         0.1226
     27 H7          0.1625   -0.1167   -2.0897 H         1 <0>         0.1240
     28 H8          0.8051   -1.5756    1.1418 H         1 <0>         0.1299
     29 H9          1.7055   -0.0428    1.2310 H         1 <0>         0.1290
     30 H10        -0.1636    0.9815    2.4982 H         1 <0>         0.0929
     31 H11        -1.0640   -0.5514    2.4090 H         1 <0>         0.0915
     32 H12        -0.3050   -2.4927    4.0340 H         1 <0>         0.1744
     33 H13         2.1414    1.9391    3.3670 H         1 <0>         0.1201
     34 H14         4.5673    1.1244    6.7669 H         1 <0>         0.1309
     35 H15         3.4078   -1.0080    7.1304 H         1 <0>         0.1285
     36 H16         5.1610    2.8698    5.2018 H         1 <0>         0.1124
     37 H17         4.1459    3.2092    3.7797 H         1 <0>         0.0949
     38 H18         5.0208    4.8497    6.8146 H         1 <0>         0.2197
     39 H19         0.9567    5.8622    6.4866 H         1 <0>         0.2164
     40 H20        -0.9445   -0.3533    0.0092 H         1 <0>         0.4264
@<TRIPOS>BOND
     1    1    2 1
     2    1   22 1
     3    1   23 1
     4    1   24 1
     5    2    3 1
     6    2    4 1
     7    2   40 1
     8    3   25 1
     9    3   26 1
    10    3   27 1
    11    4    5 1
    12    4   28 1
    13    4   29 1
    14    5    6 1
    15    5   30 1
    16    5   31 1
    17    6   11 1
    18    6    7 2
    19    7    8 1
    20    7   32 1
    21    8    9 1
    22    8   10 1
    23   10   15 ar
    24   10   11 ar
    25   11   12 ar
    26   12   13 ar
    27   12   33 1
    28   13   14 ar
    29   13   16 1
    30   14   15 ar
    31   14   34 1
    32   15   35 1
    33   16   17 1
    34   16   36 1
    35   16   37 1
    36   17   21 1
    37   17   18 1
    38   18   19 2
    39   18   38 1
    40   19   20 1
    41   20   21 2
    42   20   39 1
