@<TRIPOS>MOLECULE
ZINC52956332
   66    69     0     0     0
SMALL
USER_CHARGES

@<TRIPOS>ATOM
      1 C1         -0.2570   -0.0396   -0.2249 C.3       1 <0>        -0.1481
      2 C2         -0.4777   -1.5512   -0.1410 C.3       1 <0>         0.0719
      3 C3          0.2510   -2.1058    1.0847 C.3       1 <0>        -0.1743
      4 O1         -1.8760   -1.8229   -0.0272 O.3       1 <0>        -0.2968
      5 C4         -2.3308   -2.9699   -0.5993 C.ar      1 <0>         0.1238
      6 C5         -1.4369   -3.8709   -1.1538 C.ar      1 <0>        -0.2108
      7 C6         -1.9007   -5.0365   -1.7356 C.ar      1 <0>        -0.0833
      8 C7         -3.2562   -5.3067   -1.7656 C.ar      1 <0>        -0.1528
      9 C8         -4.1549   -4.4130   -1.2140 C.ar      1 <0>        -0.0865
     10 C9         -3.6965   -3.2442   -0.6239 C.ar      1 <0>         0.1375
     11 N1         -4.6040   -2.3403   -0.0596 N.pl3     1 <0>        -0.6674
     12 C10        -5.1972   -1.2631   -0.8665 C.3       1 <0>         0.1547
     13 C11        -5.0050    0.0635   -0.1240 C.3       1 <0>         0.0426
     14 N2         -5.5408   -0.0593    1.2382 N.3       1 <0>        -0.5278
     15 C12        -4.8056   -1.0693    2.0110 C.3       1 <0>         0.0391
     16 C13        -4.9943   -2.4462    1.3545 C.3       1 <0>         0.1554
     17 C14        -5.5326    1.2387    1.9262 C.3       1 <0>         0.0947
     18 C15        -6.3064    1.1292    3.2147 C.ar      1 <0>        -0.0813
     19 C16        -7.6662    1.3854    3.2273 C.ar      1 <0>        -0.0744
     20 C17        -8.3840    1.2867    4.4058 C.ar      1 <0>        -0.1211
     21 C18        -7.7471    0.9321    5.5774 C.ar      1 <0>        -0.0675
     22 C19        -6.3760    0.6723    5.5716 C.ar      1 <0>        -0.1273
     23 C20        -5.6587    0.7682    4.3778 C.ar      1 <0>        -0.0879
     24 C21        -5.6870    0.2923    6.8233 C.2       1 <0>         0.5617
     25 O2         -6.1780   -0.5424    7.5580 O.2       1 <0>        -0.5326
     26 N3         -4.5146    0.8713    7.1497 N.am      1 <0>        -0.6059
     27 C22        -3.8640    1.8148    6.2303 C.3       1 <0>         0.0916
     28 C23        -3.5771    3.1180    6.9827 C.3       1 <0>        -0.1360
     29 C24        -2.7654    2.8071    8.2423 C.3       1 <0>        -0.1214
     30 C25        -3.5758    1.8882    9.1594 C.3       1 <0>        -0.1356
     31 C26        -3.8657    0.5757    8.4343 C.3       1 <0>         0.1105
     32 H1          0.8096    0.1676   -0.3117 H         1 <0>         0.0754
     33 H2         -0.7761    0.3555   -1.0981 H         1 <0>         0.0627
     34 H3         -0.6472    0.4351    0.6754 H         1 <0>         0.0636
     35 H4         -0.0875   -2.0259   -1.0413 H         1 <0>         0.0742
     36 H5         -0.1393   -1.6311    1.9850 H         1 <0>         0.0650
     37 H6          0.0937   -3.1828    1.1445 H         1 <0>         0.0608
     38 H7          1.3176   -1.8986    0.9979 H         1 <0>         0.0710
     39 H8         -0.3773   -3.6629   -1.1321 H         1 <0>         0.1279
     40 H9         -1.2021   -5.7375   -2.1681 H         1 <0>         0.1235
     41 H10        -3.6139   -6.2182   -2.2214 H         1 <0>         0.1239
     42 H11        -5.2133   -4.6264   -1.2391 H         1 <0>         0.1282
     43 H12        -4.7006   -1.2157   -1.8356 H         1 <0>         0.0685
     44 H13        -6.2613   -1.4538   -1.0061 H         1 <0>         0.0563
     45 H14        -3.9427    0.3033   -0.0768 H         1 <0>         0.0406
     46 H15        -5.5341    0.8563   -0.6529 H         1 <0>         0.0772
     47 H16        -3.7461   -0.8138    2.0285 H         1 <0>         0.0394
     48 H17        -5.1901   -1.0982    3.0305 H         1 <0>         0.0783
     49 H18        -6.0393   -2.7483    1.4243 H         1 <0>         0.0563
     50 H19        -4.3636   -3.1812    1.8544 H         1 <0>         0.0674
     51 H20        -4.5044    1.5283    2.1433 H         1 <0>         0.0422
     52 H21        -5.9950    1.9913    1.2875 H         1 <0>         0.0858
     53 H22        -8.1693    1.6640    2.3132 H         1 <0>         0.1285
     54 H23        -9.4450    1.4880    4.4089 H         1 <0>         0.1309
     55 H24        -8.3085    0.8561    6.4969 H         1 <0>         0.1292
     56 H25        -4.5982    0.5642    4.3658 H         1 <0>         0.1264
     57 H26        -2.9283    1.3874    5.8698 H         1 <0>         0.0700
     58 H27        -4.5244    2.0175    5.3871 H         1 <0>         0.0990
     59 H28        -3.0089    3.7912    6.3407 H         1 <0>         0.0765
     60 H29        -4.5182    3.5906    7.2637 H         1 <0>         0.0681
     61 H30        -1.8355    2.3122    7.9621 H         1 <0>         0.0648
     62 H31        -2.5388    3.7354    8.7666 H         1 <0>         0.0672
     63 H32        -3.0066    1.6860   10.0668 H         1 <0>         0.0777
     64 H33        -4.5169    2.3723    9.4200 H         1 <0>         0.0669
     65 H34        -4.5272   -0.0389    9.0449 H         1 <0>         0.0936
     66 H35        -2.9302    0.0450    8.2576 H         1 <0>         0.0683
@<TRIPOS>BOND
     1    1    2 1
     2    1   32 1
     3    1   33 1
     4    1   34 1
     5    2    3 1
     6    2    4 1
     7    2   35 1
     8    3   36 1
     9    3   37 1
    10    3   38 1
    11    4    5 1
    12    5   10 ar
    13    5    6 ar
    14    6    7 ar
    15    6   39 1
    16    7    8 ar
    17    7   40 1
    18    8    9 ar
    19    8   41 1
    20    9   10 ar
    21    9   42 1
    22   10   11 1
    23   11   16 1
    24   11   12 1
    25   12   13 1
    26   12   43 1
    27   12   44 1
    28   13   14 1
    29   13   45 1
    30   13   46 1
    31   14   15 1
    32   14   17 1
    33   15   16 1
    34   15   47 1
    35   15   48 1
    36   16   49 1
    37   16   50 1
    38   17   18 1
    39   17   51 1
    40   17   52 1
    41   18   23 ar
    42   18   19 ar
    43   19   20 ar
    44   19   53 1
    45   20   21 ar
    46   20   54 1
    47   21   22 ar
    48   21   55 1
    49   22   23 ar
    50   22   24 1
    51   23   56 1
    52   24   25 2
    53   24   26 am
    54   26   31 1
    55   26   27 1
    56   27   28 1
    57   27   57 1
    58   27   58 1
    59   28   29 1
    60   28   59 1
    61   28   60 1
    62   29   30 1
    63   29   61 1
    64   29   62 1
    65   30   31 1
    66   30   63 1
    67   30   64 1
    68   31   65 1
    69   31   66 1
@<TRIPOS>MOLECULE
ZINC00020245
   46    48     0     0     0
SMALL
USER_CHARGES

@<TRIPOS>ATOM
      1 C1         -5.6836    1.3838    0.0162 C.3       1 <0>        -0.0473
      2 N1         -5.6620   -0.0833   -0.0564 N.4       1 <0>        -0.3868
      3 C2         -6.3713   -0.5242   -1.2649 C.3       1 <0>        -0.0522
      4 C3         -4.2702   -0.5505   -0.1076 C.3       1 <0>        -0.0086
      5 C4         -4.2434   -2.0795   -0.0575 C.3       1 <0>        -0.1781
      6 C5         -2.7938   -2.5661   -0.1108 C.3       1 <0>         0.1490
      7 N2         -2.7704   -4.0309   -0.1190 N.pl3     1 <0>        -0.6108
      8 C6         -2.7295   -4.7451   -1.3212 C.ar      1 <0>         0.1758
      9 C7         -1.6865   -4.4783   -2.2022 C.ar      1 <0>        -0.1411
     10 C8         -1.5734   -5.1772   -3.3856 C.ar      1 <0>        -0.1022
     11 C9         -2.5089   -6.1508   -3.6854 C.ar      1 <0>        -0.1266
     12 C10        -3.5489   -6.4041   -2.8209 C.ar      1 <0>        -0.1101
     13 C11        -3.6933   -5.6947   -1.6266 C.ar      1 <0>        -0.0998
     14 C12        -4.9357   -6.0340   -0.8354 C.3       1 <0>        -0.0687
     15 C13        -5.1005   -5.1892    0.4158 C.3       1 <0>        -0.0773
     16 C14        -3.9592   -5.4030    1.3779 C.ar      1 <0>        -0.0996
     17 C15        -2.7824   -4.7590    1.0748 C.ar      1 <0>         0.1523
     18 C16        -1.6837   -4.8488    1.9126 C.ar      1 <0>        -0.1184
     19 C17        -1.7825   -5.6251    3.0560 C.ar      1 <0>        -0.1094
     20 C18        -2.9565   -6.2950    3.3488 C.ar      1 <0>        -0.1165
     21 C19        -4.0679   -6.1865    2.5030 C.ar      1 <0>        -0.1028
     22 H1         -6.7163    1.7305    0.0542 H         1 <0>         0.1245
     23 H2         -5.1573    1.7109    0.9129 H         1 <0>         0.1235
     24 H3         -5.1933    1.7984   -0.8646 H         1 <0>         0.1221
     25 H4         -6.3552   -1.6128   -1.3188 H         1 <0>         0.1231
     26 H5         -7.4040   -0.1775   -1.2269 H         1 <0>         0.1246
     27 H6         -5.8810   -0.1096   -2.1457 H         1 <0>         0.1227
     28 H7         -3.8061   -0.2091   -1.0329 H         1 <0>         0.1308
     29 H8         -3.7207   -0.1494    0.7440 H         1 <0>         0.1320
     30 H9         -4.7075   -2.4209    0.8678 H         1 <0>         0.0908
     31 H10        -4.7929   -2.4806   -0.9091 H         1 <0>         0.0915
     32 H11        -2.3174   -2.1901   -1.0161 H         1 <0>         0.0824
     33 H12        -2.2550   -2.1990    0.7627 H         1 <0>         0.0801
     34 H13        -0.9599   -3.7176   -1.9576 H         1 <0>         0.1215
     35 H14        -0.7646   -4.9667   -4.0697 H         1 <0>         0.1276
     36 H15        -2.4229   -6.7145   -4.6025 H         1 <0>         0.1250
     37 H16        -4.2693   -7.1687   -3.0712 H         1 <0>         0.1222
     38 H17        -5.8074   -5.8880   -1.4734 H         1 <0>         0.0793
     39 H18        -4.8898   -7.0837   -0.5452 H         1 <0>         0.0765
     40 H19        -5.1365   -4.1371    0.1334 H         1 <0>         0.0724
     41 H20        -6.0358   -5.4578    0.9068 H         1 <0>         0.0709
     42 H21        -0.7686   -4.3248    1.6795 H         1 <0>         0.1257
     43 H22        -0.9372   -5.7074    3.7231 H         1 <0>         0.1275
     44 H23        -3.0178   -6.9071    4.2365 H         1 <0>         0.1269
     45 H24        -4.9880   -6.7067    2.7249 H         1 <0>         0.1290
     46 H25        -6.1159   -0.4671    0.7589 H         1 <0>         0.4268
@<TRIPOS>BOND
     1    1    2 1
     2    1   22 1
     3    1   23 1
     4    1   24 1
     5    2    3 1
     6    2    4 1
     7    2   46 1
     8    3   25 1
     9    3   26 1
    10    3   27 1
    11    4    5 1
    12    4   28 1
    13    4   29 1
    14    5    6 1
    15    5   30 1
    16    5   31 1
    17    6    7 1
    18    6   32 1
    19    6   33 1
    20    7   17 1
    21    7    8 1
    22    8   13 ar
    23    8    9 ar
    24    9   10 ar
    25    9   34 1
    26   10   11 ar
    27   10   35 1
    28   11   12 ar
    29   11   36 1
    30   12   13 ar
    31   12   37 1
    32   13   14 1
    33   14   15 1
    34   14   38 1
    35   14   39 1
    36   15   16 1
    37   15   40 1
    38   15   41 1
    39   16   21 ar
    40   16   17 ar
    41   17   18 ar
    42   18   19 ar
    43   18   42 1
    44   19   20 ar
    45   19   43 1
    46   20   21 ar
    47   20   44 1
    48   21   45 1
@<TRIPOS>MOLECULE
ZINC03650259
   47    48     0     0     0
SMALL
USER_CHARGES
8-methoxy-N,N-dipropyl-tetralin-2-amine
@<TRIPOS>ATOM
      1 C1         -7.6637    2.4009    2.4950 C.3       1 <0>        -0.1552
      2 C2         -6.2948    2.9595    2.1015 C.3       1 <0>        -0.1477
      3 C3         -6.2805    3.2652    0.6024 C.3       1 <0>        -0.0145
      4 C4         -4.8308    5.1864    0.8676 C.3       1 <0>        -0.0157
      5 C5         -5.9233    6.1304    0.3614 C.3       1 <0>        -0.1486
      6 C6         -5.6791    7.5360    0.9143 C.3       1 <0>        -0.1560
      7 C7         -3.8762    2.9790    0.5867 C.3       1 <0>         0.0265
      8 H1         -3.8807    2.7880    1.6598 H         1 <0>         0.1435
      9 C8         -4.0142    1.6554   -0.1748 C.3       1 <0>        -0.1402
     10 C9         -2.9878    0.6705    0.3813 C.3       1 <0>        -0.0757
     11 C10        -1.6156    1.2920    0.4000 C.ar      1 <0>        -0.0465
     12 C11        -0.5227    0.4426    0.5223 C.ar      1 <0>        -0.1520
     13 C12         0.7602    0.9482    0.5639 C.ar      1 <0>        -0.0641
     14 C13         0.9640    2.3127    0.4879 C.ar      1 <0>        -0.2046
     15 C14        -0.1218    3.1630    0.3675 C.ar      1 <0>         0.1378
     16 C15        -1.4178    2.6513    0.3249 C.ar      1 <0>        -0.1229
     17 C16        -2.5541    3.6301    0.1855 C.3       1 <0>        -0.0810
     18 O1          0.0770    4.5052    0.2909 O.3       1 <0>        -0.3200
     19 C17         1.4292    4.9646    0.3408 C.3       1 <0>         0.0242
     20 H2         -7.6739    2.1832    3.5630 H         1 <0>         0.0765
     21 H3         -8.4354    3.1361    2.2667 H         1 <0>         0.0662
     22 H4         -7.8571    1.4856    1.9357 H         1 <0>         0.0669
     23 H5         -5.5231    2.2244    2.3298 H         1 <0>         0.0855
     24 H6         -6.1015    3.8749    2.6608 H         1 <0>         0.0843
     25 H7         -7.0868    3.9593    0.3654 H         1 <0>         0.1314
     26 H8         -6.4202    2.3409    0.0418 H         1 <0>         0.1301
     27 H9         -4.9118    5.0842    1.9498 H         1 <0>         0.1315
     28 H10        -3.8523    5.5935    0.6133 H         1 <0>         0.1316
     29 H11        -5.9020    6.1597   -0.7280 H         1 <0>         0.0842
     30 H12        -6.8968    5.7723    0.6962 H         1 <0>         0.0860
     31 H13        -4.7056    7.8941    0.5794 H         1 <0>         0.0669
     32 H14        -6.4573    8.2085    0.5536 H         1 <0>         0.0768
     33 H15        -5.7004    7.5067    2.0037 H         1 <0>         0.0665
     34 H16        -5.0188    1.2556   -0.0370 H         1 <0>         0.0935
     35 H17        -3.8268    1.8210   -1.2357 H         1 <0>         0.0927
     36 H18        -3.2727    0.3885    1.3949 H         1 <0>         0.0911
     37 H19        -2.9670   -0.2199   -0.2470 H         1 <0>         0.0995
     38 H20        -0.6789   -0.6244    0.5810 H         1 <0>         0.1301
     39 H21         1.6030    0.2792    0.6561 H         1 <0>         0.1334
     40 H22         1.9661    2.7141    0.5219 H         1 <0>         0.1355
     41 H23        -2.3679    4.4908    0.8279 H         1 <0>         0.0989
     42 H24        -2.6171    3.9626   -0.8506 H         1 <0>         0.0917
     43 H25         1.9890    4.5377   -0.4913 H         1 <0>         0.0610
     44 H26         1.4463    6.0522    0.2702 H         1 <0>         0.1061
     45 H27         1.8839    4.6545    1.2817 H         1 <0>         0.0607
     46 N1         -4.9915    3.8726    0.2095 N.4       1 <0>        -0.3920
     47 H28        -4.9823    4.0062   -0.8084 H         1 <0>         0.4261
@<TRIPOS>BOND
     1    1    2 1
     2    1   20 1
     3    1   21 1
     4    1   22 1
     5    2    3 1
     6    2   23 1
     7    2   24 1
     8    3   25 1
     9    3   26 1
    10    3   46 1
    11    4    5 1
    12    4   27 1
    13    4   28 1
    14    4   46 1
    15    5    6 1
    16    5   29 1
    17    5   30 1
    18    6   31 1
    19    6   32 1
    20    6   33 1
    21    7    8 1
    22    7   17 1
    23    7    9 1
    24    7   46 1
    25    9   10 1
    26    9   34 1
    27    9   35 1
    28   10   11 1
    29   10   36 1
    30   10   37 1
    31   11   16 ar
    32   11   12 ar
    33   12   13 ar
    34   12   38 1
    35   13   14 ar
    36   13   39 1
    37   14   15 ar
    38   14   40 1
    39   15   16 ar
    40   15   18 1
    41   16   17 1
    42   17   41 1
    43   17   42 1
    44   18   19 1
    45   19   43 1
    46   19   44 1
    47   19   45 1
    48   46   47 1
@<TRIPOS>MOLECULE
ZINC03650260
   47    48     0     0     0
SMALL
USER_CHARGES
8-methoxy-N,N-dipropyl-tetralin-2-amine
@<TRIPOS>ATOM
      1 C1         -3.3141    1.9397    0.8841 C.3       1 <0>        -0.1553
      2 C2         -2.3652    1.3885    1.9503 C.3       1 <0>        -0.1489
      3 C3         -0.9173    1.6088    1.5075 C.3       1 <0>        -0.0129
      4 C4         -0.0425   -0.3234    2.6753 C.3       1 <0>        -0.0166
      5 C5          0.7353   -0.9451    1.5135 C.3       1 <0>        -0.1487
      6 C6          0.6323   -2.4697    1.5888 C.3       1 <0>        -0.1556
      7 C7         -0.3183    1.7772    3.8475 C.3       1 <0>         0.0267
      8 H1         -1.2951    1.4417    4.1959 H         1 <0>         0.1434
      9 C8         -0.3246    3.3014    3.6815 C.3       1 <0>        -0.1415
     10 C9         -0.8803    3.9230    4.9610 C.3       1 <0>        -0.0758
     11 C10        -0.1632    3.3801    6.1694 C.ar      1 <0>        -0.0463
     12 C11        -0.2747    4.0883    7.3597 C.ar      1 <0>        -0.1520
     13 C12         0.3473    3.6395    8.5064 C.ar      1 <0>        -0.0640
     14 C13         1.0898    2.4747    8.4747 C.ar      1 <0>        -0.2046
     15 C14         1.2060    1.7672    7.2905 C.ar      1 <0>         0.1379
     16 C15         0.5785    2.2220    6.1318 C.ar      1 <0>        -0.1229
     17 C16         0.7491    1.4083    4.8758 C.3       1 <0>        -0.0806
     18 O1          1.9362    0.6215    7.2574 O.3       1 <0>        -0.3201
     19 C17         2.5537    0.2102    8.4788 C.3       1 <0>         0.0243
     20 H2         -4.3455    1.7827    1.1995 H         1 <0>         0.0767
     21 H3         -3.1326    3.0064    0.7527 H         1 <0>         0.0666
     22 H4         -3.1400    1.4226   -0.0595 H         1 <0>         0.0666
     23 H5         -2.5393    1.9056    2.8939 H         1 <0>         0.0862
     24 H6         -2.5466    0.3218    2.0817 H         1 <0>         0.0846
     25 H7         -0.7291    1.0512    0.5901 H         1 <0>         0.1302
     26 H8         -0.7499    2.6708    1.3280 H         1 <0>         0.1305
     27 H9          0.4114   -0.6253    3.6192 H         1 <0>         0.1314
     28 H10        -1.0771   -0.6650    2.6439 H         1 <0>         0.1317
     29 H11         0.3159   -0.5987    0.5689 H         1 <0>         0.0838
     30 H12         1.7821   -0.6480    1.5769 H         1 <0>         0.0860
     31 H13         1.1863   -2.9126    0.7611 H         1 <0>         0.0769
     32 H14         1.0516   -2.8161    2.5334 H         1 <0>         0.0673
     33 H15        -0.4146   -2.7667    1.5254 H         1 <0>         0.0661
     34 H16         0.6920    3.6566    3.5131 H         1 <0>         0.0926
     35 H17        -0.9549    3.5760    2.8357 H         1 <0>         0.0951
     36 H18        -1.9427    3.6926    5.0398 H         1 <0>         0.0906
     37 H19        -0.7491    5.0044    4.9210 H         1 <0>         0.0998
     38 H20        -0.8541    4.9993    7.3874 H         1 <0>         0.1301
     39 H21         0.2544    4.1974    9.4265 H         1 <0>         0.1334
     40 H22         1.5777    2.1179    9.3697 H         1 <0>         0.1355
     41 H23         0.6630    0.3494    5.1192 H         1 <0>         0.0983
     42 H24         1.7358    1.6005    4.4544 H         1 <0>         0.0920
     43 H25         3.1041   -0.7160    8.3137 H         1 <0>         0.1061
     44 H26         3.2406    0.9857    8.8177 H         1 <0>         0.0610
     45 H27         1.7872    0.0473    9.2365 H         1 <0>         0.0608
     46 N1          0.0201    1.1483    2.5534 N.4       1 <0>        -0.3924
     47 H28         0.9742    1.4208    2.2895 H         1 <0>         0.4260
@<TRIPOS>BOND
     1    1    2 1
     2    1   20 1
     3    1   21 1
     4    1   22 1
     5    2    3 1
     6    2   23 1
     7    2   24 1
     8    3   25 1
     9    3   26 1
    10    3   46 1
    11    4    5 1
    12    4   27 1
    13    4   28 1
    14    4   46 1
    15    5    6 1
    16    5   29 1
    17    5   30 1
    18    6   31 1
    19    6   32 1
    20    6   33 1
    21    7    8 1
    22    7   17 1
    23    7    9 1
    24    7   46 1
    25    9   10 1
    26    9   34 1
    27    9   35 1
    28   10   11 1
    29   10   36 1
    30   10   37 1
    31   11   16 ar
    32   11   12 ar
    33   12   13 ar
    34   12   38 1
    35   13   14 ar
    36   13   39 1
    37   14   15 ar
    38   14   40 1
    39   15   16 ar
    40   15   18 1
    41   16   17 1
    42   17   41 1
    43   17   42 1
    44   18   19 1
    45   19   43 1
    46   19   44 1
    47   19   45 1
    48   46   47 1
@<TRIPOS>MOLECULE
ZINC01530571
   60    63     0     0     0
SMALL
USER_CHARGES

@<TRIPOS>ATOM
      1 C1         -0.0167    1.3818    0.0096 C.ar      1 <0>        -0.2679
      2 C2          1.1915    2.0609    0.0018 C.ar      1 <0>         0.1958
      3 N1          2.3197    1.3705   -0.0127 N.ar      1 <0>        -0.5666
      4 C3          2.3029    0.0457   -0.0197 C.ar      1 <0>         0.5562
      5 N2          1.1654   -0.6335   -0.0129 N.ar      1 <0>        -0.5663
      6 C4          0.0021   -0.0041    0.0020 C.ar      1 <0>         0.1960
      7 N3          3.5022   -0.6451   -0.0348 N.pl3     1 <0>        -0.6064
      8 C5          4.7874    0.0707   -0.0371 C.3       1 <0>         0.1080
      9 C6          5.6545   -0.4916   -1.1683 C.3       1 <0>        -0.0202
     10 N4          5.7718   -1.9473   -1.0165 N.4       1 <0>        -0.3840
     11 C7          4.4544   -2.5749   -1.1794 C.3       1 <0>        -0.0262
     12 C8          3.5278   -2.1159   -0.0430 C.3       1 <0>         0.1092
     13 C9          6.6913   -2.4716   -2.0352 C.3       1 <0>        -0.0085
     14 C10         6.9121   -3.9674   -1.8016 C.3       1 <0>        -0.1445
     15 C11         7.8697   -4.5135   -2.8626 C.3       1 <0>        -0.1292
     16 C12         8.0905   -6.0093   -2.6289 C.3       1 <0>         0.0911
     17 N5          9.0074   -6.5321   -3.6449 N.am      1 <0>        -0.5675
     18 C13         8.4943   -7.0005   -4.7921 C.2       1 <0>         0.5274
     19 O1          7.2949   -6.9658   -4.9647 O.2       1 <0>        -0.4991
     20 C14         9.3797   -7.5686   -5.8706 C.3       1 <0>        -0.1339
     21 C15        10.7544   -6.9065   -5.7927 C.3       1 <0>        -0.0666
     22 C16        11.7066   -7.5412   -6.8156 C.3       1 <0>        -0.1146
     23 C17        12.1410   -6.4083   -7.7700 C.3       1 <0>        -0.1265
     24 C18        11.9376   -5.1147   -6.9422 C.3       1 <0>        -0.1244
     25 C19        10.6393   -5.4143   -6.1507 C.3       1 <0>        -0.1220
     26 C20        11.3191   -7.0612   -4.3813 C.3       1 <0>        -0.1329
     27 C21        10.3239   -6.5167   -3.3897 C.2       1 <0>         0.5271
     28 O2         10.7205   -6.0600   -2.3391 O.2       1 <0>        -0.4986
     29 H1         -0.9525    1.9208    0.0259 H         1 <0>         0.1543
     30 H2          1.2116    3.1407    0.0070 H         1 <0>         0.1759
     31 H3         -0.9219   -0.5632    0.0082 H         1 <0>         0.1760
     32 H4          4.6141    1.1341   -0.2023 H         1 <0>         0.1406
     33 H5          5.2907   -0.0773    0.9184 H         1 <0>         0.0917
     34 H6          5.1926   -0.2623   -2.1286 H         1 <0>         0.1320
     35 H7          6.6459   -0.0406   -1.1249 H         1 <0>         0.1443
     36 H8          4.0288   -2.2827   -2.1393 H         1 <0>         0.1328
     37 H9          4.5614   -3.6591   -1.1441 H         1 <0>         0.1450
     38 H10         3.9061   -2.4809    0.9119 H         1 <0>         0.0920
     39 H11         2.5214   -2.4989   -0.2121 H         1 <0>         0.1403
     40 H12         6.2623   -2.3179   -3.0254 H         1 <0>         0.1301
     41 H13         7.6452   -1.9486   -1.9674 H         1 <0>         0.1337
     42 H14         7.3410   -4.1211   -0.8114 H         1 <0>         0.0926
     43 H15         5.9581   -4.4905   -1.8694 H         1 <0>         0.0914
     44 H16         7.4407   -4.3598   -3.8528 H         1 <0>         0.0793
     45 H17         8.8236   -3.9904   -2.7947 H         1 <0>         0.0796
     46 H18         8.5194   -6.1630   -1.6388 H         1 <0>         0.0991
     47 H19         7.1365   -6.5323   -2.6968 H         1 <0>         0.0987
     48 H20         9.4847   -8.6439   -5.7267 H         1 <0>         0.1160
     49 H21         8.9360   -7.3726   -6.8468 H         1 <0>         0.1186
     50 H22        12.5771   -7.9571   -6.3083 H         1 <0>         0.0770
     51 H23        11.1896   -8.3222   -7.3732 H         1 <0>         0.0769
     52 H24        13.1891   -6.5234   -8.0465 H         1 <0>         0.0725
     53 H25        11.5103   -6.3955   -8.6589 H         1 <0>         0.0700
     54 H26        12.7754   -4.9549   -6.2634 H         1 <0>         0.0706
     55 H27        11.8006   -4.2545   -7.5974 H         1 <0>         0.0710
     56 H28         9.7628   -5.2377   -6.7741 H         1 <0>         0.0740
     57 H29        10.5946   -4.8071   -5.2466 H         1 <0>         0.0611
     58 H30        11.5032   -8.1158   -4.1763 H         1 <0>         0.1163
     59 H31        12.2530   -6.5051   -4.2998 H         1 <0>         0.1183
     60 H32         6.1334   -2.1605   -0.0990 H         1 <0>         0.4234
@<TRIPOS>BOND
     1    1    6 ar
     2    1    2 ar
     3    1   29 1
     4    2    3 ar
     5    2   30 1
     6    3    4 ar
     7    4    5 ar
     8    4    7 1
     9    5    6 ar
    10    6   31 1
    11    7   12 1
    12    7    8 1
    13    8    9 1
    14    8   32 1
    15    8   33 1
    16    9   10 1
    17    9   34 1
    18    9   35 1
    19   10   11 1
    20   10   13 1
    21   10   60 1
    22   11   12 1
    23   11   36 1
    24   11   37 1
    25   12   38 1
    26   12   39 1
    27   13   14 1
    28   13   40 1
    29   13   41 1
    30   14   15 1
    31   14   42 1
    32   14   43 1
    33   15   16 1
    34   15   44 1
    35   15   45 1
    36   16   17 1
    37   16   46 1
    38   16   47 1
    39   17   27 am
    40   17   18 am
    41   18   19 2
    42   18   20 1
    43   20   21 1
    44   20   48 1
    45   20   49 1
    46   21   25 1
    47   21   22 1
    48   21   26 1
    49   22   23 1
    50   22   50 1
    51   22   51 1
    52   23   24 1
    53   23   52 1
    54   23   53 1
    55   24   25 1
    56   24   54 1
    57   24   55 1
    58   25   56 1
    59   25   57 1
    60   26   27 1
    61   26   58 1
    62   26   59 1
    63   27   28 2
@<TRIPOS>MOLECULE
ZINC01530571
   59    62     0     0     0
SMALL
USER_CHARGES

@<TRIPOS>ATOM
      1 C1         -0.0167    1.3818    0.0096 C.ar      1 <0>        -0.2969
      2 C2          1.1915    2.0609    0.0018 C.ar      1 <0>         0.1938
      3 N1          2.3197    1.3705   -0.0127 N.ar      1 <0>        -0.5732
      4 C3          2.3029    0.0457   -0.0197 C.ar      1 <0>         0.5658
      5 N2          1.1654   -0.6335   -0.0129 N.ar      1 <0>        -0.5730
      6 C4          0.0021   -0.0041    0.0020 C.ar      1 <0>         0.1940
      7 N3          3.5022   -0.6451   -0.0348 N.pl3     1 <0>        -0.5851
      8 C5          4.7864    0.0719   -0.0371 C.3       1 <0>         0.1324
      9 C6          5.6472   -0.4751   -1.1808 C.3       1 <0>         0.0415
     10 N4          5.7512   -1.9351   -1.0561 N.3       1 <0>        -0.5378
     11 C7          4.4367   -2.5765   -1.1923 C.3       1 <0>         0.0378
     12 C8          3.5262   -2.1156   -0.0430 C.3       1 <0>         0.1322
     13 C9          6.7063   -2.4799   -2.0301 C.3       1 <0>         0.0580
     14 C10         6.9763   -3.9518   -1.7112 C.3       1 <0>        -0.1114
     15 C11         7.9711   -4.5193   -2.7257 C.3       1 <0>        -0.1277
     16 C12         8.2411   -5.9911   -2.4068 C.3       1 <0>         0.0925
     17 N5          9.1937   -6.5345   -3.3782 N.am      1 <0>        -0.5656
     18 C13         8.7176   -7.0831   -4.5056 C.2       1 <0>         0.5235
     19 O1          7.5209   -7.1017   -4.6983 O.2       1 <0>        -0.4979
     20 C14         9.6414   -7.6762   -5.5375 C.3       1 <0>        -0.1320
     21 C15        10.9900   -6.9610   -5.4750 C.3       1 <0>        -0.0665
     22 C16        11.9819   -7.6151   -6.4466 C.3       1 <0>        -0.1128
     23 C17        12.3921   -6.5206   -7.4551 C.3       1 <0>        -0.1254
     24 C18        12.1282   -5.1922   -6.7029 C.3       1 <0>        -0.1237
     25 C19        10.8279   -5.4956   -5.9162 C.3       1 <0>        -0.1241
     26 C20        11.5352   -7.0178   -4.0487 C.3       1 <0>        -0.1310
     27 C21        10.5042   -6.4570   -3.1040 C.2       1 <0>         0.5230
     28 O2         10.8659   -5.9296   -2.0741 O.2       1 <0>        -0.4965
     29 H1         -0.9525    1.9208    0.0259 H         1 <0>         0.1437
     30 H2          1.2116    3.1407    0.0070 H         1 <0>         0.1666
     31 H3         -0.9219   -0.5632    0.0082 H         1 <0>         0.1667
     32 H4          4.6108    1.1370   -0.1881 H         1 <0>         0.1016
     33 H5          5.2961   -0.0869    0.9132 H         1 <0>         0.0738
     34 H6          5.1859   -0.2235   -2.1357 H         1 <0>         0.0373
     35 H7          6.6426   -0.0339   -1.1299 H         1 <0>         0.0892
     36 H8          3.9922   -2.2957   -2.1471 H         1 <0>         0.0376
     37 H9          4.5541   -3.6593   -1.1498 H         1 <0>         0.0919
     38 H10         3.9172   -2.4807    0.9068 H         1 <0>         0.0739
     39 H11         2.5171   -2.4975   -0.1978 H         1 <0>         0.1013
     40 H12         6.2894   -2.3962   -3.0337 H         1 <0>         0.0338
     41 H13         7.6396   -1.9194   -1.9765 H         1 <0>         0.0768
     42 H14         7.3933   -4.0355   -0.7076 H         1 <0>         0.0768
     43 H15         6.0430   -4.5123   -1.7648 H         1 <0>         0.0665
     44 H16         7.5542   -4.4355   -3.7293 H         1 <0>         0.0656
     45 H17         8.9044   -3.9587   -2.6720 H         1 <0>         0.0680
     46 H18         8.6581   -6.0748   -1.4031 H         1 <0>         0.0965
     47 H19         7.3078   -6.5516   -2.4604 H         1 <0>         0.0949
     48 H20         9.7822   -8.7375   -5.3331 H         1 <0>         0.1123
     49 H21         9.2080   -7.5500   -6.5297 H         1 <0>         0.1155
     50 H22        12.8577   -7.9706   -5.9039 H         1 <0>         0.0751
     51 H23        11.5029   -8.4436   -6.9683 H         1 <0>         0.0748
     52 H24        13.4482   -6.6121   -7.7087 H         1 <0>         0.0699
     53 H25        11.7768   -6.5793   -8.3530 H         1 <0>         0.0686
     54 H26        12.9479   -4.9651   -6.0212 H         1 <0>         0.0700
     55 H27        11.9720   -4.3745   -7.4065 H         1 <0>         0.0701
     56 H28         9.9566   -5.3855   -6.5618 H         1 <0>         0.0744
     57 H29        10.7458   -4.8422   -5.0477 H         1 <0>         0.0652
     58 H30        11.7534   -8.0522   -3.7832 H         1 <0>         0.1126
     59 H31        12.4471   -6.4242   -3.9835 H         1 <0>         0.1155
@<TRIPOS>BOND
     1    1    6 ar
     2    1    2 ar
     3    1   29 1
     4    2    3 ar
     5    2   30 1
     6    3    4 ar
     7    4    5 ar
     8    4    7 1
     9    5    6 ar
    10    6   31 1
    11    7   12 1
    12    7    8 1
    13    8    9 1
    14    8   32 1
    15    8   33 1
    16    9   10 1
    17    9   34 1
    18    9   35 1
    19   10   11 1
    20   10   13 1
    21   11   12 1
    22   11   36 1
    23   11   37 1
    24   12   38 1
    25   12   39 1
    26   13   14 1
    27   13   40 1
    28   13   41 1
    29   14   15 1
    30   14   42 1
    31   14   43 1
    32   15   16 1
    33   15   44 1
    34   15   45 1
    35   16   17 1
    36   16   46 1
    37   16   47 1
    38   17   27 am
    39   17   18 am
    40   18   19 2
    41   18   20 1
    42   20   21 1
    43   20   48 1
    44   20   49 1
    45   21   25 1
    46   21   22 1
    47   21   26 1
    48   22   23 1
    49   22   50 1
    50   22   51 1
    51   23   24 1
    52   23   52 1
    53   23   53 1
    54   24   25 1
    55   24   54 1
    56   24   55 1
    57   25   56 1
    58   25   57 1
    59   26   27 1
    60   26   58 1
    61   26   59 1
    62   27   28 2
@<TRIPOS>MOLECULE
ZINC29560054
   52    55     0     0     0
SMALL
USER_CHARGES
(2R)-2-[[3-(morpholinomethyl)-2H-chromen-8-yl]oxymethyl]morpholine
@<TRIPOS>ATOM
      1 C1         -0.0126    1.0758    0.0080 C.ar      1 <0>        -0.1049
      2 C2          1.1763    1.7794    0.0004 C.ar      1 <0>        -0.1005
      3 C3          1.1546    3.1697    0.0129 C.ar      1 <0>        -0.0845
      4 C4         -0.0688    3.8523    0.0123 C.ar      1 <0>         0.1041
      5 C5         -1.2556    3.1350    0.0235 C.ar      1 <0>         0.0993
      6 C6         -1.2221    1.7479    0.0173 C.ar      1 <0>        -0.1762
      7 O1         -2.4482    3.7888    0.0353 O.3       1 <0>        -0.2930
      8 C7         -3.6291    2.9842    0.0464 C.3       1 <0>         0.0640
      9 C8         -4.8627    3.8891    0.0587 C.3       1 <0>         0.0682
     10 H1         -4.8134    4.6374   -0.7461 H         1 <0>         0.1001
     11 C9         -6.1264    3.0322   -0.0531 C.3       1 <0>        -0.0312
     12 N1         -7.3100    3.8996    0.0378 N.4       1 <0>        -0.5346
     13 C10        -7.3152    4.6440    1.3056 C.3       1 <0>        -0.0428
     14 C11        -6.0394    5.4848    1.4026 C.3       1 <0>         0.0310
     15 O2         -4.9000    4.6289    1.2820 O.3       1 <0>        -0.3503
     16 O3         -0.0656    5.2104   -0.0077 O.3       1 <0>        -0.2981
     17 C12         1.0020    5.8750    0.6676 C.3       1 <0>         0.1043
     18 C13         2.3271    5.2573    0.3059 C.2       1 <0>        -0.1389
     19 C14         2.4018    3.9634    0.0095 C.2       1 <0>        -0.1040
     20 C15         3.5709    6.1078    0.2794 C.3       1 <0>         0.0907
     21 N2          3.6823    6.7718   -1.0263 N.3       1 <0>        -0.5321
     22 C16         3.9137    5.7920   -2.0976 C.3       1 <0>         0.0126
     23 C17         3.9636    6.5186   -3.4443 C.3       1 <0>         0.0623
     24 O4          4.9804    7.5233   -3.4007 O.3       1 <0>        -0.3831
     25 C18         4.7861    8.4947   -2.3691 C.3       1 <0>         0.0613
     26 C19         4.7445    7.7881   -1.0116 C.3       1 <0>         0.0159
     27 H2          0.0021   -0.0041    0.0020 H         1 <0>         0.1341
     28 H3          2.1185    1.2519   -0.0155 H         1 <0>         0.1350
     29 H4         -2.1462    1.1890    0.0237 H         1 <0>         0.1323
     30 H5         -3.6488    2.3496   -0.8519 H         1 <0>         0.0900
     31 H6         -3.6315    2.3488    0.9443 H         1 <0>         0.0826
     32 H7         -6.1283    2.5060   -1.0191 H         1 <0>         0.1496
     33 H8         -6.1445    2.2970    0.7649 H         1 <0>         0.1425
     34 H9         -7.3030    4.6179   -0.7952 H         1 <0>         0.4530
     35 H10        -8.1949    5.3036    1.3399 H         1 <0>         0.1471
     36 H11        -7.3548    3.9359    2.1464 H         1 <0>         0.1379
     37 H12        -6.0285    6.2293    0.5929 H         1 <0>         0.0826
     38 H13        -6.0125    5.9996    2.3743 H         1 <0>         0.1428
     39 H14         1.0140    6.9364    0.3790 H         1 <0>         0.1239
     40 H15         0.8561    5.7922    1.7547 H         1 <0>         0.0703
     41 H16         3.3746    3.5093   -0.2301 H         1 <0>         0.1377
     42 H17         3.5128    6.8671    1.0732 H         1 <0>         0.0909
     43 H18         4.4534    5.4721    0.4440 H         1 <0>         0.0513
     44 H19         4.8688    5.2753   -1.9219 H         1 <0>         0.0448
     45 H20         3.0953    5.0571   -2.1054 H         1 <0>         0.0886
     46 H21         4.1926    5.7968   -4.2421 H         1 <0>         0.1002
     47 H22         2.9893    6.9886   -3.6437 H         1 <0>         0.0600
     48 H23         5.6163    9.2162   -2.3838 H         1 <0>         0.1028
     49 H24         3.8370    9.0244   -2.5382 H         1 <0>         0.0612
     50 H25         4.5378    8.5230   -0.2197 H         1 <0>         0.0902
     51 H26         5.7130    7.3036   -0.8184 H         1 <0>         0.0470
     52 H27        -8.2204    3.2845   -0.0161 H         1 <0>         0.4620
@<TRIPOS>BOND
     1    1    6 ar
     2    1    2 ar
     3    1   27 1
     4    2    3 ar
     5    2   28 1
     6    3   19 1
     7    3    4 ar
     8    4    5 ar
     9    4   16 1
    10    5    6 ar
    11    5    7 1
    12    6   29 1
    13    7    8 1
    14    8    9 1
    15    8   30 1
    16    8   31 1
    17    9   10 1
    18    9   15 1
    19    9   11 1
    20   11   12 1
    21   11   32 1
    22   11   33 1
    23   12   13 1
    24   12   34 1
    25   12   52 1
    26   13   14 1
    27   13   35 1
    28   13   36 1
    29   14   15 1
    30   14   37 1
    31   14   38 1
    32   16   17 1
    33   17   18 1
    34   17   39 1
    35   17   40 1
    36   18   19 2
    37   18   20 1
    38   19   41 1
    39   20   21 1
    40   20   42 1
    41   20   43 1
    42   21   26 1
    43   21   22 1
    44   22   23 1
    45   22   44 1
    46   22   45 1
    47   23   24 1
    48   23   46 1
    49   23   47 1
    50   24   25 1
    51   25   26 1
    52   25   48 1
    53   25   49 1
    54   26   50 1
    55   26   51 1
@<TRIPOS>MOLECULE
ZINC29560057
   52    55     0     0     0
SMALL
USER_CHARGES

@<TRIPOS>ATOM
      1 C1         -0.0167    1.3795    0.0096 C.ar      1 <0>        -0.1047
      2 C2          1.1661    2.0933    0.0022 C.ar      1 <0>        -0.1003
      3 C3          2.3801    1.4154   -0.0187 C.ar      1 <0>        -0.0857
      4 C4          2.4015    0.0148   -0.0093 C.ar      1 <0>         0.1041
      5 C5          1.2077   -0.6908   -0.0060 C.ar      1 <0>         0.0991
      6 C6          0.0021   -0.0041    0.0020 C.ar      1 <0>        -0.1760
      7 O1          1.2185   -2.0508   -0.0111 O.3       1 <0>        -0.2929
      8 C7         -0.0495   -2.7097   -0.0073 C.3       1 <0>         0.0654
      9 C8          0.1631   -4.2249   -0.0139 C.3       1 <0>         0.0696
     10 H1          0.7931   -4.5003   -0.8597 H         1 <0>         0.1002
     11 C9         -1.1901   -4.9304   -0.1333 C.3       1 <0>        -0.0391
     12 N1         -0.9879   -6.3849   -0.0809 N.4       1 <0>        -0.5035
     13 C10        -0.3574   -6.7450    1.1965 C.3       1 <0>        -0.0465
     14 C11         0.9943   -6.0361    1.3134 C.3       1 <0>         0.0332
     15 O2          0.7978   -4.6235    1.2043 O.3       1 <0>        -0.3423
     16 O3          3.5994   -0.6254    0.0189 O.3       1 <0>        -0.2978
     17 C12         4.6888   -0.0090   -0.6673 C.3       1 <0>         0.1066
     18 C13         4.7726    1.4555   -0.3263 C.2       1 <0>        -0.1378
     19 C14         3.6698    2.1377   -0.0331 C.2       1 <0>        -0.1010
     20 C15         6.1102    2.1496   -0.3175 C.3       1 <0>         0.0923
     21 N2          6.7556    1.9524    0.9874 N.3       1 <0>        -0.5328
     22 C16         6.0078    2.6347    2.0535 C.3       1 <0>         0.0139
     23 C17         6.6796    2.3543    3.4004 C.3       1 <0>         0.0639
     24 O4          8.0454    2.7745    3.3428 O.3       1 <0>        -0.3834
     25 C18         8.8034    2.1294    2.3159 C.3       1 <0>         0.0630
     26 C19         8.1532    2.4075    0.9580 C.3       1 <0>         0.0169
     27 H2         -0.9607    1.9040    0.0260 H         1 <0>         0.1342
     28 H3          1.1479    3.1731    0.0122 H         1 <0>         0.1351
     29 H4         -0.9280   -0.5531    0.0027 H         1 <0>         0.1324
     30 H5         -0.6044   -2.4246    0.8865 H         1 <0>         0.0822
     31 H6         -0.6132   -2.4180   -0.8934 H         1 <0>         0.0893
     32 H7         -1.8344   -4.6230    0.6904 H         1 <0>         0.1457
     33 H8         -1.6577   -4.6621   -1.0807 H         1 <0>         0.1504
     34 H9         -1.8790   -6.8515   -0.1597 H         1 <0>         0.4389
     35 H10        -1.0020   -6.4369    2.0197 H         1 <0>         0.1423
     36 H11        -0.2068   -7.8238    1.2363 H         1 <0>         0.1484
     37 H12         1.4443   -6.2675    2.2788 H         1 <0>         0.1449
     38 H13         1.6530   -6.3742    0.5135 H         1 <0>         0.0838
     39 H14         5.6186   -0.4987   -0.3779 H         1 <0>         0.1221
     40 H15         4.5449   -0.1197   -1.7420 H         1 <0>         0.0690
     41 H16         3.7151    3.1936    0.1895 H         1 <0>         0.1350
     42 H17         6.7414    1.7321   -1.1018 H         1 <0>         0.0901
     43 H18         5.9675    3.2156   -0.4948 H         1 <0>         0.0511
     44 H19         6.0036    3.7083    1.8653 H         1 <0>         0.0448
     45 H20         4.9830    2.2641    2.0738 H         1 <0>         0.0879
     46 H21         6.1624    2.9044    4.1865 H         1 <0>         0.0993
     47 H22         6.6360    1.2863    3.6135 H         1 <0>         0.0598
     48 H23         9.8223    2.5168    2.3177 H         1 <0>         0.1016
     49 H24         8.8216    1.0548    2.4974 H         1 <0>         0.0608
     50 H25         8.6944    1.8711    0.1786 H         1 <0>         0.0894
     51 H26         8.1833    3.4775    0.7523 H         1 <0>         0.0468
     52 H27        -0.3906   -6.6691   -0.8429 H         1 <0>         0.4307
@<TRIPOS>BOND
     1    1    6 ar
     2    1    2 ar
     3    1   27 1
     4    2    3 ar
     5    2   28 1
     6    3   19 1
     7    3    4 ar
     8    4    5 ar
     9    4   16 1
    10    5    6 ar
    11    5    7 1
    12    6   29 1
    13    7    8 1
    14    8    9 1
    15    8   30 1
    16    8   31 1
    17    9   10 1
    18    9   15 1
    19    9   11 1
    20   11   12 1
    21   11   32 1
    22   11   33 1
    23   12   13 1
    24   12   34 1
    25   12   52 1
    26   13   14 1
    27   13   35 1
    28   13   36 1
    29   14   15 1
    30   14   37 1
    31   14   38 1
    32   16   17 1
    33   17   18 1
    34   17   39 1
    35   17   40 1
    36   18   19 2
    37   18   20 1
    38   19   41 1
    39   20   21 1
    40   20   42 1
    41   20   43 1
    42   21   26 1
    43   21   22 1
    44   22   23 1
    45   22   44 1
    46   22   45 1
    47   23   24 1
    48   23   46 1
    49   23   47 1
    50   24   25 1
    51   25   26 1
    52   25   48 1
    53   25   49 1
    54   26   50 1
    55   26   51 1
@<TRIPOS>MOLECULE
ZINC13766152
   36    39     0     0     0
SMALL
USER_CHARGES
7-fluoro-4-piperazin-1-yl-pyrrolo[1,2-a]quinoxaline
@<TRIPOS>ATOM
      1 C1         -3.4022    2.8245    0.0468 C.2       1 <0>        -0.1668
      2 C2         -2.6061    1.6744    0.0344 C.2       1 <0>        -0.1324
      3 C3         -1.2930    2.0919    0.0195 C.2       1 <0>        -0.0406
      4 C4         -0.0167    1.3776    0.0096 C.2       1 <0>         0.4056
      5 N1          1.1129    2.0507    0.0024 N.2       1 <0>        -0.5189
      6 C5          1.1262    3.4098    0.0091 C.ar      1 <0>         0.1313
      7 C6          2.3480    4.0939    0.0011 C.ar      1 <0>        -0.1113
      8 C7          2.3643    5.4724    0.0055 C.ar      1 <0>         0.1177
      9 C8          1.1751    6.1888    0.0202 C.ar      1 <0>        -0.1214
     10 C9         -0.0365    5.5283    0.0291 C.ar      1 <0>        -0.0882
     11 C10        -0.0716    4.1407    0.0235 C.ar      1 <0>         0.0731
     12 N2         -1.2927    3.4714    0.0316 N.pl3     1 <0>        -0.3537
     13 C11        -2.5792    3.9015    0.0448 C.2       1 <0>         0.0174
     14 F1          3.5444    6.1301   -0.0036 F         1 <0>        -0.1229
     15 N3          0.0021   -0.0041    0.0020 N.pl3     1 <0>        -0.4663
     16 C12        -0.7648   -0.5349   -1.1337 C.3       1 <0>         0.0199
     17 C13        -0.7862   -2.0636   -1.0614 C.3       1 <0>         0.0028
     18 C14         1.3596   -2.0406    0.0584 C.3       1 <0>        -0.0008
     19 C15         1.3810   -0.5120   -0.0139 C.3       1 <0>         0.0345
     20 H1         -4.4819    2.8498    0.0559 H         1 <0>         0.1606
     21 H2         -2.9547    0.6522    0.0329 H         1 <0>         0.1534
     22 H3          3.2764    3.5422   -0.0096 H         1 <0>         0.1565
     23 H4          1.1983    7.2685    0.0242 H         1 <0>         0.1560
     24 H5         -0.9580    6.0913    0.0402 H         1 <0>         0.1487
     25 H6         -2.8961    4.9339    0.0528 H         1 <0>         0.1799
     26 H7         -1.7855   -0.1546   -1.0928 H         1 <0>         0.1396
     27 H8         -0.2967   -0.2215   -2.0668 H         1 <0>         0.0773
     28 H9         -1.3298   -2.4606   -1.9186 H         1 <0>         0.1467
     29 H10        -1.2786   -2.3772   -0.1409 H         1 <0>         0.1444
     30 H11         2.3803   -2.4209    0.0176 H         1 <0>         0.1451
     31 H12         0.8918   -2.3540    0.9917 H         1 <0>         0.1417
     32 H13         1.8735   -0.1983   -0.9343 H         1 <0>         0.0817
     33 H14         1.9247   -0.1149    0.8434 H         1 <0>         0.1356
     34 N4          0.5964   -2.5777   -1.0840 N.4       1 <0>        -0.5203
     35 H15         1.0502   -2.2914   -1.9594 H         1 <0>         0.4325
     36 H16         0.5779   -3.6027   -1.0275 H         1 <0>         0.4416
@<TRIPOS>BOND
     1    1   13 2
     2    1    2 1
     3    1   20 1
     4    2    3 2
     5    2   21 1
     6    3   12 1
     7    3    4 1
     8    4    5 2
     9    4   15 1
    10    5    6 1
    11    6   11 ar
    12    6    7 ar
    13    7    8 ar
    14    7   22 1
    15    8    9 ar
    16    8   14 1
    17    9   10 ar
    18    9   23 1
    19   10   11 ar
    20   10   24 1
    21   11   12 1
    22   12   13 1
    23   13   25 1
    24   15   19 1
    25   15   16 1
    26   16   17 1
    27   16   26 1
    28   16   27 1
    29   17   28 1
    30   17   29 1
    31   17   34 1
    32   18   19 1
    33   18   30 1
    34   18   31 1
    35   18   34 1
    36   19   32 1
    37   19   33 1
    38   34   35 1
    39   34   36 1
@<TRIPOS>MOLECULE
ZINC02021499
   56    58     0     0     0
SMALL
USER_CHARGES
4,4-dimethyl-1-[4-(4-pyrimidin-2-ylpiperazin-1-yl)butyl]piperidine-2,6-dione
@<TRIPOS>ATOM
      1 C1         -2.4128    2.7254   -7.4483 C.3       1 <0>        -0.1434
      2 C2         -1.6026    2.1703   -6.2751 C.3       1 <0>        -0.0679
      3 C3         -1.0877    3.3272   -5.4122 C.3       1 <0>        -0.1367
      4 C4         -0.3906    2.7678   -4.2003 C.2       1 <0>         0.5272
      5 O1          0.5087    3.3987   -3.6878 O.2       1 <0>        -0.4989
      6 N1         -0.7451    1.5845   -3.6772 N.am      1 <0>        -0.5688
      7 C5         -1.7192    0.8257   -4.2012 C.2       1 <0>         0.5272
      8 O2         -1.9817   -0.2415   -3.6894 O.2       1 <0>        -0.4987
      9 C6         -2.4969    1.2764   -5.4095 C.3       1 <0>        -0.1365
     10 C7         -0.0366    1.0992   -2.4903 C.3       1 <0>         0.0906
     11 C8         -0.7527    1.5927   -1.2315 C.3       1 <0>        -0.1292
     12 C9         -0.0127    1.0858    0.0080 C.3       1 <0>        -0.1458
     13 C10        -0.7288    1.5792    1.2668 C.3       1 <0>        -0.0022
     14 C11        -0.1049   -0.3708    2.5603 C.3       1 <0>         0.0002
     15 C12         0.7121   -0.8436    3.7650 C.3       1 <0>         0.0374
     16 N2          0.1999   -0.2013    4.9835 N.pl3     1 <0>        -0.4630
     17 C13         0.2864    1.2621    4.8801 C.3       1 <0>         0.0416
     18 C14        -0.5306    1.7349    3.6754 C.3       1 <0>         0.0013
     19 C15         0.8693   -0.6598    6.1048 C.ar      1 <0>         0.4747
     20 N3          1.4743    0.2119    6.8983 N.ar      1 <0>        -0.5508
     21 C16         2.1180   -0.1926    7.9808 C.ar      1 <0>         0.1778
     22 C17         2.1641   -1.5466    8.2736 C.ar      1 <0>        -0.2368
     23 C18         1.5253   -2.4315    7.4192 C.ar      1 <0>         0.1795
     24 N4          0.8945   -1.9604    6.3562 N.ar      1 <0>        -0.5241
     25 C19        -0.4190    1.3592   -6.8063 C.3       1 <0>        -0.1546
     26 H1         -1.7788    3.3738   -8.0531 H         1 <0>         0.0687
     27 H2         -2.7778    1.9006   -8.0604 H         1 <0>         0.0688
     28 H3         -3.2589    3.2973   -7.0673 H         1 <0>         0.0647
     29 H4         -1.9266    3.9473   -5.0961 H         1 <0>         0.1148
     30 H5         -0.3864    3.9289   -5.9905 H         1 <0>         0.1187
     31 H6         -3.3761    1.8377   -5.0932 H         1 <0>         0.1152
     32 H7         -2.8079    0.4050   -5.9857 H         1 <0>         0.1185
     33 H8          0.9860    1.4765   -2.4981 H         1 <0>         0.0987
     34 H9         -0.0218    0.0093   -2.4963 H         1 <0>         0.0990
     35 H10        -1.7753    1.2154   -1.2238 H         1 <0>         0.0798
     36 H11        -0.7675    2.6825   -1.2255 H         1 <0>         0.0797
     37 H12         0.0021   -0.0041    0.0020 H         1 <0>         0.0913
     38 H13         1.0099    1.4631    0.0003 H         1 <0>         0.0912
     39 H14        -0.7436    2.6691    1.2728 H         1 <0>         0.1323
     40 H15        -1.7514    1.2020    1.2746 H         1 <0>         0.1342
     41 H16        -1.1464   -0.6653    2.6890 H         1 <0>         0.1443
     42 H17         0.2918   -0.8236    1.6516 H         1 <0>         0.1419
     43 H18         1.7585   -0.5730    3.6236 H         1 <0>         0.0691
     44 H19         0.6262   -1.9260    3.8608 H         1 <0>         0.1395
     45 H20         1.3280    1.5566    4.7514 H         1 <0>         0.0786
     46 H21        -0.1102    1.7149    5.7888 H         1 <0>         0.1342
     47 H22        -0.4443    2.8173    3.5797 H         1 <0>         0.1416
     48 H23        -1.5770    1.4646    3.8166 H         1 <0>         0.1412
     49 H24         2.6058    0.5230    8.6260 H         1 <0>         0.1778
     50 H25         2.6862   -1.9044    9.1488 H         1 <0>         0.1582
     51 H26         1.5421   -3.4927    7.6190 H         1 <0>         0.1800
     52 H27         0.1526    0.9595   -5.9687 H         1 <0>         0.0492
     53 H28        -0.7880    0.5371   -7.4196 H         1 <0>         0.0715
     54 H29         0.2215    2.0031   -7.4090 H         1 <0>         0.0714
     55 N5          0.0087    1.0990    2.4548 N.4       1 <0>        -0.3999
     56 H30         0.9993    1.3510    2.3569 H         1 <0>         0.4258
@<TRIPOS>BOND
     1    1    2 1
     2    1   26 1
     3    1   27 1
     4    1   28 1
     5    2    9 1
     6    2    3 1
     7    2   25 1
     8    3    4 1
     9    3   29 1
    10    3   30 1
    11    4    5 2
    12    4    6 am
    13    6    7 am
    14    6   10 1
    15    7    8 2
    16    7    9 1
    17    9   31 1
    18    9   32 1
    19   10   11 1
    20   10   33 1
    21   10   34 1
    22   11   12 1
    23   11   35 1
    24   11   36 1
    25   12   13 1
    26   12   37 1
    27   12   38 1
    28   13   39 1
    29   13   40 1
    30   13   55 1
    31   14   15 1
    32   14   41 1
    33   14   42 1
    34   14   55 1
    35   15   16 1
    36   15   43 1
    37   15   44 1
    38   16   17 1
    39   16   19 1
    40   17   18 1
    41   17   45 1
    42   17   46 1
    43   18   47 1
    44   18   48 1
    45   18   55 1
    46   19   24 ar
    47   19   20 ar
    48   20   21 ar
    49   21   22 ar
    50   21   49 1
    51   22   23 ar
    52   22   50 1
    53   23   24 ar
    54   23   51 1
    55   25   52 1
    56   25   53 1
    57   25   54 1
    58   55   56 1
@<TRIPOS>MOLECULE
ZINC01915508
   64    68     0     0     0
SMALL
USER_CHARGES
8-[4-[4-(9-thia-8-azabicyclo[4.3.0]nona-2,4,7,10-tetraen-7-yl)piperazin-1-yl]butyl]-8-azaspiro[4.5]decane-7,9-dione
@<TRIPOS>ATOM
      1 C1         -0.1854    3.0363    3.0585 C.ar      1 <0>        -0.1227
      2 C2          0.9702    2.2871    2.8731 C.ar      1 <0>        -0.0631
      3 C3          1.7797    2.5384    1.7969 C.ar      1 <0>        -0.0775
      4 C4          1.4398    3.5390    0.9109 C.ar      1 <0>        -0.1195
      5 C5          0.2738    4.3208    1.0775 C.ar      1 <0>        -0.1259
      6 C6         -0.5340    4.0311    2.1987 C.ar      1 <0>        -0.0351
      7 C7          0.1089    5.3174    0.0302 C.2       1 <0>         0.2965
      8 N1          0.9929    5.4074   -0.9213 N.2       1 <0>        -0.4531
      9 S1          2.1517    4.2026   -0.5700 S.3       1 <0>         0.2239
     10 N2         -0.9928    6.1742    0.0458 N.pl3     1 <0>        -0.4740
     11 C8         -1.8260    5.9826   -1.1494 C.3       1 <0>         0.0288
     12 C9         -3.0618    6.8807   -1.0559 C.3       1 <0>         0.0019
     13 C10        -1.8041    8.4738    0.2628 C.3       1 <0>         0.0063
     14 C11        -0.5684    7.5757    0.1693 C.3       1 <0>         0.0281
     15 C12        -3.7969    9.1840   -0.9159 C.3       1 <0>        -0.0018
     16 C13        -4.4982    9.1379   -2.2750 C.3       1 <0>        -0.1459
     17 C14        -5.7059   10.0771   -2.2578 C.3       1 <0>        -0.1286
     18 C15        -6.4072   10.0310   -3.6168 C.3       1 <0>         0.0907
     19 N3         -7.5636   10.9302   -3.6003 N.am      1 <0>        -0.5674
     20 C16        -8.7518   10.4404   -3.2171 C.2       1 <0>         0.5275
     21 O1         -8.8357    9.2783   -2.8824 O.2       1 <0>        -0.4991
     22 C17        -9.9833   11.3079   -3.1892 C.3       1 <0>        -0.1340
     23 C18        -9.5725   12.7603   -2.9521 C.3       1 <0>        -0.0662
     24 C19       -10.8015   13.6767   -3.0258 C.3       1 <0>        -0.1145
     25 C20       -10.9201   14.3606   -1.6469 C.3       1 <0>        -0.1263
     26 C21        -9.4840   14.3020   -1.0687 C.3       1 <0>        -0.1244
     27 C22        -8.9806   12.9141   -1.5400 C.3       1 <0>        -0.1218
     28 C23        -8.5400   13.1786   -3.9978 C.3       1 <0>        -0.1329
     29 C24        -7.3893   12.2063   -3.9743 C.2       1 <0>         0.5269
     30 O2         -6.2846   12.5847   -4.3000 O.2       1 <0>        -0.4987
     31 H1         -0.8189    2.8271    3.9078 H         1 <0>         0.1379
     32 H2          1.2271    1.5059    3.5731 H         1 <0>         0.1446
     33 H3          2.6772    1.9577    1.6438 H         1 <0>         0.1426
     34 H4         -1.4362    4.5989    2.3719 H         1 <0>         0.1355
     35 H5         -1.2524    6.2448   -2.0384 H         1 <0>         0.0752
     36 H6         -2.1380    4.9401   -1.2119 H         1 <0>         0.1258
     37 H7         -3.6497    6.6005   -0.1819 H         1 <0>         0.1430
     38 H8         -3.6669    6.7619   -1.9547 H         1 <0>         0.1398
     39 H9         -2.3778    8.2117    1.1518 H         1 <0>         0.1425
     40 H10        -1.4921    9.5163    0.3257 H         1 <0>         0.1394
     41 H11         0.0365    7.6946    1.0683 H         1 <0>         0.1260
     42 H12         0.0195    7.8560   -0.7047 H         1 <0>         0.0753
     43 H13        -4.4917    8.8682   -0.1377 H         1 <0>         0.1343
     44 H14        -3.4629   10.2016   -0.7137 H         1 <0>         0.1317
     45 H15        -3.8034    9.4537   -3.0532 H         1 <0>         0.0910
     46 H16        -4.8321    8.1202   -2.4772 H         1 <0>         0.0910
     47 H17        -6.4007    9.7613   -1.4795 H         1 <0>         0.0800
     48 H18        -5.3719   11.0947   -2.0556 H         1 <0>         0.0795
     49 H19        -5.7124   10.3468   -4.3951 H         1 <0>         0.0985
     50 H20        -6.7411    9.0133   -3.8190 H         1 <0>         0.0987
     51 H21       -10.6438   10.9805   -2.3863 H         1 <0>         0.1190
     52 H22       -10.5031   11.2276   -4.1439 H         1 <0>         0.1155
     53 H23       -10.6624   14.4268   -3.8044 H         1 <0>         0.0769
     54 H24       -11.6956   13.0875   -3.2291 H         1 <0>         0.0769
     55 H25       -11.6116   13.8121   -1.0073 H         1 <0>         0.0700
     56 H26       -11.2444   15.3952   -1.7587 H         1 <0>         0.0725
     57 H27        -9.5035   14.3564    0.0198 H         1 <0>         0.0709
     58 H28        -8.8653   15.0981   -1.4826 H         1 <0>         0.0705
     59 H29        -9.3535   12.1291   -0.8821 H         1 <0>         0.0742
     60 H30        -7.8914   12.8959   -1.5784 H         1 <0>         0.0612
     61 H31        -8.1754   14.1800   -3.7693 H         1 <0>         0.1185
     62 H32        -9.0001   13.1744   -4.9859 H         1 <0>         0.1158
     63 N4         -2.6214    8.2879   -0.9547 N.4       1 <0>        -0.3991
     64 H33        -2.0524    8.5196   -1.7774 H         1 <0>         0.4266
@<TRIPOS>BOND
     1    1    6 ar
     2    1    2 ar
     3    1   31 1
     4    2    3 ar
     5    2   32 1
     6    3    4 ar
     7    3   33 1
     8    4    9 1
     9    4    5 ar
    10    5    6 ar
    11    5    7 1
    12    6   34 1
    13    7    8 2
    14    7   10 1
    15    8    9 1
    16   10   14 1
    17   10   11 1
    18   11   12 1
    19   11   35 1
    20   11   36 1
    21   12   37 1
    22   12   38 1
    23   12   63 1
    24   13   14 1
    25   13   39 1
    26   13   40 1
    27   13   63 1
    28   14   41 1
    29   14   42 1
    30   15   16 1
    31   15   43 1
    32   15   44 1
    33   15   63 1
    34   16   17 1
    35   16   45 1
    36   16   46 1
    37   17   18 1
    38   17   47 1
    39   17   48 1
    40   18   19 1
    41   18   49 1
    42   18   50 1
    43   19   29 am
    44   19   20 am
    45   20   21 2
    46   20   22 1
    47   22   23 1
    48   22   51 1
    49   22   52 1
    50   23   27 1
    51   23   24 1
    52   23   28 1
    53   24   25 1
    54   24   53 1
    55   24   54 1
    56   25   26 1
    57   25   55 1
    58   25   56 1
    59   26   27 1
    60   26   57 1
    61   26   58 1
    62   27   59 1
    63   27   60 1
    64   28   29 1
    65   28   61 1
    66   28   62 1
    67   29   30 2
    68   63   64 1
@<TRIPOS>MOLECULE
ZINC00014360
   42    43     0     0     0
SMALL
USER_CHARGES

@<TRIPOS>ATOM
      1 C1         -0.0178    1.4608    0.0101 C.3       1 <0>         0.0793
      2 N1          0.0021   -0.0041    0.0020 N.pl3     1 <0>        -1.1235
      3 S1          0.7421   -0.8289    1.2326 S.o2      1 <0>         2.6084
      4 O1          0.5924   -2.2002    0.8914 O.2       1 <0>        -0.9468
      5 O2          2.0334   -0.2448    1.3355 O.2       1 <0>        -0.9510
      6 C2         -0.2382   -0.4417    2.7090 C.3       1 <0>        -0.5828
      7 C3          0.3516   -1.1474    3.9028 C.ar      1 <0>        -0.1049
      8 C4         -0.0784   -2.4267    4.2282 C.ar      1 <0>        -0.0826
      9 C5          0.4473   -3.0893    5.3155 C.ar      1 <0>        -0.1137
     10 C6          1.4193   -2.4726    6.0968 C.ar      1 <0>         0.1042
     11 C7          1.8519   -1.1765    5.7625 C.ar      1 <0>        -0.0991
     12 C8          1.3091   -0.5253    4.6530 C.ar      1 <0>        -0.0640
     13 C9          2.8614   -0.8166    6.7612 C.2       1 <0>        -0.2000
     14 C10         2.9754   -1.8603    7.5977 C.2       1 <0>         0.0879
     15 N2          2.1214   -2.8591    7.2163 N.pl3     1 <0>        -0.5851
     16 H1          2.0253   -3.7124    7.6673 H         1 <0>         0.4255
     17 C11         3.6270    0.4793    6.8351 C.3       1 <0>        -0.0627
     18 C12         2.7992    1.5182    7.5943 C.3       1 <0>        -0.0095
     19 N3          3.5455    2.7814    7.6664 N.4       1 <0>        -0.3881
     20 C13         3.7116    3.3299    6.3138 C.3       1 <0>        -0.0545
     21 C14         2.8051    3.7410    8.4964 C.3       1 <0>        -0.0469
     22 H2          1.0048    1.8381    0.0023 H         1 <0>         0.0693
     23 H3         -0.5450    1.8219   -0.8730 H         1 <0>         0.0876
     24 H4         -0.5280    1.8123    0.9069 H         1 <0>         0.0574
     25 H5         -0.4183   -0.4908   -0.7241 H         1 <0>         0.4222
     26 H6         -0.2266    0.6346    2.8808 H         1 <0>         0.1378
     27 H7         -1.2653   -0.7750    2.5608 H         1 <0>         0.1453
     28 H8         -0.8329   -2.9072    3.6230 H         1 <0>         0.1399
     29 H9          0.1057   -4.0841    5.5609 H         1 <0>         0.1340
     30 H10         1.6421    0.4681    4.3911 H         1 <0>         0.1262
     31 H11         3.6421   -1.9048    8.4461 H         1 <0>         0.1761
     32 H12         4.5701    0.3149    7.3563 H         1 <0>         0.0931
     33 H13         3.8275    0.8410    5.8266 H         1 <0>         0.0945
     34 H14         1.8561    1.6826    7.0732 H         1 <0>         0.1293
     35 H15         2.5988    1.1565    8.6029 H         1 <0>         0.1303
     36 H16         4.2654    4.2672    6.3673 H         1 <0>         0.1245
     37 H17         4.2611    2.6179    5.6980 H         1 <0>         0.1265
     38 H18         2.7316    3.5116    5.8726 H         1 <0>         0.1219
     39 H19         2.6818    3.3340    9.5001 H         1 <0>         0.1225
     40 H20         3.3588    4.6783    8.5499 H         1 <0>         0.1241
     41 H21         1.8251    3.9226    8.0552 H         1 <0>         0.1209
     42 H22         4.4527    2.6132    8.0749 H         1 <0>         0.4266
@<TRIPOS>BOND
     1    1    2 1
     2    1   22 1
     3    1   23 1
     4    1   24 1
     5    2    3 1
     6    2   25 1
     7    3    4 2
     8    3    5 2
     9    3    6 1
    10    6    7 1
    11    6   26 1
    12    6   27 1
    13    7   12 ar
    14    7    8 ar
    15    8    9 ar
    16    8   28 1
    17    9   10 ar
    18    9   29 1
    19   10   15 1
    20   10   11 ar
    21   11   12 ar
    22   11   13 1
    23   12   30 1
    24   13   14 2
    25   13   17 1
    26   14   15 1
    27   14   31 1
    28   15   16 1
    29   17   18 1
    30   17   32 1
    31   17   33 1
    32   18   19 1
    33   18   34 1
    34   18   35 1
    35   19   20 1
    36   19   21 1
    37   19   42 1
    38   20   36 1
    39   20   37 1
    40   20   38 1
    41   21   39 1
    42   21   40 1
    43   21   41 1
@<TRIPOS>MOLECULE
ZINC02516053
   32    32     0     0     0
SMALL
USER_CHARGES

@<TRIPOS>ATOM
      1 C1         -0.0187    1.5258    0.0104 C.3       1 <0>        -0.1837
      2 C2          0.0021   -0.0041    0.0020 C.3       1 <0>         0.0344
      3 H1          0.5293   -0.3651    0.8851 H         1 <0>         0.1407
      4 C3          0.7182   -0.4975   -1.2568 C.3       1 <0>        -0.0944
      5 C4          0.8473   -1.9981   -1.2057 C.ar      1 <0>        -0.0941
      6 C5          2.0025   -2.5757   -0.7149 C.ar      1 <0>        -0.1590
      7 C6          2.1215   -3.9563   -0.6678 C.ar      1 <0>         0.1458
      8 C7          1.0802   -4.7580   -1.1137 C.ar      1 <0>        -0.0982
      9 C8         -0.0748   -4.1803   -1.6044 C.ar      1 <0>        -0.1178
     10 C9         -0.1957   -2.7990   -1.6460 C.ar      1 <0>         0.0662
     11 O1         -1.3349   -2.2303   -2.1234 O.3       1 <0>        -0.3399
     12 C10        -2.3683   -3.1155   -2.5599 C.3       1 <0>         0.0160
     13 I1          1.2600   -6.8441   -1.0433 I         1 <0>         0.0067
     14 O2          3.2588   -4.5247   -0.1852 O.3       1 <0>        -0.2969
     15 C11         4.2899   -3.6392    0.2560 C.3       1 <0>         0.0216
     16 N1         -1.3761   -0.5125    0.0124 N.4       1 <0>        -0.6338
     17 H2          1.0039    1.9031    0.0027 H         1 <0>         0.1075
     18 H3         -0.5459    1.8868   -0.8726 H         1 <0>         0.0843
     19 H4         -0.5289    1.8773    0.9072 H         1 <0>         0.0848
     20 H5          0.1430   -0.2121   -2.1375 H         1 <0>         0.1074
     21 H6          1.7103   -0.0491   -1.3098 H         1 <0>         0.1218
     22 H7          2.8130   -1.9517   -0.3683 H         1 <0>         0.1510
     23 H8         -0.8853   -4.8040   -1.9514 H         1 <0>         0.1495
     24 H9         -2.6820   -3.7459   -1.7280 H         1 <0>         0.0642
     25 H10        -3.2186   -2.5338   -2.9159 H         1 <0>         0.1133
     26 H11        -1.9924   -3.7419   -3.3689 H         1 <0>         0.0693
     27 H12         4.6073   -3.0087   -0.5745 H         1 <0>         0.0621
     28 H13         3.9101   -3.0129    1.0633 H         1 <0>         0.0598
     29 H14         5.1387   -4.2206    0.6159 H         1 <0>         0.1128
     30 H15        -1.8641   -0.1783   -0.8050 H         1 <0>         0.4349
     31 H16        -1.3624   -1.5214    0.0069 H         1 <0>         0.4309
     32 H17        -1.8484   -0.1871    0.8426 H         1 <0>         0.4329
@<TRIPOS>BOND
     1    1    2 1
     2    1   17 1
     3    1   18 1
     4    1   19 1
     5    2    3 1
     6    2    4 1
     7    2   16 1
     8    4    5 1
     9    4   20 1
    10    4   21 1
    11    5   10 ar
    12    5    6 ar
    13    6    7 ar
    14    6   22 1
    15    7    8 ar
    16    7   14 1
    17    8    9 ar
    18    8   13 1
    19    9   10 ar
    20    9   23 1
    21   10   11 1
    22   11   12 1
    23   12   24 1
    24   12   25 1
    25   12   26 1
    26   14   15 1
    27   15   27 1
    28   15   28 1
    29   15   29 1
    30   16   30 1
    31   16   31 1
    32   16   32 1
@<TRIPOS>MOLECULE
ZINC13776458
   28    28     0     0     0
SMALL
USER_CHARGES
N-methyl-3-phenoxy-propan-1-amine
@<TRIPOS>ATOM
      1 C1         -3.6703   10.1703    0.0884 C.3       1 <0>        -0.0431
      2 C2         -2.5430    8.0275    0.0671 C.3       1 <0>        -0.0027
      3 C3         -1.1705    7.3515    0.0503 C.3       1 <0>        -0.1526
      4 C4         -1.3504    5.8322    0.0450 C.3       1 <0>         0.0621
      5 O1         -0.0685    5.2008    0.0293 O.3       1 <0>        -0.3146
      6 C5         -0.0501    3.8419    0.0227 C.ar      1 <0>         0.1177
      7 C6          1.1599    3.1635    0.0075 C.ar      1 <0>        -0.1464
      8 C7          1.1760    1.7822    0.0004 C.ar      1 <0>        -0.0770
      9 C8         -0.0126    1.0758    0.0080 C.ar      1 <0>        -0.1477
     10 C9         -1.2199    1.7496    0.0174 C.ar      1 <0>        -0.0800
     11 C10        -1.2413    3.1308    0.0307 C.ar      1 <0>        -0.2082
     12 H1         -3.5133   11.2489    0.0919 H         1 <0>         0.1273
     13 H2         -4.2399    9.8889   -0.7973 H         1 <0>         0.1235
     14 H3         -4.2222    9.8805    0.9825 H         1 <0>         0.1235
     15 H4         -3.1048    7.7313   -0.8187 H         1 <0>         0.1348
     16 H5         -3.0871    7.7229    0.9611 H         1 <0>         0.1348
     17 H6         -0.6088    7.6478    0.9362 H         1 <0>         0.0996
     18 H7         -0.6264    7.6562   -0.8437 H         1 <0>         0.0996
     19 H8         -1.9122    5.5359   -0.8409 H         1 <0>         0.0721
     20 H9         -1.8945    5.5275    0.9390 H         1 <0>         0.0721
     21 H10         2.0886    3.7149    0.0009 H         1 <0>         0.1325
     22 H11         2.1177    1.2536   -0.0114 H         1 <0>         0.1350
     23 H12         0.0021   -0.0041    0.0020 H         1 <0>         0.1296
     24 H13        -2.1470    1.1956    0.0184 H         1 <0>         0.1287
     25 H14        -2.1846    3.6567    0.0422 H         1 <0>         0.1245
     26 N1         -2.3608    9.4913    0.0722 N.4       1 <0>        -0.5184
     27 H15        -1.8279    9.7633    0.9066 H         1 <0>         0.4366
     28 H16        -1.8445    9.7713   -0.7699 H         1 <0>         0.4366
@<TRIPOS>BOND
     1    1   12 1
     2    1   13 1
     3    1   14 1
     4    1   26 1
     5    2    3 1
     6    2   15 1
     7    2   16 1
     8    2   26 1
     9    3    4 1
    10    3   17 1
    11    3   18 1
    12    4    5 1
    13    4   19 1
    14    4   20 1
    15    5    6 1
    16    6   11 ar
    17    6    7 ar
    18    7    8 ar
    19    7   21 1
    20    8    9 ar
    21    8   22 1
    22    9   10 ar
    23    9   23 1
    24   10   11 ar
    25   10   24 1
    26   11   25 1
    27   26   27 1
    28   26   28 1
@<TRIPOS>MOLECULE
ZINC02518841
   34    35     0     0     0
SMALL
USER_CHARGES
N,N-dimethyl-2-(1-naphthyloxy)ethanamine
@<TRIPOS>ATOM
      1 C1         -5.1907    3.6957   -2.3317 C.3       1 <0>        -0.0488
      2 C2         -6.0134    5.6164   -1.1082 C.3       1 <0>        -0.0426
      3 C3         -4.9013    3.8164    0.0692 C.3       1 <0>         0.0036
      4 C4         -3.6562    2.9274    0.0532 C.3       1 <0>         0.0229
      5 O1         -2.4857    3.7471    0.0459 O.3       1 <0>        -0.3257
      6 C5         -1.2867    3.1096    0.0315 C.ar      1 <0>         0.1265
      7 C6         -1.2335    1.7440    0.0174 C.ar      1 <0>        -0.2041
      8 C7         -0.0126    1.0758    0.0080 C.ar      1 <0>        -0.0864
      9 C8          1.1637    1.7618    0.0004 C.ar      1 <0>        -0.1214
     10 C9          1.1521    3.1670    0.0080 C.ar      1 <0>        -0.0229
     11 C10        -0.0883    3.8519    0.0236 C.ar      1 <0>        -0.0635
     12 C11        -0.1002    5.2560    0.0304 C.ar      1 <0>        -0.1004
     13 C12         1.0769    5.9397    0.0224 C.ar      1 <0>        -0.1136
     14 C13         2.2972    5.2668    0.0074 C.ar      1 <0>        -0.1015
     15 C14         2.3471    3.9067    0.0001 C.ar      1 <0>        -0.1067
     16 H1         -6.1280    3.1551   -2.2000 H         1 <0>         0.1259
     17 H2         -5.2387    4.2892   -3.2447 H         1 <0>         0.1255
     18 H3         -4.3679    2.9844   -2.4036 H         1 <0>         0.1193
     19 H4         -5.7887    6.3013   -0.2906 H         1 <0>         0.1228
     20 H5         -6.0440    6.1691   -2.0472 H         1 <0>         0.1241
     21 H6         -6.9804    5.1453   -0.9322 H         1 <0>         0.1243
     22 H7         -5.7910    3.1940    0.1643 H         1 <0>         0.1513
     23 H8         -4.8465    4.5033    0.9138 H         1 <0>         0.1412
     24 H9         -3.6676    2.3023   -0.8397 H         1 <0>         0.0879
     25 H10        -3.6506    2.2939    0.9402 H         1 <0>         0.1100
     26 H11        -2.1517    1.1754    0.0187 H         1 <0>         0.1270
     27 H12         0.0021   -0.0041    0.0020 H         1 <0>         0.1314
     28 H13         2.1024    1.2278   -0.0118 H         1 <0>         0.1354
     29 H14        -1.0385    5.7907    0.0417 H         1 <0>         0.1256
     30 H15         1.0649    7.0197    0.0273 H         1 <0>         0.1283
     31 H16         3.2169    5.8329    0.0013 H         1 <0>         0.1309
     32 H17         3.3000    3.3985   -0.0122 H         1 <0>         0.1361
     33 N1         -4.9464    4.5964   -1.1855 N.4       1 <0>        -0.4003
     34 H18        -4.0437    5.0675   -1.3180 H         1 <0>         0.4380
@<TRIPOS>BOND
     1    1   16 1
     2    1   17 1
     3    1   18 1
     4    1   33 1
     5    2   19 1
     6    2   20 1
     7    2   21 1
     8    2   33 1
     9    3    4 1
    10    3   22 1
    11    3   23 1
    12    3   33 1
    13    4    5 1
    14    4   24 1
    15    4   25 1
    16    5    6 1
    17    6   11 ar
    18    6    7 ar
    19    7    8 ar
    20    7   26 1
    21    8    9 ar
    22    8   27 1
    23    9   10 ar
    24    9   28 1
    25   10   15 ar
    26   10   11 ar
    27   11   12 ar
    28   12   13 ar
    29   12   29 1
    30   13   14 ar
    31   13   30 1
    32   14   15 ar
    33   14   31 1
    34   15   32 1
    35   33   34 1
@<TRIPOS>MOLECULE
ZINC00598510
   69    73     0     0     0
SMALL
USER_CHARGES
N-[4-methoxy-3-(4-methylpiperazin-1-yl)-phenyl]-4-[2-methyl-4-(5-methyl-1,3,4-oxadiazol-2-yl)-phenyl]-benzamide
@<TRIPOS>ATOM
      1 C1         -6.9475   -3.7097    1.5171 C.3       1 <0>        -0.1203
      2 C2         -7.1385   -4.7256    0.4205 C.ar      1 <0>        -0.0669
      3 C3         -8.3247   -5.4177    0.3225 C.ar      1 <0>        -0.0662
      4 C4         -8.4993   -6.3634   -0.6904 C.ar      1 <0>        -0.0108
      5 C5         -7.4721   -6.6024   -1.6068 C.ar      1 <0>        -0.0868
      6 C6         -6.2889   -5.9059   -1.5108 C.ar      1 <0>        -0.0969
      7 C7         -6.1151   -4.9610   -0.4983 C.ar      1 <0>        -0.0397
      8 C8         -4.8408   -4.2120   -0.3953 C.ar      1 <0>        -0.0110
      9 C9         -3.6254   -4.8979   -0.4113 C.ar      1 <0>        -0.1090
     10 C10        -2.4412   -4.2029   -0.3157 C.ar      1 <0>        -0.0500
     11 C11        -2.4561   -2.8102   -0.2026 C.ar      1 <0>        -0.1411
     12 C12        -3.6737   -2.1248   -0.1813 C.ar      1 <0>        -0.0840
     13 C13        -4.8567   -2.8210   -0.2819 C.ar      1 <0>        -0.1095
     14 C14        -1.1861   -2.0637   -0.0994 C.2       1 <0>         0.5629
     15 O1         -0.1270   -2.6609   -0.1129 O.2       1 <0>        -0.5103
     16 N1         -1.2009   -0.7204    0.0097 N.am      1 <0>        -0.6721
     17 C15         0.0017   -0.0036   -0.0040 C.ar      1 <0>         0.1272
     18 C16         1.0697   -0.4541   -0.7688 C.ar      1 <0>        -0.0642
     19 C17         2.2582    0.2515   -0.7837 C.ar      1 <0>        -0.1796
     20 C18         2.3872    1.4102   -0.0361 C.ar      1 <0>         0.1526
     21 C19         1.3178    1.8660    0.7318 C.ar      1 <0>         0.0452
     22 C20         0.1261    1.1575    0.7466 C.ar      1 <0>        -0.1346
     23 N2          1.4463    3.0372    1.4871 N.pl3     1 <0>        -0.4789
     24 C21         1.3302    2.7526    2.9241 C.3       1 <0>         0.0286
     25 C22         1.5550    4.0424    3.7168 C.3       1 <0>         0.0034
     26 C23         0.6839    5.3330    1.8636 C.3       1 <0>         0.0034
     27 C24         0.4591    4.0432    1.0710 C.3       1 <0>         0.0282
     28 C25         0.7026    6.2777    4.0934 C.3       1 <0>        -0.0406
     29 O2          3.5579    2.1038   -0.0523 O.3       1 <0>        -0.2988
     30 C26         4.6117    1.5791   -0.8624 C.3       1 <0>         0.0199
     31 C27        -9.7699   -7.1103   -0.7931 C.2       1 <0>         0.1997
     32 N3        -10.8121   -6.9862   -0.0045 N.2       1 <0>        -0.2692
     33 N4        -11.7358   -7.7935   -0.3923 N.2       1 <0>        -0.2846
     34 C28       -11.3233   -8.4593   -1.4350 C.2       1 <0>         0.1721
     35 O3        -10.0773   -8.0421   -1.7177 O.3       1 <0>        -0.2202
     36 C29       -12.1050   -9.5028   -2.1907 C.3       1 <0>        -0.0620
     37 H1         -7.2825   -2.7324    1.1694 H         1 <0>         0.0766
     38 H2         -7.5298   -4.0038    2.3903 H         1 <0>         0.0745
     39 H3         -5.8922   -3.6580    1.7847 H         1 <0>         0.0729
     40 H4         -9.1183   -5.2325    1.0312 H         1 <0>         0.1449
     41 H5         -7.6066   -7.3332   -2.3905 H         1 <0>         0.1370
     42 H6         -5.4946   -6.0908   -2.2188 H         1 <0>         0.1377
     43 H7         -3.6141   -5.9742   -0.4991 H         1 <0>         0.1377
     44 H8         -1.5008   -4.7338   -0.3278 H         1 <0>         0.1422
     45 H9         -3.6863   -1.0488   -0.0894 H         1 <0>         0.1261
     46 H10        -5.7977   -2.2911   -0.2692 H         1 <0>         0.1363
     47 H11        -2.0448   -0.2502    0.0976 H         1 <0>         0.4103
     48 H12         0.9716   -1.3574   -1.3527 H         1 <0>         0.1451
     49 H13         3.0872   -0.1011   -1.3794 H         1 <0>         0.1429
     50 H14        -0.7058    1.5109    1.3378 H         1 <0>         0.1280
     51 H15         0.3351    2.3628    3.1384 H         1 <0>         0.0618
     52 H16         2.0796    2.0146    3.2104 H         1 <0>         0.1241
     53 H17         2.5600    4.4175    3.5235 H         1 <0>         0.1408
     54 H18         1.4407    3.8395    4.7816 H         1 <0>         0.1351
     55 H19         1.6790    5.7228    1.6493 H         1 <0>         0.1406
     56 H20        -0.0652    6.0711    1.5771 H         1 <0>         0.1351
     57 H21         0.5734    4.2461    0.0061 H         1 <0>         0.1242
     58 H22        -0.5459    3.6679    1.2638 H         1 <0>         0.0616
     59 H23        -0.0822    6.9797    3.8116 H         1 <0>         0.1221
     60 H24         0.6128    6.0384    5.1530 H         1 <0>         0.1223
     61 H25         1.6773    6.7272    3.9038 H         1 <0>         0.1244
     62 H26         5.4857    2.2258   -0.7853 H         1 <0>         0.1053
     63 H27         4.8695    0.5772   -0.5191 H         1 <0>         0.0594
     64 H28         4.2835    1.5340   -1.9009 H         1 <0>         0.0591
     65 H29       -12.6727   -9.0242   -2.9887 H         1 <0>         0.1031
     66 H30       -11.4175  -10.2313   -2.6204 H         1 <0>         0.0960
     67 H31       -12.7902  -10.0074   -1.5096 H         1 <0>         0.1109
     68 N5          0.5424    5.0374    3.3047 N.4       1 <0>        -0.3993
     69 H32        -0.3936    4.6517    3.4760 H         1 <0>         0.4255
@<TRIPOS>BOND
     1    1    2 1
     2    1   37 1
     3    1   38 1
     4    1   39 1
     5    2    7 ar
     6    2    3 ar
     7    3    4 ar
     8    3   40 1
     9    4    5 ar
    10    4   31 1
    11    5    6 ar
    12    5   41 1
    13    6    7 ar
    14    6   42 1
    15    7    8 1
    16    8   13 ar
    17    8    9 ar
    18    9   10 ar
    19    9   43 1
    20   10   11 ar
    21   10   44 1
    22   11   12 ar
    23   11   14 1
    24   12   13 ar
    25   12   45 1
    26   13   46 1
    27   14   15 2
    28   14   16 am
    29   16   17 1
    30   16   47 1
    31   17   22 ar
    32   17   18 ar
    33   18   19 ar
    34   18   48 1
    35   19   20 ar
    36   19   49 1
    37   20   21 ar
    38   20   29 1
    39   21   22 ar
    40   21   23 1
    41   22   50 1
    42   23   27 1
    43   23   24 1
    44   24   25 1
    45   24   51 1
    46   24   52 1
    47   25   53 1
    48   25   54 1
    49   25   68 1
    50   26   27 1
    51   26   55 1
    52   26   56 1
    53   26   68 1
    54   27   57 1
    55   27   58 1
    56   28   59 1
    57   28   60 1
    58   28   61 1
    59   28   68 1
    60   29   30 1
    61   30   62 1
    62   30   63 1
    63   30   64 1
    64   31   35 1
    65   31   32 2
    66   32   33 1
    67   33   34 2
    68   34   35 1
    69   34   36 1
    70   36   65 1
    71   36   66 1
    72   36   67 1
    73   68   69 1
@<TRIPOS>MOLECULE
ZINC01487796
   65    68     0     0     0
SMALL
USER_CHARGES
4-[4-[[4-methoxy-3-(4-methylpiperazin-1-yl)-phenyl]carbamoyl]phenyl]-3-methyl-benzamide
@<TRIPOS>ATOM
      1 C1         -6.9537   -3.7022    1.5055 C.3       1 <0>        -0.1213
      2 C2         -7.1420   -4.7219    0.4120 C.ar      1 <0>        -0.0735
      3 C3         -8.3267   -5.4172    0.3157 C.ar      1 <0>        -0.0574
      4 C4         -8.5007   -6.3625   -0.6976 C.ar      1 <0>        -0.1260
      5 C5         -7.4726   -6.6018   -1.6127 C.ar      1 <0>        -0.0897
      6 C6         -6.2909   -5.9020   -1.5183 C.ar      1 <0>        -0.1049
      7 C7         -6.1158   -4.9614   -0.5023 C.ar      1 <0>        -0.0380
      8 C8         -4.8412   -4.2122   -0.3983 C.ar      1 <0>        -0.0113
      9 C9         -3.6261   -4.8980   -0.4133 C.ar      1 <0>        -0.1092
     10 C10        -2.4416   -4.2028   -0.3167 C.ar      1 <0>        -0.0502
     11 C11        -2.4565   -2.8105   -0.2036 C.ar      1 <0>        -0.1408
     12 C12        -3.6738   -2.1252   -0.1828 C.ar      1 <0>        -0.0844
     13 C13        -4.8571   -2.8216   -0.2849 C.ar      1 <0>        -0.1101
     14 C14        -1.1860   -2.0636   -0.0999 C.2       1 <0>         0.5633
     15 O1         -0.1271   -2.6608   -0.1130 O.2       1 <0>        -0.5112
     16 N1         -1.2009   -0.7204    0.0092 N.am      1 <0>        -0.6717
     17 C15         0.0025   -0.0047    0.0099 C.ar      1 <0>         0.1236
     18 C16         1.1327   -0.5476    0.6069 C.ar      1 <0>        -0.0637
     19 C17         2.3220    0.1567    0.6086 C.ar      1 <0>        -0.1816
     20 C18         2.3900    1.4061    0.0147 C.ar      1 <0>         0.1537
     21 C19         1.2584    1.9543   -0.5853 C.ar      1 <0>         0.0436
     22 C20         0.0656    1.2472   -0.5866 C.ar      1 <0>        -0.1332
     23 N2          1.3253    3.2168   -1.1854 N.pl3     1 <0>        -0.4788
     24 C21         0.4531    4.1758   -0.4931 C.3       1 <0>         0.0287
     25 C22         0.6148    5.5590   -1.1282 C.3       1 <0>         0.0032
     26 C23         1.1507    4.5226   -3.2489 C.3       1 <0>         0.0035
     27 C24         0.9890    3.1395   -2.6139 C.3       1 <0>         0.0281
     28 C25         0.3488    6.8069   -3.1865 C.3       1 <0>        -0.0406
     29 O2          3.5616    2.0982    0.0177 O.3       1 <0>        -0.2989
     30 C26         4.6811    1.4758    0.6512 C.3       1 <0>         0.0199
     31 C27        -9.7719   -7.1088   -0.8019 C.2       1 <0>         0.5607
     32 O3        -10.6664   -6.9000   -0.0057 O.2       1 <0>        -0.5349
     33 N3         -9.9395   -8.0209   -1.7799 N.am      1 <0>        -0.8492
     34 H1         -7.2866   -2.7259    1.1532 H         1 <0>         0.0754
     35 H2         -7.5392   -3.9926    2.3779 H         1 <0>         0.0739
     36 H3         -5.8992   -3.6505    1.7765 H         1 <0>         0.0722
     37 H4         -9.1211   -5.2314    1.0234 H         1 <0>         0.1418
     38 H5         -7.6063   -7.3329   -2.3963 H         1 <0>         0.1315
     39 H6         -5.4977   -6.0837   -2.2284 H         1 <0>         0.1339
     40 H7         -3.6147   -5.9743   -0.5011 H         1 <0>         0.1374
     41 H8         -1.5012   -4.7338   -0.3280 H         1 <0>         0.1422
     42 H9         -3.6864   -1.0492   -0.0906 H         1 <0>         0.1257
     43 H10        -5.7981   -2.2917   -0.2726 H         1 <0>         0.1358
     44 H11        -2.0453   -0.2494    0.0872 H         1 <0>         0.4104
     45 H12         1.0822   -1.5215    1.0709 H         1 <0>         0.1500
     46 H13         3.1996   -0.2680    1.0732 H         1 <0>         0.1428
     47 H14        -0.8119    1.6679   -1.0549 H         1 <0>         0.1279
     48 H15        -0.5844    3.8538   -0.5823 H         1 <0>         0.0614
     49 H16         0.7299    4.2246    0.5600 H         1 <0>         0.1241
     50 H17         1.6463    5.8927   -1.0149 H         1 <0>         0.1407
     51 H18        -0.0527    6.2658   -0.6352 H         1 <0>         0.1350
     52 H19         2.1883    4.8446   -3.1598 H         1 <0>         0.1408
     53 H20         0.8743    4.4738   -4.3021 H         1 <0>         0.1351
     54 H21         1.6565    2.4327   -3.1068 H         1 <0>         0.1241
     55 H22        -0.0423    2.8053   -2.7271 H         1 <0>         0.0617
     56 H23         0.0304    6.7323   -4.2263 H         1 <0>         0.1221
     57 H24        -0.3060    7.4971   -2.6546 H         1 <0>         0.1223
     58 H25         1.3741    7.1745   -3.1460 H         1 <0>         0.1244
     59 H26         4.4482    1.2897    1.6996 H         1 <0>         0.0592
     60 H27         4.9005    0.5307    0.1544 H         1 <0>         0.0594
     61 H28         5.5486    2.1322    0.5826 H         1 <0>         0.1053
     62 H29        -9.2257   -8.1875   -2.4152 H         1 <0>         0.4013
     63 H30       -10.7739   -8.5108   -1.8484 H         1 <0>         0.4085
     64 N4          0.2524    5.4719   -2.5584 N.4       1 <0>        -0.3993
     65 H31        -0.7142    5.1348   -2.6378 H         1 <0>         0.4254
@<TRIPOS>BOND
     1    1    2 1
     2    1   34 1
     3    1   35 1
     4    1   36 1
     5    2    7 ar
     6    2    3 ar
     7    3    4 ar
     8    3   37 1
     9    4    5 ar
    10    4   31 1
    11    5    6 ar
    12    5   38 1
    13    6    7 ar
    14    6   39 1
    15    7    8 1
    16    8   13 ar
    17    8    9 ar
    18    9   10 ar
    19    9   40 1
    20   10   11 ar
    21   10   41 1
    22   11   12 ar
    23   11   14 1
    24   12   13 ar
    25   12   42 1
    26   13   43 1
    27   14   15 2
    28   14   16 am
    29   16   17 1
    30   16   44 1
    31   17   22 ar
    32   17   18 ar
    33   18   19 ar
    34   18   45 1
    35   19   20 ar
    36   19   46 1
    37   20   21 ar
    38   20   29 1
    39   21   22 ar
    40   21   23 1
    41   22   47 1
    42   23   27 1
    43   23   24 1
    44   24   25 1
    45   24   48 1
    46   24   49 1
    47   25   50 1
    48   25   51 1
    49   25   64 1
    50   26   27 1
    51   26   52 1
    52   26   53 1
    53   26   64 1
    54   27   54 1
    55   27   55 1
    56   28   56 1
    57   28   57 1
    58   28   58 1
    59   28   64 1
    60   29   30 1
    61   30   59 1
    62   30   60 1
    63   30   61 1
    64   31   32 2
    65   31   33 am
    66   33   62 1
    67   33   63 1
    68   64   65 1
@<TRIPOS>MOLECULE
ZINC03963295
   67    70     0     0     0
SMALL
USER_CHARGES

@<TRIPOS>ATOM
      1 C1         -8.0158   -3.3220    2.6106 C.3       1 <0>        -0.1305
      2 C2         -7.7697   -4.2041    1.4137 C.ar      1 <0>        -0.0625
      3 C3         -8.7487   -5.0735    0.9861 C.ar      1 <0>        -0.0622
      4 C4         -8.5205   -5.8906   -0.1218 C.ar      1 <0>        -0.1504
      5 C5         -7.3001   -5.8266   -0.7964 C.ar      1 <0>        -0.0582
      6 C6         -6.3239   -4.9532   -0.3720 C.ar      1 <0>        -0.0969
      7 C7         -6.5502   -4.1404    0.7394 C.ar      1 <0>         0.0165
      8 C8         -5.4970   -3.2047    1.1997 C.ar      1 <0>        -0.0455
      9 C9         -4.1946   -3.6643    1.3987 C.ar      1 <0>        -0.0992
     10 C10        -3.2155   -2.7959    1.8263 C.ar      1 <0>        -0.0510
     11 C11        -3.5264   -1.4543    2.0611 C.ar      1 <0>        -0.1217
     12 C12        -4.8322   -0.9964    1.8672 C.ar      1 <0>        -0.0847
     13 C13        -5.8086   -1.8650    1.4344 C.ar      1 <0>        -0.1017
     14 C14        -2.4768   -0.5218    2.5199 C.2       1 <0>         0.5577
     15 O1         -1.3418   -0.9217    2.6932 O.2       1 <0>        -0.5040
     16 N1         -2.7771    0.7725    2.7463 N.am      1 <0>        -0.6689
     17 C15        -1.7623    1.6798    3.0736 C.ar      1 <0>         0.1201
     18 C16        -0.4919    1.5247    2.5343 C.ar      1 <0>        -0.0632
     19 C17         0.5117    2.4190    2.8558 C.ar      1 <0>        -0.1799
     20 C18         0.2532    3.4729    3.7166 C.ar      1 <0>         0.1571
     21 C19        -1.0198    3.6320    4.2598 C.ar      1 <0>         0.0460
     22 C20        -2.0262    2.7345    3.9367 C.ar      1 <0>        -0.1320
     23 N2         -1.2829    4.6966    5.1293 N.pl3     1 <0>        -0.4797
     24 C21        -1.6355    4.2072    6.4693 C.3       1 <0>         0.0297
     25 C22        -1.8372    5.3991    7.4080 C.3       1 <0>         0.0027
     26 C23        -2.5420    6.7570    5.5324 C.3       1 <0>         0.0027
     27 C24        -2.3404    5.5651    4.5937 C.3       1 <0>         0.0292
     28 C25        -3.1707    7.3852    7.7852 C.3       1 <0>        -0.0411
     29 O2          1.2423    4.3528    4.0313 O.3       1 <0>        -0.2972
     30 C26         2.5227    4.1292    3.4377 C.3       1 <0>         0.0191
     31 C27        -9.5725   -6.8247   -0.5819 C.cat     1 <0>         0.5990
     32 N3         -9.3470   -7.6316   -1.6760 N.pl3     1 <0>        -0.7786
     33 H1         -8.4540   -2.3792    2.2830 H         1 <0>         0.0854
     34 H2         -8.7001   -3.8220    3.2959 H         1 <0>         0.0788
     35 H3         -7.0713   -3.1267    3.1184 H         1 <0>         0.0824
     36 H4         -9.6929   -5.1225    1.5081 H         1 <0>         0.1390
     37 H5         -7.1232   -6.4590   -1.6540 H         1 <0>         0.1419
     38 H6         -5.3813   -4.9005   -0.8966 H         1 <0>         0.1513
     39 H7         -3.9543   -4.7013    1.2168 H         1 <0>         0.1393
     40 H8         -2.2077   -3.1519    1.9805 H         1 <0>         0.1474
     41 H9         -5.0744    0.0396    2.0527 H         1 <0>         0.1313
     42 H10        -6.8171   -1.5104    1.2809 H         1 <0>         0.1370
     43 H11        -3.6964    1.0754    2.6824 H         1 <0>         0.4095
     44 H12        -0.2878    0.7038    1.8628 H         1 <0>         0.1442
     45 H13         1.4987    2.2961    2.4350 H         1 <0>         0.1442
     46 H14        -3.0152    2.8583    4.3526 H         1 <0>         0.1279
     47 H15        -2.5572    3.6280    6.4140 H         1 <0>         0.0607
     48 H16        -0.8317    3.5768    6.8495 H         1 <0>         0.1243
     49 H17        -0.9075    5.9630    7.4847 H         1 <0>         0.1417
     50 H18        -2.1272    5.0396    8.3953 H         1 <0>         0.1357
     51 H19        -1.6203    7.3364    5.5877 H         1 <0>         0.1416
     52 H20        -3.3456    7.3877    5.1521 H         1 <0>         0.1357
     53 H21        -2.0503    5.9248    3.6065 H         1 <0>         0.1243
     54 H22        -3.2699    5.0012    4.5167 H         1 <0>         0.0605
     55 H23        -4.0024    7.9737    7.3980 H         1 <0>         0.1226
     56 H24        -3.4290    6.9950    8.7697 H         1 <0>         0.1228
     57 H25        -2.2854    8.0160    7.8654 H         1 <0>         0.1254
     58 H26         2.8959    3.1498    3.7370 H         1 <0>         0.0601
     59 H27         2.4315    4.1670    2.3522 H         1 <0>         0.0599
     60 H28         3.2174    4.9002    3.7710 H         1 <0>         0.1073
     61 H29       -11.4629   -7.4638   -0.1776 H         1 <0>         0.4459
     62 H30        -8.4989   -7.5874   -2.1448 H         1 <0>         0.4433
     63 H31       -10.0365   -8.2437   -1.9776 H         1 <0>         0.4329
     64 N4         -2.9176    6.2520    6.8699 N.4       1 <0>        -0.3990
     65 H32        -3.7745    5.6924    6.7869 H         1 <0>         0.4245
     66 N5        -10.7075   -6.8372    0.1005 N.pl3     1 <0>        -0.7592
     67 H33       -10.8270   -6.2163    0.9094 H         1 <0>         0.4593
@<TRIPOS>BOND
     1    1    2 1
     2    1   33 1
     3    1   34 1
     4    1   35 1
     5    2    7 ar
     6    2    3 ar
     7    3    4 ar
     8    3   36 1
     9    4    5 ar
    10    4   31 1
    11    5    6 ar
    12    5   37 1
    13    6    7 ar
    14    6   38 1
    15    7    8 1
    16    8   13 ar
    17    8    9 ar
    18    9   10 ar
    19    9   39 1
    20   10   11 ar
    21   10   40 1
    22   11   12 ar
    23   11   14 1
    24   12   13 ar
    25   12   41 1
    26   13   42 1
    27   14   15 2
    28   14   16 am
    29   16   17 1
    30   16   43 1
    31   17   22 ar
    32   17   18 ar
    33   18   19 ar
    34   18   44 1
    35   19   20 ar
    36   19   45 1
    37   20   21 ar
    38   20   29 1
    39   21   22 ar
    40   21   23 1
    41   22   46 1
    42   23   27 1
    43   23   24 1
    44   24   25 1
    45   24   47 1
    46   24   48 1
    47   25   49 1
    48   25   50 1
    49   25   64 1
    50   26   27 1
    51   26   51 1
    52   26   52 1
    53   26   64 1
    54   27   53 1
    55   27   54 1
    56   28   55 1
    57   28   56 1
    58   28   57 1
    59   28   64 1
    60   29   30 1
    61   30   58 1
    62   30   59 1
    63   30   60 1
    64   31   32 1
    65   31   66 2
    66   32   62 1
    67   32   63 1
    68   61   66 1
    69   64   65 1
    70   66   67 1
@<TRIPOS>MOLECULE
ZINC11632569
   35    36     0     0     0
SMALL
USER_CHARGES
1-(2,5-dimethoxyphenyl)piperazine
@<TRIPOS>ATOM
      1 C1         -3.6155    2.9977    0.1033 C.3       1 <0>         0.0245
      2 O1         -2.4303    3.7960    0.0979 O.3       1 <0>        -0.3157
      3 C2         -1.2419    3.1365    0.0574 C.ar      1 <0>         0.1208
      4 C3         -1.2198    1.7502    0.0172 C.ar      1 <0>        -0.1717
      5 C4         -0.0130    1.0762   -0.0188 C.ar      1 <0>        -0.1444
      6 C5          1.1771    1.7841   -0.0264 C.ar      1 <0>         0.0934
      7 C6          1.1583    3.1765    0.0081 C.ar      1 <0>         0.0904
      8 C7         -0.0534    3.8503    0.0499 C.ar      1 <0>        -0.1616
      9 N1          2.3597    3.8943    0.0009 N.pl3     1 <0>        -0.4748
     10 C8          2.1145    5.3295   -0.1985 C.3       1 <0>         0.0174
     11 C9          3.4534    6.0665   -0.2796 C.3       1 <0>         0.0024
     12 C10         4.4596    4.3966    1.1548 C.3       1 <0>         0.0027
     13 C11         3.1207    3.6595    1.2359 C.3       1 <0>         0.0252
     14 O2          2.3642    1.1199   -0.0680 O.3       1 <0>        -0.3119
     15 C12         2.3082   -0.3075   -0.1022 C.3       1 <0>         0.0228
     16 H1         -4.4906    3.6468    0.1371 H         1 <0>         0.1068
     17 H2         -3.6484    2.3902   -0.8011 H         1 <0>         0.0597
     18 H3         -3.6115    2.3473    0.9779 H         1 <0>         0.0590
     19 H4         -2.1468    1.1960    0.0183 H         1 <0>         0.1385
     20 H5          0.0014   -0.0034   -0.0455 H         1 <0>         0.1408
     21 H6         -0.0710    4.9298    0.0763 H         1 <0>         0.1415
     22 H7          1.5606    5.4784   -1.1254 H         1 <0>         0.1290
     23 H8          1.5350    5.7191    0.6384 H         1 <0>         0.0713
     24 H9          3.2737    7.1350   -0.3985 H         1 <0>         0.1409
     25 H10         4.0215    5.6958   -1.1329 H         1 <0>         0.1404
     26 H11         5.0135    4.2476    2.0817 H         1 <0>         0.1399
     27 H12         5.0393    4.0067    0.3181 H         1 <0>         0.1409
     28 H13         2.5527    4.0302    2.0892 H         1 <0>         0.0656
     29 H14         3.3001    2.5910    1.3550 H         1 <0>         0.1335
     30 H15         1.7618   -0.6286   -0.9890 H         1 <0>         0.0593
     31 H16         3.3205   -0.7103   -0.1335 H         1 <0>         0.1048
     32 H17         1.7994   -0.6726    0.7900 H         1 <0>         0.0572
     33 N2          4.2176    5.8389    0.9615 N.4       1 <0>        -0.5191
     34 H18         3.6840    6.2030    1.7597 H         1 <0>         0.4308
     35 H19         5.1180    6.3284    0.8998 H         1 <0>         0.4392
@<TRIPOS>BOND
     1    1    2 1
     2    1   16 1
     3    1   17 1
     4    1   18 1
     5    2    3 1
     6    3    8 ar
     7    3    4 ar
     8    4    5 ar
     9    4   19 1
    10    5    6 ar
    11    5   20 1
    12    6    7 ar
    13    6   14 1
    14    7    8 ar
    15    7    9 1
    16    8   21 1
    17    9   13 1
    18    9   10 1
    19   10   11 1
    20   10   22 1
    21   10   23 1
    22   11   24 1
    23   11   25 1
    24   11   33 1
    25   12   13 1
    26   12   26 1
    27   12   27 1
    28   12   33 1
    29   13   28 1
    30   13   29 1
    31   14   15 1
    32   15   30 1
    33   15   31 1
    34   15   32 1
    35   33   34 1
    36   33   35 1
@<TRIPOS>MOLECULE
ZINC27646752
   25    26     0     0     0
SMALL
USER_CHARGES
2-chloro-5-(1,2,3,6-tetrahydropyridin-4-yl)pyridine
@<TRIPOS>ATOM
      1 C1         -0.0169    1.3953    0.0097 C.ar      1 <0>        -0.0413
      2 C2          1.1920    2.0680    0.0018 C.ar      1 <0>        -0.1499
      3 C3          2.3711    1.3421   -0.0134 C.ar      1 <0>         0.1873
      4 N1          2.3578    0.0220   -0.0203 N.ar      1 <0>        -0.4723
      5 C4          1.2322   -0.6619   -0.0133 C.ar      1 <0>         0.1423
      6 C5          0.0021   -0.0041    0.0020 C.ar      1 <0>        -0.1356
      7 C6         -1.2606   -0.7725    0.0095 C.2       1 <0>        -0.0467
      8 C7         -2.0623   -0.6781   -1.0283 C.2       1 <0>        -0.1833
      9 C8         -3.3711   -1.4086   -1.1215 C.3       1 <0>         0.0401
     10 N2         -3.4155   -2.4992   -0.1393 N.4       1 <0>        -0.5404
     11 C9         -3.0623   -1.9955    1.1981 C.3       1 <0>         0.0009
     12 C10        -1.5729   -1.6346    1.2007 C.3       1 <0>        -0.1169
     13 Cl1         3.8907    2.1813   -0.0240 Cl        1 <0>        -0.0080
     14 H1         -0.9516    1.9364    0.0171 H         1 <0>         0.1485
     15 H2          1.2159    3.1477    0.0074 H         1 <0>         0.1556
     16 H3          1.2618   -1.7415   -0.0190 H         1 <0>         0.1660
     17 H4         -1.7851   -0.0412   -1.8813 H         1 <0>         0.1522
     18 H5         -4.1963   -0.7096   -0.9202 H         1 <0>         0.1386
     19 H6         -3.4851   -1.8294   -2.1314 H         1 <0>         0.1437
     20 H7         -4.4301   -2.9229   -0.1075 H         1 <0>         0.4594
     21 H8         -3.6660   -1.1045    1.4255 H         1 <0>         0.1307
     22 H9         -3.2621   -2.7750    1.9481 H         1 <0>         0.1405
     23 H10        -0.9736   -2.5558    1.1538 H         1 <0>         0.1102
     24 H11        -1.3313   -1.0866    2.1234 H         1 <0>         0.1244
     25 H12        -2.6999   -3.2828   -0.4289 H         1 <0>         0.4541
@<TRIPOS>BOND
     1    1    6 ar
     2    1    2 ar
     3    1   14 1
     4    2    3 ar
     5    2   15 1
     6    3    4 ar
     7    3   13 1
     8    4    5 ar
     9    5    6 ar
    10    5   16 1
    11    6    7 1
    12    7   12 1
    13    7    8 2
    14    8    9 1
    15    8   17 1
    16    9   10 1
    17    9   18 1
    18    9   19 1
    19   10   11 1
    20   10   20 1
    21   10   25 1
    22   11   12 1
    23   11   21 1
    24   11   22 1
    25   12   23 1
    26   12   24 1
@<TRIPOS>MOLECULE
ZINC00598509
   69    73     0     0     0
SMALL
USER_CHARGES

@<TRIPOS>ATOM
      1 C1         -0.0258    1.5270    0.0085 C.3       1 <0>        -0.1204
      2 C2         -0.0148    0.0201   -0.0060 C.ar      1 <0>        -0.0705
      3 C3         -0.0163   -0.6573   -1.2055 C.ar      1 <0>        -0.0754
      4 C4         -0.0066   -2.0515   -1.2190 C.ar      1 <0>        -0.0242
      5 C5          0.0052   -2.7607   -0.0182 C.ar      1 <0>        -0.0676
      6 C6          0.0067   -2.0841    1.1813 C.ar      1 <0>        -0.1023
      7 C7          0.0028   -0.6889    1.1951 C.ar      1 <0>        -0.0393
      8 C8          0.0106    0.0396    2.4858 C.ar      1 <0>        -0.0090
      9 C9          0.9274    1.0696    2.6995 C.ar      1 <0>        -0.1104
     10 C10         0.9355    1.7469    3.8979 C.ar      1 <0>        -0.0527
     11 C11         0.0249    1.4029    4.9003 C.ar      1 <0>        -0.1436
     12 C12        -0.8930    0.3716    4.6852 C.ar      1 <0>        -0.0810
     13 C13        -0.9027   -0.3012    3.4843 C.ar      1 <0>        -0.1096
     14 C14         0.0330    2.1285    6.1867 C.2       1 <0>         0.5685
     15 O1          0.8322    3.0256    6.3736 O.2       1 <0>        -0.5263
     16 N1         -0.8455    1.7963    7.1533 N.am      1 <0>        -0.6684
     17 C15        -0.7752    2.4168    8.4065 C.ar      1 <0>         0.1156
     18 C16        -1.0739    1.6964    9.5555 C.ar      1 <0>        -0.0912
     19 C17        -1.0053    2.3066   10.7939 C.ar      1 <0>        -0.1823
     20 C18        -0.6379    3.6383   10.8923 C.ar      1 <0>         0.1184
     21 C19        -0.3370    4.3645    9.7420 C.ar      1 <0>         0.1285
     22 C20        -0.4014    3.7504    8.5005 C.ar      1 <0>        -0.0823
     23 N2          0.0344    5.7103    9.8398 N.pl3     1 <0>        -0.6622
     24 C21         1.4462    6.0965    9.9877 C.3       1 <0>         0.1226
     25 C22         1.7685    7.1688    8.9417 C.3       1 <0>        -0.0241
     26 N3          0.8189    8.2810    9.0738 N.4       1 <0>        -0.3816
     27 C23        -0.5392    7.8189    8.7603 C.3       1 <0>        -0.0238
     28 C24        -0.9753    6.7790    9.7916 C.3       1 <0>         0.1217
     29 C25         1.1947    9.3562    8.1460 C.3       1 <0>        -0.0465
     30 O2         -0.5714    4.2375   12.1123 O.3       1 <0>        -0.3095
     31 C26        -0.8936    3.4332   13.2486 C.3       1 <0>         0.0226
     32 C27        -0.0092   -2.7806   -2.5110 C.2       1 <0>         0.2941
     33 N4         -0.0061   -4.1179   -2.6574 N.2       1 <0>        -0.5422
     34 C28        -0.0098   -4.4281   -3.9223 C.2       1 <0>         0.2990
     35 O3         -0.0155   -3.2957   -4.6373 O.3       1 <0>        -0.1011
     36 N5         -0.0207   -2.2295   -3.6998 N.2       1 <0>        -0.3348
     37 C29        -0.0072   -5.8256   -4.4862 C.3       1 <0>        -0.0763
     38 H1          0.9991    1.8979    0.0015 H         1 <0>         0.0767
     39 H2         -0.5515    1.8949   -0.8727 H         1 <0>         0.0725
     40 H3         -0.5331    1.8780    0.9071 H         1 <0>         0.0725
     41 H4         -0.0254   -0.1084   -2.1356 H         1 <0>         0.1368
     42 H5          0.0127   -3.8406   -0.0290 H         1 <0>         0.1439
     43 H6          0.0151   -2.6334    2.1112 H         1 <0>         0.1367
     44 H7          1.6311    1.3354    1.9245 H         1 <0>         0.1371
     45 H8          1.6456    2.5436    4.0634 H         1 <0>         0.1389
     46 H9         -1.5969    0.1047    5.4596 H         1 <0>         0.1288
     47 H10        -1.6146   -1.0958    3.3164 H         1 <0>         0.1367
     48 H11        -1.5264    1.1274    6.9808 H         1 <0>         0.4139
     49 H12        -1.3606    0.6578    9.4814 H         1 <0>         0.1355
     50 H13        -1.2388    1.7442   11.6858 H         1 <0>         0.1396
     51 H14        -0.1650    4.3099    7.6075 H         1 <0>         0.1464
     52 H15         1.6134    6.4978   10.9872 H         1 <0>         0.0784
     53 H16         2.0827    5.2261    9.8280 H         1 <0>         0.1141
     54 H17         2.7826    7.5363    9.0985 H         1 <0>         0.1357
     55 H18         1.6879    6.7387    7.9435 H         1 <0>         0.1311
     56 H19        -1.2255    8.6654    8.7834 H         1 <0>         0.1359
     57 H20        -0.5499    7.3691    7.7675 H         1 <0>         0.1289
     58 H21        -1.9389    6.3598    9.5024 H         1 <0>         0.1131
     59 H22        -1.0567    7.2504   10.7710 H         1 <0>         0.0785
     60 H23         1.1728    8.9783    7.1239 H         1 <0>         0.1203
     61 H24         0.4905   10.1825    8.2431 H         1 <0>         0.1231
     62 H25         2.1997    9.7056    8.3828 H         1 <0>         0.1234
     63 H26        -1.9166    3.0682   13.1570 H         1 <0>         0.0587
     64 H27        -0.2091    2.5866   13.3004 H         1 <0>         0.0586
     65 H28        -0.8011    4.0313   14.1551 H         1 <0>         0.1033
     66 H29        -1.0342   -6.1660   -4.6183 H         1 <0>         0.1108
     67 H30         0.5031   -5.8278   -5.4494 H         1 <0>         0.1032
     68 H31         0.5115   -6.4939   -3.7988 H         1 <0>         0.1112
     69 H32         0.8435    8.6322   10.0194 H         1 <0>         0.4235
@<TRIPOS>BOND
     1    1    2 1
     2    1   38 1
     3    1   39 1
     4    1   40 1
     5    2    7 ar
     6    2    3 ar
     7    3    4 ar
     8    3   41 1
     9    4    5 ar
    10    4   32 1
    11    5    6 ar
    12    5   42 1
    13    6    7 ar
    14    6   43 1
    15    7    8 1
    16    8   13 ar
    17    8    9 ar
    18    9   10 ar
    19    9   44 1
    20   10   11 ar
    21   10   45 1
    22   11   12 ar
    23   11   14 1
    24   12   13 ar
    25   12   46 1
    26   13   47 1
    27   14   15 2
    28   14   16 am
    29   16   17 1
    30   16   48 1
    31   17   22 ar
    32   17   18 ar
    33   18   19 ar
    34   18   49 1
    35   19   20 ar
    36   19   50 1
    37   20   21 ar
    38   20   30 1
    39   21   22 ar
    40   21   23 1
    41   22   51 1
    42   23   28 1
    43   23   24 1
    44   24   25 1
    45   24   52 1
    46   24   53 1
    47   25   26 1
    48   25   54 1
    49   25   55 1
    50   26   27 1
    51   26   29 1
    52   26   69 1
    53   27   28 1
    54   27   56 1
    55   27   57 1
    56   28   58 1
    57   28   59 1
    58   29   60 1
    59   29   61 1
    60   29   62 1
    61   30   31 1
    62   31   63 1
    63   31   64 1
    64   31   65 1
    65   32   36 2
    66   32   33 1
    67   33   34 2
    68   34   35 1
    69   34   37 1
    70   35   36 1
    71   37   66 1
    72   37   67 1
    73   37   68 1
@<TRIPOS>MOLECULE
ZINC00598509
   68    72     0     0     0
SMALL
USER_CHARGES

@<TRIPOS>ATOM
      1 C1         -0.0258    1.5270    0.0085 C.3       1 <0>        -0.1214
      2 C2         -0.0148    0.0201   -0.0060 C.ar      1 <0>        -0.0708
      3 C3         -0.0163   -0.6573   -1.2055 C.ar      1 <0>        -0.0750
      4 C4         -0.0066   -2.0515   -1.2190 C.ar      1 <0>        -0.0302
      5 C5          0.0052   -2.7607   -0.0182 C.ar      1 <0>        -0.0680
      6 C6          0.0067   -2.0841    1.1813 C.ar      1 <0>        -0.1041
      7 C7          0.0028   -0.6889    1.1951 C.ar      1 <0>        -0.0311
      8 C8          0.0106    0.0396    2.4858 C.ar      1 <0>        -0.0198
      9 C9          0.9274    1.0696    2.6995 C.ar      1 <0>        -0.1090
     10 C10         0.9355    1.7469    3.8979 C.ar      1 <0>        -0.0544
     11 C11         0.0249    1.4029    4.9003 C.ar      1 <0>        -0.1327
     12 C12        -0.8930    0.3716    4.6852 C.ar      1 <0>        -0.0832
     13 C13        -0.9027   -0.3012    3.4843 C.ar      1 <0>        -0.1096
     14 C14         0.0330    2.1285    6.1867 C.2       1 <0>         0.5586
     15 O1          0.8322    3.0256    6.3736 O.2       1 <0>        -0.5148
     16 N1         -0.8455    1.7963    7.1533 N.am      1 <0>        -0.6663
     17 C15        -0.7752    2.4168    8.4065 C.ar      1 <0>         0.1085
     18 C16        -1.0739    1.6964    9.5555 C.ar      1 <0>        -0.1051
     19 C17        -1.0053    2.3066   10.7939 C.ar      1 <0>        -0.1878
     20 C18        -0.6379    3.6383   10.8923 C.ar      1 <0>         0.1109
     21 C19        -0.3370    4.3645    9.7420 C.ar      1 <0>         0.1576
     22 C20        -0.4014    3.7504    8.5005 C.ar      1 <0>        -0.0854
     23 N2          0.0344    5.7103    9.8398 N.pl3     1 <0>        -0.6665
     24 C21         1.4463    6.0949    9.9877 C.3       1 <0>         0.1544
     25 C22         1.7758    7.1536    8.9299 C.3       1 <0>         0.0391
     26 N3          0.8161    8.2608    9.0345 N.3       1 <0>        -0.5401
     27 C23        -0.5519    7.8093    8.7473 C.3       1 <0>         0.0391
     28 C24        -0.9762    6.7778    9.7914 C.3       1 <0>         0.1537
     29 C25         1.1986    9.3738    8.1553 C.3       1 <0>         0.0248
     30 O2         -0.5714    4.2375   12.1123 O.3       1 <0>        -0.3021
     31 C26        -0.8936    3.4332   13.2486 C.3       1 <0>         0.0247
     32 C27        -0.0092   -2.7806   -2.5110 C.2       1 <0>         0.2973
     33 N4         -0.0061   -4.1179   -2.6574 N.2       1 <0>        -0.5412
     34 C28        -0.0098   -4.4281   -3.9223 C.2       1 <0>         0.2959
     35 O3         -0.0155   -3.2957   -4.6373 O.3       1 <0>        -0.1032
     36 N5         -0.0207   -2.2295   -3.6998 N.2       1 <0>        -0.3355
     37 C29        -0.0072   -5.8256   -4.4862 C.3       1 <0>        -0.0751
     38 H1          0.9991    1.8979    0.0015 H         1 <0>         0.0772
     39 H2         -0.5515    1.8949   -0.8727 H         1 <0>         0.0715
     40 H3         -0.5331    1.8780    0.9071 H         1 <0>         0.0747
     41 H4         -0.0254   -0.1084   -2.1356 H         1 <0>         0.1357
     42 H5          0.0127   -3.8406   -0.0290 H         1 <0>         0.1424
     43 H6          0.0151   -2.6334    2.1112 H         1 <0>         0.1367
     44 H7          1.6311    1.3354    1.9245 H         1 <0>         0.1356
     45 H8          1.6456    2.5436    4.0634 H         1 <0>         0.1407
     46 H9         -1.5969    0.1047    5.4596 H         1 <0>         0.1292
     47 H10        -1.6146   -1.0958    3.3164 H         1 <0>         0.1344
     48 H11        -1.5264    1.1274    6.9808 H         1 <0>         0.4094
     49 H12        -1.3606    0.6578    9.4814 H         1 <0>         0.1286
     50 H13        -1.2388    1.7442   11.6858 H         1 <0>         0.1335
     51 H14        -0.1650    4.3099    7.6075 H         1 <0>         0.1447
     52 H15         1.6110    6.5079   10.9829 H         1 <0>         0.0585
     53 H16         2.0811    5.2210    9.8412 H         1 <0>         0.0698
     54 H17         2.7853    7.5303    9.0945 H         1 <0>         0.0791
     55 H18         1.7107    6.7084    7.9371 H         1 <0>         0.0368
     56 H19        -1.2306    8.6616    8.7795 H         1 <0>         0.0795
     57 H20        -0.5846    7.3549    7.7570 H         1 <0>         0.0337
     58 H21        -1.9422    6.3551    9.5153 H         1 <0>         0.0687
     59 H22        -1.0488    7.2577   10.7674 H         1 <0>         0.0589
     60 H23         1.2227    9.0286    7.1217 H         1 <0>         0.0236
     61 H24         0.4714   10.1799    8.2523 H         1 <0>         0.0677
     62 H25         2.1856    9.7387    8.4396 H         1 <0>         0.0684
     63 H26        -0.8011    4.0313   14.1551 H         1 <0>         0.0991
     64 H27        -1.9166    3.0682   13.1570 H         1 <0>         0.0537
     65 H28        -0.2091    2.5866   13.3004 H         1 <0>         0.0536
     66 H29        -1.0342   -6.1660   -4.6183 H         1 <0>         0.1097
     67 H30         0.5031   -5.8278   -5.4494 H         1 <0>         0.1021
     68 H31         0.5115   -6.4939   -3.7988 H         1 <0>         0.1106
@<TRIPOS>BOND
     1    1    2 1
     2    1   38 1
     3    1   39 1
     4    1   40 1
     5    2    7 ar
     6    2    3 ar
     7    3    4 ar
     8    3   41 1
     9    4    5 ar
    10    4   32 1
    11    5    6 ar
    12    5   42 1
    13    6    7 ar
    14    6   43 1
    15    7    8 1
    16    8   13 ar
    17    8    9 ar
    18    9   10 ar
    19    9   44 1
    20   10   11 ar
    21   10   45 1
    22   11   12 ar
    23   11   14 1
    24   12   13 ar
    25   12   46 1
    26   13   47 1
    27   14   15 2
    28   14   16 am
    29   16   17 1
    30   16   48 1
    31   17   22 ar
    32   17   18 ar
    33   18   19 ar
    34   18   49 1
    35   19   20 ar
    36   19   50 1
    37   20   21 ar
    38   20   30 1
    39   21   22 ar
    40   21   23 1
    41   22   51 1
    42   23   28 1
    43   23   24 1
    44   24   25 1
    45   24   52 1
    46   24   53 1
    47   25   26 1
    48   25   54 1
    49   25   55 1
    50   26   27 1
    51   26   29 1
    52   27   28 1
    53   27   56 1
    54   27   57 1
    55   28   58 1
    56   28   59 1
    57   29   60 1
    58   29   61 1
    59   29   62 1
    60   30   31 1
    61   31   63 1
    62   31   64 1
    63   31   65 1
    64   32   36 2
    65   32   33 1
    66   33   34 2
    67   34   35 1
    68   34   37 1
    69   35   36 1
    70   37   66 1
    71   37   67 1
    72   37   68 1
@<TRIPOS>MOLECULE
ZINC27714862
   38    39     0     0     0
SMALL
USER_CHARGES
1-(2,5-dimethoxy-4-methyl-phenyl)piperazine
@<TRIPOS>ATOM
      1 C1         -2.0173    2.4476    3.4994 C.3       1 <0>        -0.1135
      2 C2         -2.6835    1.5748    2.4672 C.ar      1 <0>        -0.0744
      3 C3         -4.0076    1.2073    2.6248 C.ar      1 <0>        -0.1509
      4 C4         -4.6223    0.4057    1.6783 C.ar      1 <0>         0.1001
      5 C5         -3.9061   -0.0313    0.5658 C.ar      1 <0>         0.0810
      6 C6         -2.5803    0.3427    0.4073 C.ar      1 <0>        -0.2119
      7 C7         -1.9678    1.1414    1.3614 C.ar      1 <0>         0.1161
      8 O1         -0.6662    1.5041    1.2097 O.3       1 <0>        -0.3062
      9 C8          0.0105    1.0218    0.0472 C.3       1 <0>         0.0235
     10 N1         -4.5252   -0.8418   -0.3925 N.pl3     1 <0>        -0.4742
     11 C9         -3.6812   -0.9833   -1.5872 C.3       1 <0>         0.0169
     12 C10        -4.4256   -1.8084   -2.6396 C.3       1 <0>         0.0034
     13 N2         -4.7633   -3.1238   -2.0780 N.4       1 <0>        -0.5384
     14 C11        -5.6072   -2.9823   -0.8833 C.3       1 <0>         0.0015
     15 C12        -4.8628   -2.1572    0.1691 C.3       1 <0>         0.0233
     16 O2         -5.9250    0.0442    1.8345 O.3       1 <0>        -0.3117
     17 C13        -6.5973    0.5281    2.9989 C.3       1 <0>         0.0190
     18 H1         -2.7369    2.6881    4.2958 H         1 <0>         0.0691
     19 H2         -1.6712    3.3777    3.0249 H         1 <0>         0.0775
     20 H3         -1.1575    1.9141    3.9309 H         1 <0>         0.0767
     21 H4         -4.5623    1.5458    3.4873 H         1 <0>         0.1442
     22 H5         -2.0239    0.0089   -0.4561 H         1 <0>         0.1386
     23 H6          1.0481    1.3869    0.0490 H         1 <0>         0.1085
     24 H7         -0.5046    1.3854   -0.8542 H         1 <0>         0.0551
     25 H8          0.0089   -0.0782    0.0519 H         1 <0>         0.0523
     26 H9         -3.4528    0.0125   -1.9948 H         1 <0>         0.1253
     27 H10        -2.7444   -1.4922   -1.3162 H         1 <0>         0.0663
     28 H11        -5.3483   -1.2850   -2.9305 H         1 <0>         0.1381
     29 H12        -3.7843   -1.9397   -3.5236 H         1 <0>         0.1402
     30 H13        -5.3092   -3.7139   -2.8289 H         1 <0>         0.4576
     31 H14        -6.5440   -2.4734   -1.1543 H         1 <0>         0.1381
     32 H15        -5.8356   -3.9781   -0.4756 H         1 <0>         0.1400
     33 H16        -3.9395   -2.6795    0.4602 H         1 <0>         0.0631
     34 H17        -5.5036   -2.0249    1.0533 H         1 <0>         0.1329
     35 H18        -7.6354    0.1642    3.0007 H         1 <0>         0.1060
     36 H19        -6.5944    1.6281    2.9934 H         1 <0>         0.0607
     37 H20        -6.0797    0.1645    3.8988 H         1 <0>         0.0586
     38 H21        -3.8394   -3.6512   -1.7981 H         1 <0>         0.4472
@<TRIPOS>BOND
     1    1    2 1
     2    1   18 1
     3    1   19 1
     4    1   20 1
     5    2    7 ar
     6    2    3 ar
     7    3    4 ar
     8    3   21 1
     9    4    5 ar
    10    4   16 1
    11    5    6 ar
    12    5   10 1
    13    6    7 ar
    14    6   22 1
    15    7    8 1
    16    8    9 1
    17    9   23 1
    18    9   24 1
    19    9   25 1
    20   10   15 1
    21   10   11 1
    22   11   12 1
    23   11   26 1
    24   11   27 1
    25   12   13 1
    26   12   28 1
    27   12   29 1
    28   13   14 1
    29   13   30 1
    30   13   38 1
    31   14   15 1
    32   14   31 1
    33   14   32 1
    34   15   33 1
    35   15   34 1
    36   16   17 1
    37   17   35 1
    38   17   36 1
    39   17   37 1
@<TRIPOS>MOLECULE
ZINC31502170
   52    55     0     0     0
SMALL
USER_CHARGES
4-[4-(4-furo[3,2-c]pyridin-4-ylpiperazin-1-yl)butyl]morpholine-3,5-dione
@<TRIPOS>ATOM
      1 C1        -10.2631    7.9708    3.7407 C.ar      1 <0>        -0.1612
      2 C2        -10.0970    6.6916    4.1921 C.ar      1 <0>         0.1368
      3 N1         -8.9194    6.0890    4.1607 N.ar      1 <0>        -0.5230
      4 C3         -7.8345    6.6934    3.7016 C.ar      1 <0>         0.3506
      5 C4         -7.9199    8.0048    3.2206 C.ar      1 <0>        -0.1893
      6 C5         -9.1621    8.6628    3.2388 C.ar      1 <0>         0.1083
      7 O1         -8.9726    9.8918    2.7297 O.3       1 <0>        -0.1803
      8 C6         -7.6852   10.0735    2.3818 C.2       1 <0>         0.0257
      9 C7         -6.9752    8.9680    2.6492 C.2       1 <0>        -0.2037
     10 N2         -6.6174    6.0265    3.6923 N.pl3     1 <0>        -0.4725
     11 C8         -6.7562    4.6695    4.2392 C.3       1 <0>         0.0365
     12 C9         -5.3817    3.9979    4.2853 C.3       1 <0>        -0.0023
     13 N3         -4.8118    3.9611    2.9313 N.4       1 <0>        -0.4027
     14 C10        -4.6729    5.3180    2.3843 C.3       1 <0>        -0.0027
     15 C11        -6.0474    5.9896    2.3383 C.3       1 <0>         0.0233
     16 C12        -3.5235    3.2551    2.9214 C.3       1 <0>        -0.0046
     17 C13        -3.0831    3.0179    1.4755 C.3       1 <0>        -0.1450
     18 C14        -1.7414    2.2827    1.4652 C.3       1 <0>        -0.1307
     19 C15        -1.3009    2.0454    0.0193 C.3       1 <0>         0.0891
     20 N4         -0.0162    1.3414    0.0094 N.am      1 <0>        -0.5700
     21 C16         1.1277    2.0500    0.0023 C.2       1 <0>         0.4965
     22 O2          1.0859    3.2616   -0.0052 O.2       1 <0>        -0.4843
     23 C17         2.4606    1.3466    0.0036 C.3       1 <0>         0.0353
     24 O3          2.3148    0.0642   -0.6152 O.3       1 <0>        -0.3481
     25 C18         1.3123   -0.7490    0.0033 C.3       1 <0>         0.0352
     26 C19         0.0021   -0.0041    0.0020 C.2       1 <0>         0.4967
     27 O4         -1.0416   -0.6207   -0.0053 O.2       1 <0>        -0.4836
     28 H1        -11.2355    8.4397    3.7722 H         1 <0>         0.1524
     29 H2        -10.9510    6.1564    4.5804 H         1 <0>         0.1764
     30 H3         -7.2827   10.9778    1.9498 H         1 <0>         0.2181
     31 H4         -5.9194    8.8180    2.4784 H         1 <0>         0.1636
     32 H5         -7.1727    4.7247    5.2558 H         1 <0>         0.1348
     33 H6         -7.4307    4.0830    3.5980 H         1 <0>         0.0786
     34 H7         -4.7163    4.5697    4.9489 H         1 <0>         0.1363
     35 H8         -5.4875    2.9719    4.6677 H         1 <0>         0.1423
     36 H9         -3.9984    5.9045    3.0254 H         1 <0>         0.1392
     37 H10        -4.2565    5.2627    1.3677 H         1 <0>         0.1430
     38 H11        -6.7138    5.4181    1.6754 H         1 <0>         0.0733
     39 H12        -5.9425    7.0159    1.9565 H         1 <0>         0.1337
     40 H13        -2.7679    3.8637    3.4397 H         1 <0>         0.1300
     41 H14        -3.6311    2.2885    3.4352 H         1 <0>         0.1343
     42 H15        -3.8387    2.4093    0.9572 H         1 <0>         0.0930
     43 H16        -2.9755    3.9846    0.9617 H         1 <0>         0.0913
     44 H17        -0.9858    2.8914    1.9835 H         1 <0>         0.0801
     45 H18        -1.8490    1.3161    1.9791 H         1 <0>         0.0807
     46 H19        -2.0565    1.4368   -0.4990 H         1 <0>         0.1013
     47 H20        -1.1933    3.0120   -0.4946 H         1 <0>         0.1010
     48 H21         3.1924    1.9467   -0.5571 H         1 <0>         0.1538
     49 H22         2.8073    1.2199    1.0398 H         1 <0>         0.1094
     50 H23         1.2041   -1.6884   -0.5587 H         1 <0>         0.1539
     51 H24         1.6092   -0.9731    1.0385 H         1 <0>         0.1095
     52 H25        -5.5064    3.4039    2.2855 H         1 <0>         0.4401
@<TRIPOS>BOND
     1    1    6 ar
     2    1    2 ar
     3    1   28 1
     4    2    3 ar
     5    2   29 1
     6    3    4 ar
     7    4    5 ar
     8    4   10 1
     9    5    9 1
    10    5    6 ar
    11    6    7 1
    12    7    8 1
    13    8    9 2
    14    8   30 1
    15    9   31 1
    16   10   15 1
    17   10   11 1
    18   11   12 1
    19   11   32 1
    20   11   33 1
    21   12   13 1
    22   12   34 1
    23   12   35 1
    24   13   14 1
    25   13   16 1
    26   13   52 1
    27   14   15 1
    28   14   36 1
    29   14   37 1
    30   15   38 1
    31   15   39 1
    32   16   17 1
    33   16   40 1
    34   16   41 1
    35   17   18 1
    36   17   42 1
    37   17   43 1
    38   18   19 1
    39   18   44 1
    40   18   45 1
    41   19   20 1
    42   19   46 1
    43   19   47 1
    44   20   26 am
    45   20   21 am
    46   21   22 2
    47   21   23 1
    48   23   24 1
    49   23   48 1
    50   23   49 1
    51   24   25 1
    52   25   26 1
    53   25   50 1
    54   25   51 1
    55   26   27 2
@<TRIPOS>MOLECULE
ZINC31502170
   51    54     0     0     0
SMALL
USER_CHARGES
4-[4-(4-furo[3,2-c]pyridin-4-ylpiperazin-1-yl)butyl]morpholine-3,5-dione
@<TRIPOS>ATOM
      1 C1        -10.2631    7.9708    3.7407 C.ar      1 <0>        -0.1875
      2 C2        -10.0970    6.6916    4.1921 C.ar      1 <0>         0.1417
      3 N1         -8.9194    6.0890    4.1607 N.ar      1 <0>        -0.5307
      4 C3         -7.8345    6.6934    3.7016 C.ar      1 <0>         0.3750
      5 C4         -7.9199    8.0048    3.2206 C.ar      1 <0>        -0.2000
      6 C5         -9.1621    8.6628    3.2388 C.ar      1 <0>         0.1074
      7 O1         -8.9726    9.8918    2.7297 O.3       1 <0>        -0.1869
      8 C6         -7.6852   10.0735    2.3818 C.2       1 <0>        -0.0002
      9 C7         -6.9752    8.9680    2.6492 C.2       1 <0>        -0.1846
     10 N2         -6.6174    6.0265    3.6923 N.pl3     1 <0>        -0.4738
     11 C8         -6.7562    4.6695    4.2392 C.3       1 <0>         0.0678
     12 C9         -5.3817    3.9979    4.2853 C.3       1 <0>         0.0520
     13 N3         -4.8118    3.9611    2.9313 N.3       1 <0>        -0.5394
     14 C10        -4.6729    5.3180    2.3843 C.3       1 <0>         0.0524
     15 C11        -6.0474    5.9896    2.3383 C.3       1 <0>         0.0575
     16 C12        -3.5235    3.2551    2.9214 C.3       1 <0>         0.0570
     17 C13        -3.0831    3.0179    1.4755 C.3       1 <0>        -0.1126
     18 C14        -1.7414    2.2827    1.4652 C.3       1 <0>        -0.1293
     19 C15        -1.3009    2.0454    0.0193 C.3       1 <0>         0.0907
     20 N4         -0.0162    1.3414    0.0094 N.am      1 <0>        -0.5675
     21 C16         1.1277    2.0500    0.0023 C.2       1 <0>         0.4932
     22 O2          1.0859    3.2616   -0.0052 O.2       1 <0>        -0.4840
     23 C17         2.4606    1.3466    0.0036 C.3       1 <0>         0.0368
     24 O3          2.3148    0.0642   -0.6152 O.3       1 <0>        -0.3522
     25 C18         1.3123   -0.7490    0.0033 C.3       1 <0>         0.0367
     26 C19         0.0021   -0.0041    0.0020 C.2       1 <0>         0.4932
     27 O4         -1.0416   -0.6207   -0.0053 O.2       1 <0>        -0.4821
     28 H1        -11.2355    8.4397    3.7722 H         1 <0>         0.1437
     29 H2        -10.9510    6.1564    4.5804 H         1 <0>         0.1689
     30 H3         -7.2827   10.9778    1.9498 H         1 <0>         0.2129
     31 H4         -5.9194    8.8180    2.4784 H         1 <0>         0.1625
     32 H5         -7.1727    4.7247    5.2558 H         1 <0>         0.0932
     33 H6         -7.4307    4.0830    3.5980 H         1 <0>         0.0634
     34 H7         -4.7163    4.5697    4.9489 H         1 <0>         0.0437
     35 H8         -5.4875    2.9719    4.6677 H         1 <0>         0.0876
     36 H9         -3.9984    5.9045    3.0254 H         1 <0>         0.0465
     37 H10        -4.2565    5.2627    1.3677 H         1 <0>         0.0907
     38 H11        -6.7138    5.4181    1.6754 H         1 <0>         0.0573
     39 H12        -5.9425    7.0159    1.9565 H         1 <0>         0.0934
     40 H13        -2.7679    3.8637    3.4397 H         1 <0>         0.0363
     41 H14        -3.6311    2.2885    3.4352 H         1 <0>         0.0778
     42 H15        -3.8387    2.4093    0.9572 H         1 <0>         0.0773
     43 H16        -2.9755    3.9846    0.9617 H         1 <0>         0.0671
     44 H17        -0.9858    2.8914    1.9835 H         1 <0>         0.0668
     45 H18        -1.8490    1.3161    1.9791 H         1 <0>         0.0693
     46 H19        -2.0565    1.4368   -0.4990 H         1 <0>         0.0988
     47 H20        -1.1933    3.0120   -0.4946 H         1 <0>         0.0975
     48 H21         3.1924    1.9467   -0.5571 H         1 <0>         0.1504
     49 H22         2.8073    1.2199    1.0398 H         1 <0>         0.1065
     50 H23         1.2041   -1.6884   -0.5587 H         1 <0>         0.1506
     51 H24         1.6092   -0.9731    1.0385 H         1 <0>         0.1067
@<TRIPOS>BOND
     1    1    6 ar
     2    1    2 ar
     3    1   28 1
     4    2    3 ar
     5    2   29 1
     6    3    4 ar
     7    4    5 ar
     8    4   10 1
     9    5    9 1
    10    5    6 ar
    11    6    7 1
    12    7    8 1
    13    8    9 2
    14    8   30 1
    15    9   31 1
    16   10   15 1
    17   10   11 1
    18   11   12 1
    19   11   32 1
    20   11   33 1
    21   12   13 1
    22   12   34 1
    23   12   35 1
    24   13   14 1
    25   13   16 1
    26   14   15 1
    27   14   36 1
    28   14   37 1
    29   15   38 1
    30   15   39 1
    31   16   17 1
    32   16   40 1
    33   16   41 1
    34   17   18 1
    35   17   42 1
    36   17   43 1
    37   18   19 1
    38   18   44 1
    39   18   45 1
    40   19   20 1
    41   19   46 1
    42   19   47 1
    43   20   26 am
    44   20   21 am
    45   21   22 2
    46   21   23 1
    47   23   24 1
    48   23   48 1
    49   23   49 1
    50   24   25 1
    51   25   26 1
    52   25   50 1
    53   25   51 1
    54   26   27 2
@<TRIPOS>MOLECULE
ZINC01604329
   28    28     0     0     0
SMALL
USER_CHARGES
(2R)-1-(3-methoxyphenyl)propan-2-amine
@<TRIPOS>ATOM
      1 C1         -0.8757    3.0517   -1.0224 C.3       1 <0>        -0.1856
      2 C2         -0.7955    1.5269   -1.1198 C.3       1 <0>         0.0371
      3 H1         -0.3144    1.2475   -2.0571 H         1 <0>         0.1445
      4 C3         -2.2069    0.9381   -1.0756 C.3       1 <0>        -0.1014
      5 C4         -2.1370   -0.5513   -1.2945 C.ar      1 <0>        -0.0866
      6 C5         -1.9976   -1.4026   -0.2137 C.ar      1 <0>        -0.1846
      7 C6         -1.9331   -2.7694   -0.4111 C.ar      1 <0>        -0.0642
      8 C7         -2.0087   -3.2882   -1.6894 C.ar      1 <0>        -0.1989
      9 C8         -2.1490   -2.4364   -2.7752 C.ar      1 <0>         0.1460
     10 C9         -2.2178   -1.0653   -2.5740 C.ar      1 <0>        -0.1427
     11 O1         -2.2240   -2.9443   -4.0335 O.3       1 <0>        -0.3120
     12 C10        -2.1518   -4.3654   -4.1649 C.3       1 <0>         0.0224
     13 H2         -1.3568    3.3311   -0.0851 H         1 <0>         0.0832
     14 H3          0.1298    3.4712   -1.0539 H         1 <0>         0.0846
     15 H4         -1.4574    3.4391   -1.8590 H         1 <0>         0.1077
     16 H5         -2.6553    1.1417   -0.1032 H         1 <0>         0.1009
     17 H6         -2.8147    1.3921   -1.8582 H         1 <0>         0.1220
     18 H7         -1.9387   -0.9991    0.7864 H         1 <0>         0.1238
     19 H8         -1.8239   -3.4322    0.4346 H         1 <0>         0.1346
     20 H9         -1.9590   -4.3561   -1.8431 H         1 <0>         0.1373
     21 H10        -2.3311   -0.4003   -3.4174 H         1 <0>         0.1378
     22 H11        -1.2030   -4.7198   -3.7621 H         1 <0>         0.0608
     23 H12        -2.9738   -4.8234   -3.6147 H         1 <0>         0.0619
     24 H13        -2.2236   -4.6371   -5.2180 H         1 <0>         0.1099
     25 H14         0.0021   -0.0041    0.0020 H         1 <0>         0.4352
     26 H15         0.9253    1.3792    0.0006 H         1 <0>         0.4379
     27 N1         -0.0252    1.0139    0.0269 N.4       1 <0>        -0.6475
     28 H16        -0.4761    1.3157    0.8986 H         1 <0>         0.4357
@<TRIPOS>BOND
     1    1    2 1
     2    1   13 1
     3    1   14 1
     4    1   15 1
     5    2    3 1
     6    2    4 1
     7    2   27 1
     8    4    5 1
     9    4   16 1
    10    4   17 1
    11    5   10 ar
    12    5    6 ar
    13    6    7 ar
    14    6   18 1
    15    7    8 ar
    16    7   19 1
    17    8    9 ar
    18    8   20 1
    19    9   10 ar
    20    9   11 1
    21   10   21 1
    22   11   12 1
    23   12   22 1
    24   12   23 1
    25   12   24 1
    26   25   27 1
    27   26   27 1
    28   27   28 1
@<TRIPOS>MOLECULE
ZINC06021022
   28    28     0     0     0
SMALL
USER_CHARGES
(2S)-1-(3-methoxyphenyl)propan-2-amine
@<TRIPOS>ATOM
      1 C1         -2.6359    1.1447    7.7295 C.3       1 <0>        -0.1856
      2 C2         -1.8895    0.6327    6.4960 C.3       1 <0>         0.0370
      3 H1         -2.5989    0.4651    5.6856 H         1 <0>         0.1414
      4 C3         -0.8530    1.6703    6.0599 C.3       1 <0>        -0.0980
      5 C4         -0.2037    1.2227    4.7758 C.ar      1 <0>        -0.0866
      6 C5          0.9361    0.4405    4.8140 C.ar      1 <0>        -0.1823
      7 C6          1.5344    0.0287    3.6377 C.ar      1 <0>        -0.0650
      8 C7          0.9908    0.3924    2.4206 C.ar      1 <0>        -0.1990
      9 C8         -0.1488    1.1821    2.3796 C.ar      1 <0>         0.1454
     10 C9         -0.7471    1.5945    3.5616 C.ar      1 <0>        -0.1433
     11 O1         -0.6816    1.5467    1.1837 O.3       1 <0>        -0.3122
     12 C10        -0.0127    1.0858    0.0080 C.3       1 <0>         0.0224
     13 H2         -3.1387    2.0810    7.4873 H         1 <0>         0.1077
     14 H3         -3.3743    0.4055    8.0402 H         1 <0>         0.0843
     15 H4         -1.9264    1.3123    8.5399 H         1 <0>         0.0834
     16 H5         -0.0933    1.7728    6.8348 H         1 <0>         0.1007
     17 H6         -1.3441    2.6307    5.9033 H         1 <0>         0.1221
     18 H7          1.3597    0.1511    5.7644 H         1 <0>         0.1235
     19 H8          2.4246   -0.5819    3.6702 H         1 <0>         0.1342
     20 H9          1.4559    0.0664    1.5020 H         1 <0>         0.1371
     21 H10        -1.6373    2.2054    3.5323 H         1 <0>         0.1375
     22 H11         0.0021   -0.0041    0.0020 H         1 <0>         0.0607
     23 H12         1.0099    1.4631    0.0003 H         1 <0>         0.0618
     24 H13        -0.5399    1.4469   -0.8751 H         1 <0>         0.1098
     25 H14        -0.7649   -1.0209    6.0070 H         1 <0>         0.4361
     26 H15        -0.5484   -0.5000    7.5715 H         1 <0>         0.4337
     27 N1         -1.2317   -0.6429    6.8297 N.4       1 <0>        -0.6470
     28 H16        -1.9396   -1.3137    7.1510 H         1 <0>         0.4401
@<TRIPOS>BOND
     1    1    2 1
     2    1   13 1
     3    1   14 1
     4    1   15 1
     5    2    3 1
     6    2    4 1
     7    2   27 1
     8    4    5 1
     9    4   16 1
    10    4   17 1
    11    5   10 ar
    12    5    6 ar
    13    6    7 ar
    14    6   18 1
    15    7    8 ar
    16    7   19 1
    17    8    9 ar
    18    8   20 1
    19    9   10 ar
    20    9   11 1
    21   10   21 1
    22   11   12 1
    23   12   22 1
    24   12   23 1
    25   12   24 1
    26   25   27 1
    27   26   27 1
    28   27   28 1
@<TRIPOS>MOLECULE
ZINC01587881
   28    28     0     0     0
SMALL
USER_CHARGES
(2S)-1-(2-methoxyphenyl)propan-2-amine
@<TRIPOS>ATOM
      1 C1         -1.3443    4.7748    4.0762 C.3       1 <0>        -0.1837
      2 C2         -2.1252    3.9050    3.0890 C.3       1 <0>         0.0372
      3 H1         -1.7104    4.0288    2.0887 H         1 <0>         0.1399
      4 C3         -2.0184    2.4372    3.5074 C.3       1 <0>        -0.0861
      5 C4         -2.6828    1.5695    2.4697 C.ar      1 <0>        -0.1660
      6 C5         -3.9993    1.1828    2.6318 C.ar      1 <0>        -0.0974
      7 C6         -4.6075    0.3818    1.6833 C.ar      1 <0>        -0.1475
      8 C7         -3.9022   -0.0291    0.5669 C.ar      1 <0>        -0.0627
      9 C8         -2.5877    0.3594    0.3975 C.ar      1 <0>        -0.1986
     10 C9         -1.9749    1.1630    1.3482 C.ar      1 <0>         0.1415
     11 O1         -0.6816    1.5467    1.1837 O.3       1 <0>        -0.3173
     12 C10        -0.0127    1.0858    0.0080 C.3       1 <0>         0.0224
     13 H2         -0.2971    4.4725    4.0772 H         1 <0>         0.1071
     14 H3         -1.4204    5.8205    3.7782 H         1 <0>         0.0827
     15 H4         -1.7592    4.6510    5.0766 H         1 <0>         0.0824
     16 H5         -2.5123    2.2966    4.4688 H         1 <0>         0.0959
     17 H6         -0.9679    2.1597    3.5945 H         1 <0>         0.1212
     18 H7         -4.5523    1.5027    3.5026 H         1 <0>         0.1302
     19 H8         -5.6352    0.0766    1.8142 H         1 <0>         0.1333
     20 H9         -4.3797   -0.6546   -0.1728 H         1 <0>         0.1346
     21 H10        -2.0371    0.0377   -0.4742 H         1 <0>         0.1370
     22 H11         0.0021   -0.0041    0.0020 H         1 <0>         0.0628
     23 H12         1.0099    1.4631    0.0003 H         1 <0>         0.1090
     24 H13        -0.5399    1.4469   -0.8751 H         1 <0>         0.0610
     25 H14        -4.0612    3.7965    2.3971 H         1 <0>         0.4350
     26 H15        -3.9443    4.2068    4.0046 H         1 <0>         0.4331
     27 N1         -3.5341    4.3367    3.0813 N.4       1 <0>        -0.6462
     28 H16        -3.5809    5.3313    2.8308 H         1 <0>         0.4392
@<TRIPOS>BOND
     1    1    2 1
     2    1   13 1
     3    1   14 1
     4    1   15 1
     5    2    3 1
     6    2    4 1
     7    2   27 1
     8    4    5 1
     9    4   16 1
    10    4   17 1
    11    5   10 ar
    12    5    6 ar
    13    6    7 ar
    14    6   18 1
    15    7    8 ar
    16    7   19 1
    17    8    9 ar
    18    8   20 1
    19    9   10 ar
    20    9   21 1
    21   10   11 1
    22   11   12 1
    23   12   22 1
    24   12   23 1
    25   12   24 1
    26   25   27 1
    27   26   27 1
    28   27   28 1
@<TRIPOS>MOLECULE
ZINC04957092
   28    28     0     0     0
SMALL
USER_CHARGES
(2R)-1-(2-methoxyphenyl)propan-2-amine
@<TRIPOS>ATOM
      1 C1         -1.5142    1.2363    5.6143 C.3       1 <0>        -0.1847
      2 C2         -0.9044    2.0786    4.4920 C.3       1 <0>         0.0382
      3 H1         -0.4523    2.9755    4.9155 H         1 <0>         0.1412
      4 C3         -1.9999    2.4786    3.5017 C.3       1 <0>        -0.0920
      5 C4         -1.4245    3.4085    2.4647 C.ar      1 <0>        -0.1539
      6 C5         -1.5309    4.7764    2.6275 C.ar      1 <0>        -0.0684
      7 C6         -1.0029    5.6299    1.6768 C.ar      1 <0>        -0.1388
      8 C7         -0.3668    5.1173    0.5610 C.ar      1 <0>        -0.0661
      9 C8         -0.2533    3.7506    0.3962 C.ar      1 <0>        -0.1929
     10 C9         -0.7874    2.8918    1.3462 C.ar      1 <0>         0.1011
     11 O1         -0.6816    1.5467    1.1837 O.3       1 <0>        -0.3444
     12 C10        -0.0127    1.0858    0.0080 C.3       1 <0>         0.0183
     13 H2         -1.9662    0.3394    5.1909 H         1 <0>         0.0827
     14 H3         -0.7337    0.9514    6.3199 H         1 <0>         0.0834
     15 H4         -2.2770    1.8181    6.1318 H         1 <0>         0.1067
     16 H5         -2.8054    2.9832    4.0352 H         1 <0>         0.1185
     17 H6         -2.3910    1.5864    3.0127 H         1 <0>         0.1006
     18 H7         -2.0272    5.1791    3.4981 H         1 <0>         0.1381
     19 H8         -1.0870    6.6989    1.8059 H         1 <0>         0.1355
     20 H9          0.0452    5.7862   -0.1801 H         1 <0>         0.1357
     21 H10         0.2475    3.3508   -0.4731 H         1 <0>         0.1372
     22 H11         0.0021   -0.0041    0.0020 H         1 <0>         0.1110
     23 H12         1.0099    1.4631    0.0003 H         1 <0>         0.0638
     24 H13        -0.5399    1.4469   -0.8751 H         1 <0>         0.0687
     25 H14         0.4965    1.8053    3.0083 H         1 <0>         0.4320
     26 H15         0.8591    1.0182    4.4278 H         1 <0>         0.4333
     27 N1          0.1098    1.2748    3.7872 N.4       1 <0>        -0.6420
     28 H16        -0.3289    0.4199    3.4252 H         1 <0>         0.4374
@<TRIPOS>BOND
     1    1    2 1
     2    1   13 1
     3    1   14 1
     4    1   15 1
     5    2    3 1
     6    2    4 1
     7    2   27 1
     8    4    5 1
     9    4   16 1
    10    4   17 1
    11    5   10 ar
    12    5    6 ar
    13    6    7 ar
    14    6   18 1
    15    7    8 ar
    16    7   19 1
    17    8    9 ar
    18    8   20 1
    19    9   10 ar
    20    9   21 1
    21   10   11 1
    22   11   12 1
    23   12   22 1
    24   12   23 1
    25   12   24 1
    26   25   27 1
    27   26   27 1
    28   27   28 1
@<TRIPOS>MOLECULE
ZINC02539058
   47    48     0     0     0
SMALL
USER_CHARGES
N-[2-(5-methoxy-1H-indol-3-yl)ethyl]-N-propyl-propan-1-amine
@<TRIPOS>ATOM
      1 C1          6.5995   -0.4888   -4.4511 C.3       1 <0>        -0.1556
      2 C2          6.3779   -0.0768   -2.9944 C.3       1 <0>        -0.1513
      3 C3          6.8447    1.3666   -2.7959 C.3       1 <0>        -0.0091
      4 C4          7.5879    2.8832   -1.0608 C.3       1 <0>        -0.0121
      5 C5          9.0594    2.4654   -1.0908 C.3       1 <0>        -0.1514
      6 C6          9.9402    3.6781   -0.7832 C.3       1 <0>        -0.1558
      7 C7          5.3463    1.9703   -0.9922 C.3       1 <0>        -0.0055
      8 C8          5.2479    2.0915    0.5298 C.3       1 <0>        -0.0587
      9 C9          3.8150    2.3451    0.9219 C.2       1 <0>        -0.2096
     10 C10         3.2487    3.5413    1.1466 C.2       1 <0>         0.0934
     11 N1          1.9323    3.3788    1.4816 N.pl3     1 <0>        -0.5866
     12 H1          1.3168    4.0993    1.6889 H         1 <0>         0.4230
     13 C11         1.6109    2.0377    1.4805 C.ar      1 <0>         0.0615
     14 C12         2.7766    1.3330    1.1299 C.ar      1 <0>        -0.0588
     15 C13         2.7515   -0.0607    1.0478 C.ar      1 <0>        -0.1282
     16 C14         1.5780   -0.7385    1.3126 C.ar      1 <0>         0.1166
     17 C15         0.4257   -0.0380    1.6589 C.ar      1 <0>        -0.1753
     18 C16         0.4390    1.3366    1.7429 C.ar      1 <0>        -0.0792
     19 O1          1.5475   -2.0958    1.2342 O.3       1 <0>        -0.3182
     20 C17         0.3015   -2.7344    1.5200 C.3       1 <0>         0.0252
     21 H2          6.2670   -1.5171   -4.5925 H         1 <0>         0.0767
     22 H3          6.0297    0.1706   -5.1058 H         1 <0>         0.0663
     23 H4          7.6597   -0.4133   -4.6928 H         1 <0>         0.0661
     24 H5          6.9477   -0.7362   -2.3396 H         1 <0>         0.0847
     25 H6          5.3177   -0.1524   -2.7527 H         1 <0>         0.0865
     26 H7          6.2166    2.0357   -3.3840 H         1 <0>         0.1300
     27 H8          7.8807    1.4614   -3.1210 H         1 <0>         0.1290
     28 H9          7.4175    3.6668   -1.7991 H         1 <0>         0.1301
     29 H10         7.3367    3.2580   -0.0686 H         1 <0>         0.1312
     30 H11         9.2327    1.6915   -0.3431 H         1 <0>         0.0858
     31 H12         9.3070    2.0779   -2.0790 H         1 <0>         0.0842
     32 H13        10.9886    3.3805   -0.8045 H         1 <0>         0.0764
     33 H14         9.7669    4.4520   -1.5309 H         1 <0>         0.0662
     34 H15         9.6926    4.0656    0.2050 H         1 <0>         0.0670
     35 H16         4.7247    1.1418   -1.3317 H         1 <0>         0.1300
     36 H17         5.0018    2.8958   -1.4535 H         1 <0>         0.1300
     37 H18         5.8695    2.9200    0.8693 H         1 <0>         0.0900
     38 H19         5.5924    1.1660    0.9910 H         1 <0>         0.0910
     39 H20         3.7569    4.4914    1.0731 H         1 <0>         0.1734
     40 H21         3.6444   -0.6052    0.7786 H         1 <0>         0.1266
     41 H22        -0.4870   -0.5777    1.8641 H         1 <0>         0.1374
     42 H23        -0.4617    1.8702    2.0081 H         1 <0>         0.1294
     43 H24         0.4154   -3.8139    1.4215 H         1 <0>         0.1042
     44 H25        -0.0056   -2.4928    2.5375 H         1 <0>         0.0581
     45 H26        -0.4558   -2.3835    0.8189 H         1 <0>         0.0574
     46 N2          6.7526    1.7008   -1.3590 N.4       1 <0>        -0.3976
     47 H27         7.0939    0.9040   -0.8087 H         1 <0>         0.4253
@<TRIPOS>BOND
     1    1    2 1
     2    1   21 1
     3    1   22 1
     4    1   23 1
     5    2    3 1
     6    2   24 1
     7    2   25 1
     8    3   26 1
     9    3   27 1
    10    3   46 1
    11    4    5 1
    12    4   28 1
    13    4   29 1
    14    4   46 1
    15    5    6 1
    16    5   30 1
    17    5   31 1
    18    6   32 1
    19    6   33 1
    20    6   34 1
    21    7    8 1
    22    7   35 1
    23    7   36 1
    24    7   46 1
    25    8    9 1
    26    8   37 1
    27    8   38 1
    28    9   14 1
    29    9   10 2
    30   10   11 1
    31   10   39 1
    32   11   12 1
    33   11   13 1
    34   13   18 ar
    35   13   14 ar
    36   14   15 ar
    37   15   16 ar
    38   15   40 1
    39   16   17 ar
    40   16   19 1
    41   17   18 ar
    42   17   41 1
    43   18   42 1
    44   19   20 1
    45   20   43 1
    46   20   44 1
    47   20   45 1
    48   46   47 1
@<TRIPOS>MOLECULE
ZINC03775140
   62    64     0     0     0
SMALL
USER_CHARGES

@<TRIPOS>ATOM
      1 C1         -0.0173    1.4248    0.0099 C.3       1 <0>         0.0171
      2 O1          0.0021   -0.0041    0.0020 O.3       1 <0>        -0.2760
      3 C2          0.6048   -0.6061   -1.0540 C.ar      1 <0>         0.2490
      4 C3          1.1714    0.1577   -2.0595 C.ar      1 <0>        -0.2968
      5 C4          1.7875   -0.4643   -3.1379 C.ar      1 <0>         0.3045
      6 C5          1.8368   -1.8562   -3.2112 C.ar      1 <0>        -0.1599
      7 C6          1.2804   -2.6188   -2.2247 C.ar      1 <0>         0.0104
      8 C7          0.6619   -2.0064   -1.1291 C.ar      1 <0>        -0.2378
      9 C8          0.0677   -2.8282   -0.0619 C.2       1 <0>         0.5777
     10 O2         -0.4739   -2.2937    0.8871 O.2       1 <0>        -0.5075
     11 N1          0.1238   -4.1727   -0.1363 N.am      1 <0>        -0.7330
     12 C9         -0.4675   -4.9905    0.9257 C.3       1 <0>         0.1404
     13 H1         -1.3642   -4.5012    1.3060 H         1 <0>         0.1248
     14 C10         0.5437   -5.1622    2.0629 C.3       1 <0>        -0.1546
     15 C11         1.7671   -5.9184    1.5404 C.3       1 <0>        -0.0167
     16 N2          1.3566   -7.2378    1.0453 N.4       1 <0>        -0.3759
     17 C12         0.4423   -7.0806   -0.0921 C.3       1 <0>        -0.0388
     18 C13        -0.8339   -6.3685    0.3670 C.3       1 <0>         0.0659
     19 H2         -1.3203   -6.9585    1.1438 H         1 <0>         0.1015
     20 O3         -1.7219   -6.2131   -0.7418 O.3       1 <0>        -0.3502
     21 C14        -2.6322   -7.3011   -0.9143 C.3       1 <0>         0.0179
     22 C15         2.5438   -7.9895    0.6171 C.3       1 <0>        -0.0062
     23 C16         3.4343   -8.2703    1.8292 C.3       1 <0>        -0.1507
     24 C17         4.6708   -9.0533    1.3832 C.3       1 <0>         0.0614
     25 O4          5.5024   -9.3155    2.5152 O.3       1 <0>        -0.3099
     26 C18         6.6507  -10.0076    2.2904 C.ar      1 <0>         0.1104
     27 C19         6.9722  -10.4203    1.0058 C.ar      1 <0>        -0.1786
     28 C20         8.1394  -11.1237    0.7787 C.ar      1 <0>        -0.1136
     29 C21         8.9878  -11.4170    1.8328 C.ar      1 <0>         0.0730
     30 C22         8.6679  -11.0061    3.1156 C.ar      1 <0>        -0.1109
     31 C23         7.5046  -10.2969    3.3445 C.ar      1 <0>        -0.1156
     32 F1         10.1287  -12.1053    1.6094 F         1 <0>        -0.1339
     33 Cl1         2.6089   -2.6229   -4.5639 Cl        1 <0>        -0.0623
     34 N3          2.3569    0.3038   -4.1485 N.pl3     1 <0>        -0.8495
     35 H3          1.0053    1.8021    0.0021 H         1 <0>         0.0609
     36 H4         -0.5445    1.7859   -0.8732 H         1 <0>         0.0614
     37 H5         -0.5275    1.7763    0.9067 H         1 <0>         0.1085
     38 H6          1.1342    1.2357   -2.0059 H         1 <0>         0.1464
     39 H7          1.3215   -3.6961   -2.2880 H         1 <0>         0.1333
     40 H8          0.5557   -4.5989   -0.8931 H         1 <0>         0.3942
     41 H9          0.8503   -4.1821    2.4284 H         1 <0>         0.1283
     42 H10         0.0859   -5.7273    2.8748 H         1 <0>         0.1026
     43 H11         2.2242   -5.3523    0.7288 H         1 <0>         0.1317
     44 H12         2.4891   -6.0421    2.3475 H         1 <0>         0.1399
     45 H13         0.9276   -6.4898   -0.8690 H         1 <0>         0.1341
     46 H14         0.1862   -8.0624   -0.4903 H         1 <0>         0.1380
     47 H15        -2.0715   -8.2215   -1.0778 H         1 <0>         0.0481
     48 H16        -3.2481   -7.4047   -0.0210 H         1 <0>         0.0566
     49 H17        -3.2712   -7.1071   -1.7758 H         1 <0>         0.1042
     50 H18         2.2339   -8.9329    0.1676 H         1 <0>         0.1368
     51 H19         3.1003   -7.4039   -0.1147 H         1 <0>         0.1356
     52 H20         3.7442   -7.3269    2.2786 H         1 <0>         0.1012
     53 H21         2.8778   -8.8559    2.5610 H         1 <0>         0.1013
     54 H22         4.3608   -9.9967    0.9337 H         1 <0>         0.0740
     55 H23         5.2272   -8.4676    0.6514 H         1 <0>         0.0740
     56 H24         6.3103  -10.1922    0.1835 H         1 <0>         0.1353
     57 H25         8.3900  -11.4451   -0.2214 H         1 <0>         0.1422
     58 H26         9.3304  -11.2359    3.9370 H         1 <0>         0.1482
     59 H27         7.2577   -9.9722    4.3445 H         1 <0>         0.1439
     60 H28         2.3233    1.2719   -4.0992 H         1 <0>         0.4097
     61 H29         2.7876   -0.1289   -4.9023 H         1 <0>         0.4089
     62 H30         0.8896   -7.7426    1.7837 H         1 <0>         0.4252
@<TRIPOS>BOND
     1    1    2 1
     2    1   35 1
     3    1   36 1
     4    1   37 1
     5    2    3 1
     6    3    8 ar
     7    3    4 ar
     8    4    5 ar
     9    4   38 1
    10    5    6 ar
    11    5   34 1
    12    6    7 ar
    13    6   33 1
    14    7    8 ar
    15    7   39 1
    16    8    9 1
    17    9   10 2
    18    9   11 am
    19   11   12 1
    20   11   40 1
    21   12   13 1
    22   12   18 1
    23   12   14 1
    24   14   15 1
    25   14   41 1
    26   14   42 1
    27   15   16 1
    28   15   43 1
    29   15   44 1
    30   16   17 1
    31   16   22 1
    32   16   62 1
    33   17   18 1
    34   17   45 1
    35   17   46 1
    36   18   19 1
    37   18   20 1
    38   20   21 1
    39   21   47 1
    40   21   48 1
    41   21   49 1
    42   22   23 1
    43   22   50 1
    44   22   51 1
    45   23   24 1
    46   23   52 1
    47   23   53 1
    48   24   25 1
    49   24   54 1
    50   24   55 1
    51   25   26 1
    52   26   31 ar
    53   26   27 ar
    54   27   28 ar
    55   27   56 1
    56   28   29 ar
    57   28   57 1
    58   29   30 ar
    59   29   32 1
    60   30   31 ar
    61   30   58 1
    62   31   59 1
    63   34   60 1
    64   34   61 1
@<TRIPOS>MOLECULE
ZINC03830564
   62    64     0     0     0
SMALL
USER_CHARGES

@<TRIPOS>ATOM
      1 C1         -0.0173    1.4248    0.0099 C.3       1 <0>         0.0173
      2 O1          0.0021   -0.0041    0.0020 O.3       1 <0>        -0.2768
      3 C2          0.6048   -0.6061   -1.0540 C.ar      1 <0>         0.2482
      4 C3          1.1714    0.1577   -2.0595 C.ar      1 <0>        -0.2974
      5 C4          1.7875   -0.4643   -3.1379 C.ar      1 <0>         0.3044
      6 C5          1.8368   -1.8562   -3.2112 C.ar      1 <0>        -0.1594
      7 C6          1.2804   -2.6188   -2.2247 C.ar      1 <0>         0.0124
      8 C7          0.6619   -2.0064   -1.1291 C.ar      1 <0>        -0.2376
      9 C8          0.0677   -2.8282   -0.0619 C.2       1 <0>         0.5803
     10 O2         -0.4739   -2.2937    0.8871 O.2       1 <0>        -0.5144
     11 N1          0.1238   -4.1727   -0.1363 N.am      1 <0>        -0.7279
     12 C9         -0.4675   -4.9905    0.9257 C.3       1 <0>         0.1426
     13 H1         -0.3382   -4.4904    1.8855 H         1 <0>         0.1147
     14 C10        -1.9606   -5.1884    0.6484 C.3       1 <0>        -0.1574
     15 C11        -2.5547   -6.1082    1.7173 C.3       1 <0>        -0.0121
     16 N2         -1.8729   -7.4076    1.6837 N.4       1 <0>        -0.3780
     17 C12        -0.4544   -7.2346    2.0193 C.3       1 <0>        -0.0308
     18 C13         0.2219   -6.3574    0.9634 C.3       1 <0>         0.0634
     19 H2          0.1375   -6.8346   -0.0130 H         1 <0>         0.0897
     20 O3          1.6015   -6.1871    1.2946 O.3       1 <0>        -0.3498
     21 C14         2.4612   -7.1803    0.7321 C.3       1 <0>         0.0175
     22 C15        -2.4981   -8.3123    2.6576 C.3       1 <0>        -0.0056
     23 C16        -3.9400   -8.5999    2.2341 C.3       1 <0>        -0.1510
     24 C17        -4.5912   -9.5422    3.2484 C.3       1 <0>         0.0612
     25 O4         -5.9378   -9.8107    2.8528 O.3       1 <0>        -0.3101
     26 C18        -6.6627  -10.6375    3.6523 C.ar      1 <0>         0.1103
     27 C19        -6.0908  -11.1740    4.7964 C.ar      1 <0>        -0.1786
     28 C20        -6.8286  -12.0140    5.6079 C.ar      1 <0>        -0.1136
     29 C21        -8.1381  -12.3209    5.2793 C.ar      1 <0>         0.0729
     30 C22        -8.7100  -11.7865    4.1373 C.ar      1 <0>        -0.1110
     31 C23        -7.9767  -10.9409    3.3276 C.ar      1 <0>        -0.1157
     32 F1         -8.8583  -13.1429    6.0736 F         1 <0>        -0.1339
     33 Cl1         2.6089   -2.6229   -4.5639 Cl        1 <0>        -0.0612
     34 N3          2.3569    0.3038   -4.1485 N.pl3     1 <0>        -0.8498
     35 H3          1.0053    1.8021    0.0021 H         1 <0>         0.0610
     36 H4         -0.5445    1.7859   -0.8732 H         1 <0>         0.0608
     37 H5         -0.5275    1.7763    0.9067 H         1 <0>         0.1075
     38 H6          1.1342    1.2357   -2.0059 H         1 <0>         0.1460
     39 H7          1.3215   -3.6961   -2.2880 H         1 <0>         0.1366
     40 H8          0.5557   -4.5989   -0.8931 H         1 <0>         0.4011
     41 H9         -2.4669   -4.2235    0.6762 H         1 <0>         0.1280
     42 H10        -2.0914   -5.6407   -0.3346 H         1 <0>         0.0936
     43 H11        -2.4236   -5.6548    2.6998 H         1 <0>         0.1373
     44 H12        -3.6177   -6.2510    1.5230 H         1 <0>         0.1408
     45 H13        -0.3681   -6.7573    2.9954 H         1 <0>         0.1434
     46 H14         0.0331   -8.2090    2.0480 H         1 <0>         0.1370
     47 H15         2.1631   -8.1650    1.0923 H         1 <0>         0.0484
     48 H16         2.3857   -7.1529   -0.3549 H         1 <0>         0.0550
     49 H17         3.4905   -6.9808    1.0300 H         1 <0>         0.1046
     50 H18        -1.9380   -9.2465    2.6975 H         1 <0>         0.1365
     51 H19        -2.4951   -7.8445    3.6421 H         1 <0>         0.1371
     52 H20        -4.5001   -7.6657    2.1942 H         1 <0>         0.1015
     53 H21        -3.9430   -9.0676    1.2495 H         1 <0>         0.1005
     54 H22        -4.0310  -10.4764    3.2882 H         1 <0>         0.0740
     55 H23        -4.5881   -9.0744    4.2329 H         1 <0>         0.0745
     56 H24        -5.0691  -10.9353    5.0526 H         1 <0>         0.1356
     57 H25        -6.3836  -12.4318    6.4989 H         1 <0>         0.1423
     58 H26        -9.7315  -12.0270    3.8820 H         1 <0>         0.1482
     59 H27        -8.4246  -10.5203    2.4394 H         1 <0>         0.1438
     60 H28         2.3233    1.2719   -4.0992 H         1 <0>         0.4092
     61 H29         2.7876   -0.1289   -4.9023 H         1 <0>         0.4089
     62 H30        -1.9528   -7.8044    0.7595 H         1 <0>         0.4239
@<TRIPOS>BOND
     1    1    2 1
     2    1   35 1
     3    1   36 1
     4    1   37 1
     5    2    3 1
     6    3    8 ar
     7    3    4 ar
     8    4    5 ar
     9    4   38 1
    10    5    6 ar
    11    5   34 1
    12    6    7 ar
    13    6   33 1
    14    7    8 ar
    15    7   39 1
    16    8    9 1
    17    9   10 2
    18    9   11 am
    19   11   12 1
    20   11   40 1
    21   12   13 1
    22   12   18 1
    23   12   14 1
    24   14   15 1
    25   14   41 1
    26   14   42 1
    27   15   16 1
    28   15   43 1
    29   15   44 1
    30   16   17 1
    31   16   22 1
    32   16   62 1
    33   17   18 1
    34   17   45 1
    35   17   46 1
    36   18   19 1
    37   18   20 1
    38   20   21 1
    39   21   47 1
    40   21   48 1
    41   21   49 1
    42   22   23 1
    43   22   50 1
    44   22   51 1
    45   23   24 1
    46   23   52 1
    47   23   53 1
    48   24   25 1
    49   24   54 1
    50   24   55 1
    51   25   26 1
    52   26   31 ar
    53   26   27 ar
    54   27   28 ar
    55   27   56 1
    56   28   29 ar
    57   28   57 1
    58   29   30 ar
    59   29   32 1
    60   30   31 ar
    61   30   58 1
    62   31   59 1
    63   34   60 1
    64   34   61 1
@<TRIPOS>MOLECULE
ZINC00538194
   54    57     0     0     0
SMALL
USER_CHARGES

@<TRIPOS>ATOM
      1 C1         -0.0184    1.5028    0.0103 C.3       1 <0>        -0.1183
      2 C2          0.0021   -0.0041    0.0020 C.2       1 <0>         0.2437
      3 C3         -1.1850   -0.7103    0.0039 C.2       1 <0>        -0.3474
      4 C4         -1.1404   -2.1092   -0.0040 C.2       1 <0>         0.5188
      5 O1         -2.1719   -2.7624   -0.0030 O.2       1 <0>        -0.5334
      6 N1          0.0611   -2.7250   -0.0132 N.am      1 <0>        -0.4259
      7 C5          0.1211   -4.0855   -0.0211 C.2       1 <0>         0.0951
      8 C6          1.3125   -4.7247   -0.0303 C.2       1 <0>        -0.1540
      9 C7          2.5062   -3.9895   -0.0313 C.2       1 <0>        -0.0169
     10 C8          2.4570   -2.6277   -0.0235 C.2       1 <0>        -0.1401
     11 C9          1.2077   -1.9806   -0.0149 C.2       1 <0>         0.4045
     12 N2          1.1576   -0.6497   -0.0125 N.2       1 <0>        -0.5425
     13 C10        -2.5067    0.0136    0.0147 C.3       1 <0>        -0.0580
     14 C11        -3.0215    0.1567   -1.4190 C.3       1 <0>        -0.0066
     15 N3         -4.3099    0.8624   -1.4085 N.4       1 <0>        -0.3846
     16 C12        -4.1118    2.2322   -0.9196 C.3       1 <0>        -0.0111
     17 C13        -5.4623    2.9460   -0.8298 C.3       1 <0>        -0.1360
     18 C14        -6.1056    2.9862   -2.2189 C.3       1 <0>        -0.1473
     19 C15        -6.2393    1.5562   -2.7503 C.3       1 <0>        -0.1372
     20 C16        -4.8600    0.8938   -2.7689 C.3       1 <0>        -0.0028
     21 C17        -7.4704    3.6182   -2.1241 C.2       1 <0>         0.4077
     22 O2         -8.0811    3.5883   -1.0767 O.2       1 <0>        -0.4339
     23 C18        -8.0616    4.2710   -3.3013 C.ar      1 <0>        -0.1953
     24 C19        -7.3620    4.3022   -4.5129 C.ar      1 <0>        -0.0465
     25 C20        -7.9216    4.9155   -5.6120 C.ar      1 <0>        -0.1663
     26 C21        -9.1754    5.5017   -5.5197 C.ar      1 <0>         0.1452
     27 C22        -9.8742    5.4743   -4.3216 C.ar      1 <0>        -0.1629
     28 C23        -9.3287    4.8588   -3.2166 C.ar      1 <0>        -0.0246
     29 F1         -9.7183    6.1024   -6.6012 F         1 <0>        -0.1249
     30 H1          1.0042    1.8801    0.0026 H         1 <0>         0.0924
     31 H2         -0.5455    1.8639   -0.8728 H         1 <0>         0.0828
     32 H3         -0.5286    1.8543    0.9071 H         1 <0>         0.0918
     33 H4         -0.7932   -4.6603   -0.0196 H         1 <0>         0.1868
     34 H5          1.3446   -5.8042   -0.0365 H         1 <0>         0.1679
     35 H6          3.4584   -4.4990   -0.0379 H         1 <0>         0.1624
     36 H7          3.3695   -2.0499   -0.0243 H         1 <0>         0.1737
     37 H8         -3.2268   -0.5535    0.6044 H         1 <0>         0.0958
     38 H9         -2.3757    1.0025    0.4541 H         1 <0>         0.0943
     39 H10        -2.3014    0.7239   -2.0088 H         1 <0>         0.1275
     40 H11        -3.1525   -0.8322   -1.8584 H         1 <0>         0.1309
     41 H12        -3.6509    2.2020    0.0678 H         1 <0>         0.1368
     42 H13        -3.4608    2.7723   -1.6070 H         1 <0>         0.1318
     43 H14        -6.1140    2.4069   -0.1423 H         1 <0>         0.1009
     44 H15        -5.3128    3.9634   -0.4683 H         1 <0>         0.1167
     45 H16        -5.4790    3.5689   -2.8941 H         1 <0>         0.1172
     46 H17        -6.9071    0.9881   -2.1027 H         1 <0>         0.0969
     47 H18        -6.6452    1.5801   -3.7616 H         1 <0>         0.1198
     48 H19        -4.1931    1.4624   -3.4170 H         1 <0>         0.1320
     49 H20        -4.9515   -0.1244   -3.1469 H         1 <0>         0.1356
     50 H21        -6.3855    3.8468   -4.5859 H         1 <0>         0.1390
     51 H22        -7.3828    4.9404   -6.5477 H         1 <0>         0.1469
     52 H23       -10.8500    5.9325   -4.2564 H         1 <0>         0.1488
     53 H24        -9.8756    4.8342   -2.2857 H         1 <0>         0.1470
     54 H25        -4.9519    0.3792   -0.7982 H         1 <0>         0.4254
@<TRIPOS>BOND
     1    1    2 1
     2    1   30 1
     3    1   31 1
     4    1   32 1
     5    2   12 1
     6    2    3 2
     7    3    4 1
     8    3   13 1
     9    4    5 2
    10    4    6 am
    11    6   11 1
    12    6    7 1
    13    7    8 2
    14    7   33 1
    15    8    9 1
    16    8   34 1
    17    9   10 2
    18    9   35 1
    19   10   11 1
    20   10   36 1
    21   11   12 2
    22   13   14 1
    23   13   37 1
    24   13   38 1
    25   14   15 1
    26   14   39 1
    27   14   40 1
    28   15   20 1
    29   15   16 1
    30   15   54 1
    31   16   17 1
    32   16   41 1
    33   16   42 1
    34   17   18 1
    35   17   43 1
    36   17   44 1
    37   18   19 1
    38   18   21 1
    39   18   45 1
    40   19   20 1
    41   19   46 1
    42   19   47 1
    43   20   48 1
    44   20   49 1
    45   21   22 2
    46   21   23 1
    47   23   28 ar
    48   23   24 ar
    49   24   25 ar
    50   24   50 1
    51   25   26 ar
    52   25   51 1
    53   26   27 ar
    54   26   29 1
    55   27   28 ar
    56   27   52 1
    57   28   53 1
@<TRIPOS>MOLECULE
ZINC19376338
   32    34     0     0     0
SMALL
USER_CHARGES

@<TRIPOS>ATOM
      1 C1         -0.0239    1.3370    0.2441 C.ar      1 <0>        -0.1256
      2 C2          1.1550    2.0478    0.4568 C.ar      1 <0>        -0.0782
      3 C3          2.3643    1.4231    0.4379 C.ar      1 <0>        -0.1141
      4 C4          2.4311    0.0393    0.2011 C.ar      1 <0>         0.1744
      5 C5          1.2312   -0.6814   -0.0144 C.ar      1 <0>        -0.1375
      6 C6          0.0018   -0.0048    0.0116 C.ar      1 <0>        -0.0809
      7 C7          1.2976   -2.0694   -0.2519 C.ar      1 <0>        -0.0096
      8 C8          2.5231   -2.6645   -0.2643 C.ar      1 <0>        -0.2222
      9 C9          3.6751   -1.8960   -0.0441 C.ar      1 <0>         0.4150
     10 N1          3.6064   -0.5993    0.1777 N.ar      1 <0>        -0.5363
     11 N2          4.9157   -2.5156   -0.0597 N.pl3     1 <0>        -0.6266
     12 C10         6.1561   -1.7247   -0.0617 C.3       1 <0>         0.1015
     13 C11         7.0719   -2.2550    1.0465 C.3       1 <0>        -0.0225
     14 N3          7.2730   -3.6982    0.8653 N.4       1 <0>        -0.5046
     15 C12         5.9976   -4.4059    1.0344 C.3       1 <0>        -0.0221
     16 C13         5.0286   -3.9823   -0.0687 C.3       1 <0>         0.0992
     17 H1         -0.9708    1.8557    0.2683 H         1 <0>         0.1324
     18 H2          1.1089    3.1113    0.6392 H         1 <0>         0.1343
     19 H3          3.2692    1.9888    0.6039 H         1 <0>         0.1349
     20 H4         -0.9189   -0.5453   -0.1515 H         1 <0>         0.1333
     21 H5          0.4000   -2.6463   -0.4193 H         1 <0>         0.1464
     22 H6          2.6072   -3.7262   -0.4432 H         1 <0>         0.1365
     23 H7          6.6530   -1.8250   -1.0266 H         1 <0>         0.0880
     24 H8          5.9227   -0.6768    0.1263 H         1 <0>         0.1390
     25 H9          8.0340   -1.7450    0.9980 H         1 <0>         0.1449
     26 H10         6.6116   -2.0712    2.0173 H         1 <0>         0.1341
     27 H11         7.6328   -3.8727   -0.0611 H         1 <0>         0.4286
     28 H12         6.1681   -5.4809    0.9769 H         1 <0>         0.1469
     29 H13         5.5698   -4.1571    2.0056 H         1 <0>         0.1344
     30 H14         4.0501   -4.4261    0.1146 H         1 <0>         0.1284
     31 H15         5.4097   -4.3144   -1.0344 H         1 <0>         0.0943
     32 H16         7.9351   -4.0327    1.5492 H         1 <0>         0.4339
@<TRIPOS>BOND
     1    1    6 ar
     2    1    2 ar
     3    1   17 1
     4    2    3 ar
     5    2   18 1
     6    3    4 ar
     7    3   19 1
     8    4   10 ar
     9    4    5 ar
    10    5    6 ar
    11    5    7 ar
    12    6   20 1
    13    7    8 ar
    14    7   21 1
    15    8    9 ar
    16    8   22 1
    17    9   10 ar
    18    9   11 1
    19   11   16 1
    20   11   12 1
    21   12   13 1
    22   12   23 1
    23   12   24 1
    24   13   14 1
    25   13   25 1
    26   13   26 1
    27   14   15 1
    28   14   27 1
    29   14   32 1
    30   15   16 1
    31   15   28 1
    32   15   29 1
    33   16   30 1
    34   16   31 1
@<TRIPOS>MOLECULE
ZINC02568243
   34    36     0     0     0
SMALL
USER_CHARGES

@<TRIPOS>ATOM
      1 C1         -0.0173    1.4248    0.0099 C.3       1 <0>         0.0252
      2 O1          0.0021   -0.0041    0.0020 O.3       1 <0>        -0.3183
      3 C2         -1.2010   -0.6379    0.0101 C.ar      1 <0>         0.1169
      4 C3         -2.3775    0.1067    0.0195 C.ar      1 <0>        -0.1762
      5 C4         -3.6034   -0.5202    0.0273 C.ar      1 <0>        -0.0783
      6 C5         -3.6744   -1.9098    0.0258 C.ar      1 <0>         0.0592
      7 C6         -2.4884   -2.6622    0.0163 C.ar      1 <0>        -0.0484
      8 C7         -1.2520   -2.0182    0.0032 C.ar      1 <0>        -0.1259
      9 C8         -2.9033   -4.0754    0.0172 C.2       1 <0>        -0.1922
     10 C9         -4.2612   -4.0825    0.0269 C.2       1 <0>         0.1018
     11 N1         -4.7283   -2.8009    0.0320 N.pl3     1 <0>        -0.5832
     12 H1         -5.6658   -2.5518    0.0397 H         1 <0>         0.4236
     13 C10        -2.0157   -5.2547    0.0093 C.2       1 <0>        -0.0022
     14 C11        -1.3988   -5.5778   -1.1088 C.2       1 <0>        -0.1971
     15 C12        -0.4803   -6.7603   -1.2219 C.3       1 <0>         0.0381
     16 N2         -0.0462   -7.2002    0.1091 N.4       1 <0>        -0.5087
     17 C13        -1.2320   -7.4084    0.9551 C.3       1 <0>        -0.0039
     18 C14        -1.8429   -6.0411    1.2796 C.3       1 <0>        -0.1164
     19 H2          1.0053    1.8021    0.0021 H         1 <0>         0.1041
     20 H3         -0.5445    1.7859   -0.8732 H         1 <0>         0.0579
     21 H4         -0.5275    1.7763    0.9067 H         1 <0>         0.0578
     22 H5         -2.3280    1.1855    0.0211 H         1 <0>         0.1378
     23 H6         -4.5099    0.0668    0.0350 H         1 <0>         0.1301
     24 H7         -0.3392   -2.5953   -0.0086 H         1 <0>         0.1257
     25 H8         -4.8782   -4.9689    0.0300 H         1 <0>         0.1757
     26 H9         -1.5611   -4.9651   -1.9833 H         1 <0>         0.1495
     27 H10        -1.0039   -7.5772   -1.7186 H         1 <0>         0.1390
     28 H11         0.3928   -6.4834   -1.8127 H         1 <0>         0.1408
     29 H12         0.4669   -8.0652    0.0282 H         1 <0>         0.4342
     30 H13        -1.9591   -8.0207    0.4217 H         1 <0>         0.1341
     31 H14        -0.9391   -7.9058    1.8797 H         1 <0>         0.1381
     32 H15        -1.1844   -5.4970    1.9567 H         1 <0>         0.1074
     33 H16        -2.8140   -6.1827    1.7539 H         1 <0>         0.1225
     34 H17         0.5436   -6.4936    0.5225 H         1 <0>         0.4315
@<TRIPOS>BOND
     1    1    2 1
     2    1   19 1
     3    1   20 1
     4    1   21 1
     5    2    3 1
     6    3    8 ar
     7    3    4 ar
     8    4    5 ar
     9    4   22 1
    10    5    6 ar
    11    5   23 1
    12    6   11 1
    13    6    7 ar
    14    7    8 ar
    15    7    9 1
    16    8   24 1
    17    9   10 2
    18    9   13 1
    19   10   11 1
    20   10   25 1
    21   11   12 1
    22   13   18 1
    23   13   14 2
    24   14   15 1
    25   14   26 1
    26   15   16 1
    27   15   27 1
    28   15   28 1
    29   16   17 1
    30   16   29 1
    31   16   34 1
    32   17   18 1
    33   17   30 1
    34   17   31 1
    35   18   32 1
    36   18   33 1
@<TRIPOS>MOLECULE
ZINC01714738
   49    50     0     0     0
SMALL
USER_CHARGES

@<TRIPOS>ATOM
      1 C1         -0.0467    1.4769    0.0229 C.3       1 <0>        -0.0475
      2 N1         -0.0215    0.0082    0.0086 N.4       1 <0>        -0.3868
      3 C2          0.6979   -0.4807    1.1924 C.3       1 <0>        -0.0541
      4 C3         -1.3977   -0.5054    0.0251 C.3       1 <0>        -0.0063
      5 C4         -1.3752   -2.0288   -0.1154 C.3       1 <0>        -0.1338
      6 C5         -2.8086   -2.5637   -0.0982 C.3       1 <0>        -0.1120
      7 S1         -2.7820   -4.3698   -0.2648 S.3       1 <0>        -0.1081
      8 C6         -4.4834   -4.8264   -0.2280 C.ar      1 <0>        -0.1291
      9 C7         -5.4630   -3.8519   -0.0994 C.ar      1 <0>        -0.1103
     10 C8         -6.7968   -4.2126   -0.0714 C.ar      1 <0>        -0.1204
     11 C9         -7.1600   -5.5434   -0.1706 C.ar      1 <0>        -0.0897
     12 C10        -6.1911   -6.5212   -0.2990 C.ar      1 <0>        -0.1142
     13 C11        -4.8504   -6.1686   -0.3339 C.ar      1 <0>         0.1802
     14 N2         -3.8676   -7.1568   -0.4692 N.am      1 <0>        -0.6663
     15 C12        -4.1713   -8.3342   -1.0505 C.2       1 <0>         0.5530
     16 O1         -5.2696   -8.5020   -1.5477 O.2       1 <0>        -0.5168
     17 C13        -3.1805   -9.4113   -1.0839 C.2       1 <0>        -0.2326
     18 C14        -3.4844  -10.5891   -1.6654 C.2       1 <0>         0.0088
     19 C15        -2.4880  -11.6722   -1.6990 C.ar      1 <0>        -0.0896
     20 C16        -1.2272  -11.4852   -1.1238 C.ar      1 <0>        -0.0979
     21 C17        -0.2992  -12.5045   -1.1593 C.ar      1 <0>        -0.1240
     22 C18        -0.6128  -13.7100   -1.7626 C.ar      1 <0>        -0.1005
     23 C19        -1.8585  -13.9027   -2.3341 C.ar      1 <0>        -0.1218
     24 C20        -2.7994  -12.8952   -2.3012 C.ar      1 <0>        -0.0883
     25 H1          0.9744    1.8580    0.0106 H         1 <0>         0.1261
     26 H2         -0.5805    1.8397   -0.8556 H         1 <0>         0.1242
     27 H3         -0.5529    1.8228    0.9241 H         1 <0>         0.1227
     28 H4          0.7166   -1.5705    1.1819 H         1 <0>         0.1248
     29 H5          1.7190   -0.0996    1.1802 H         1 <0>         0.1262
     30 H6          0.1917   -0.1348    2.0937 H         1 <0>         0.1236
     31 H7         -1.8754   -0.2344    0.9666 H         1 <0>         0.1333
     32 H8         -1.9571   -0.0723   -0.8041 H         1 <0>         0.1345
     33 H9         -0.8975   -2.2998   -1.0569 H         1 <0>         0.0988
     34 H10        -0.8158   -2.4619    0.7138 H         1 <0>         0.0989
     35 H11        -3.2863   -2.2926    0.8433 H         1 <0>         0.0993
     36 H12        -3.3680   -2.1306   -0.9274 H         1 <0>         0.0998
     37 H13        -5.1830   -2.8118   -0.0210 H         1 <0>         0.1225
     38 H14        -7.5579   -3.4530    0.0288 H         1 <0>         0.1302
     39 H15        -8.2038   -5.8197   -0.1474 H         1 <0>         0.1345
     40 H16        -6.4786   -7.5594   -0.3759 H         1 <0>         0.1551
     41 H17        -2.9681   -6.9940   -0.1446 H         1 <0>         0.4115
     42 H18        -2.2060   -9.2624   -0.6427 H         1 <0>         0.1329
     43 H19        -4.4588  -10.7380   -2.1066 H         1 <0>         0.1394
     44 H20        -0.9807  -10.5448   -0.6532 H         1 <0>         0.1261
     45 H21         0.6750  -12.3617   -0.7155 H         1 <0>         0.1275
     46 H22         0.1185  -14.5043   -1.7879 H         1 <0>         0.1276
     47 H23        -2.0957  -14.8460   -2.8034 H         1 <0>         0.1299
     48 H24        -3.7727  -13.0487   -2.7433 H         1 <0>         0.1305
     49 H25         0.4470   -0.3120   -0.8257 H         1 <0>         0.4283
@<TRIPOS>BOND
     1    1    2 1
     2    1   25 1
     3    1   26 1
     4    1   27 1
     5    2    3 1
     6    2    4 1
     7    2   49 1
     8    3   28 1
     9    3   29 1
    10    3   30 1
    11    4    5 1
    12    4   31 1
    13    4   32 1
    14    5    6 1
    15    5   33 1
    16    5   34 1
    17    6    7 1
    18    6   35 1
    19    6   36 1
    20    7    8 1
    21    8   13 ar
    22    8    9 ar
    23    9   10 ar
    24    9   37 1
    25   10   11 ar
    26   10   38 1
    27   11   12 ar
    28   11   39 1
    29   12   13 ar
    30   12   40 1
    31   13   14 1
    32   14   15 am
    33   14   41 1
    34   15   16 2
    35   15   17 1
    36   17   18 2
    37   17   42 1
    38   18   19 1
    39   18   43 1
    40   19   24 ar
    41   19   20 ar
    42   20   21 ar
    43   20   44 1
    44   21   22 ar
    45   21   45 1
    46   22   23 ar
    47   22   46 1
    48   23   24 ar
    49   23   47 1
    50   24   48 1
@<TRIPOS>MOLECULE
ZINC02539813
   29    30     0     0     0
SMALL
USER_CHARGES

@<TRIPOS>ATOM
      1 C1         -0.0169    1.3975    0.0097 C.ar      1 <0>        -0.0643
      2 C2          1.1463    2.1089    0.0024 C.ar      1 <0>        -0.1252
      3 C3          2.3728    1.4480   -0.0128 C.ar      1 <0>         0.1197
      4 C4          2.4053    0.0394   -0.0207 C.ar      1 <0>        -0.1125
      5 C5          1.2161   -0.6846   -0.0130 C.ar      1 <0>        -0.0121
      6 C6          0.0021   -0.0041    0.0020 C.ar      1 <0>        -0.1565
      7 C7         -1.2668   -0.7591    0.0106 C.2       1 <0>         0.5664
      8 O1         -1.2509   -1.9747    0.0039 O.2       1 <0>        -0.5461
      9 N1         -2.4427   -0.1006    0.0258 N.am      1 <0>        -0.8483
     10 C8          3.8230   -0.3326   -0.0371 C.2       1 <0>        -0.1957
     11 C9          4.5266    0.8101   -0.0381 C.2       1 <0>         0.0855
     12 N2          3.6763    1.8825   -0.0237 N.pl3     1 <0>        -0.5837
     13 H1          3.9530    2.8122   -0.0215 H         1 <0>         0.4262
     14 C10         4.3836   -1.7314   -0.0499 C.3       1 <0>        -0.0648
     15 C11         4.4419   -2.2443   -1.4902 C.3       1 <0>        -0.0085
     16 N3          4.9884   -3.6078   -1.5026 N.4       1 <0>        -0.6386
     17 H2         -0.9624    1.9192    0.0261 H         1 <0>         0.1348
     18 H3          1.1168    3.1884    0.0082 H         1 <0>         0.1333
     19 H4          1.2355   -1.7645   -0.0193 H         1 <0>         0.1349
     20 H5         -2.4554    0.8693    0.0312 H         1 <0>         0.4024
     21 H6         -3.2762   -0.5966    0.0315 H         1 <0>         0.4094
     22 H7          5.6046    0.8742   -0.0483 H         1 <0>         0.1771
     23 H8          5.3877   -1.7243    0.3742 H         1 <0>         0.0945
     24 H9          3.7434   -2.3848    0.5429 H         1 <0>         0.0952
     25 H10         3.4379   -2.2514   -1.9143 H         1 <0>         0.1343
     26 H11         5.0821   -1.5909   -2.0829 H         1 <0>         0.1335
     27 H12         5.9178   -3.6013   -1.1100 H         1 <0>         0.4344
     28 H13         4.3958   -4.2127   -0.9539 H         1 <0>         0.4362
     29 H14         5.0268   -3.9461   -2.4524 H         1 <0>         0.4385
@<TRIPOS>BOND
     1    1    6 ar
     2    1    2 ar
     3    1   17 1
     4    2    3 ar
     5    2   18 1
     6    3   12 1
     7    3    4 ar
     8    4    5 ar
     9    4   10 1
    10    5    6 ar
    11    5   19 1
    12    6    7 1
    13    7    8 2
    14    7    9 am
    15    9   20 1
    16    9   21 1
    17   10   11 2
    18   10   14 1
    19   11   12 1
    20   11   22 1
    21   12   13 1
    22   14   15 1
    23   14   23 1
    24   14   24 1
    25   15   16 1
    26   15   25 1
    27   15   26 1
    28   16   27 1
    29   16   28 1
    30   16   29 1
@<TRIPOS>MOLECULE
ZINC02034700
   26    27     0     0     0
SMALL
USER_CHARGES
3-(2-aminoethyl)-1H-indol-4-ol
@<TRIPOS>ATOM
      1 C1          3.2465   -1.8603   -0.0389 C.ar      1 <0>        -0.0777
      2 C2          1.8759   -1.7228   -0.0251 C.ar      1 <0>        -0.1288
      3 C3          1.3033   -0.4543   -0.0128 C.ar      1 <0>         0.1102
      4 C4          2.1342    0.6794   -0.0147 C.ar      1 <0>        -0.1244
      5 C5          3.5258    0.5253   -0.0283 C.ar      1 <0>         0.1355
      6 C6          4.0708   -0.7442   -0.0408 C.ar      1 <0>        -0.1570
      7 O1          4.3348    1.6170   -0.0298 O.3       1 <0>        -0.4931
      8 C7          1.2391    1.8390    0.0001 C.2       1 <0>        -0.1968
      9 C8         -0.0165    1.3651    0.0095 C.2       1 <0>         0.0836
     10 N1          0.0021   -0.0041    0.0020 N.pl3     1 <0>        -0.5871
     11 H1         -0.7842   -0.5721    0.0060 H         1 <0>         0.4254
     12 C9          1.6502    3.2888    0.0032 C.3       1 <0>        -0.0648
     13 C10         1.8963    3.7522   -1.4340 C.3       1 <0>        -0.0008
     14 H2          3.6842   -2.8476   -0.0480 H         1 <0>         0.1380
     15 H3          1.2454   -2.5997   -0.0241 H         1 <0>         0.1297
     16 H4          5.1436   -0.8684   -0.0517 H         1 <0>         0.1349
     17 H5          4.5606    1.9381   -0.9135 H         1 <0>         0.3794
     18 H6         -0.9089    1.9733    0.0173 H         1 <0>         0.1751
     19 H7          0.8576    3.8903    0.4482 H         1 <0>         0.0906
     20 H8          2.5649    3.4058    0.5844 H         1 <0>         0.0998
     21 H9          2.6890    3.1508   -1.8790 H         1 <0>         0.1295
     22 H10         0.9816    3.6352   -2.0151 H         1 <0>         0.1303
     23 H11         3.1062    5.3107   -0.8459 H         1 <0>         0.4380
     24 H12         2.4655    5.4956   -2.3694 H         1 <0>         0.4393
     25 N2          2.2763    5.1759   -1.4210 N.4       1 <0>        -0.6477
     26 H13         1.5041    5.7277   -1.0292 H         1 <0>         0.4391
@<TRIPOS>BOND
     1    1    6 ar
     2    1    2 ar
     3    1   14 1
     4    2    3 ar
     5    2   15 1
     6    3   10 1
     7    3    4 ar
     8    4    5 ar
     9    4    8 1
    10    5    6 ar
    11    5    7 1
    12    6   16 1
    13    7   17 1
    14    8    9 2
    15    8   12 1
    16    9   10 1
    17    9   18 1
    18   10   11 1
    19   12   13 1
    20   12   19 1
    21   12   20 1
    22   13   21 1
    23   13   22 1
    24   13   25 1
    25   23   25 1
    26   24   25 1
    27   25   26 1
@<TRIPOS>MOLECULE
ZINC03812975
   60    64     0     0     0
SMALL
USER_CHARGES

@<TRIPOS>ATOM
      1 C1         -0.0178    1.4608    0.0101 C.3       1 <0>         0.0716
      2 N1          0.0021   -0.0041    0.0020 N.pl3     1 <0>        -0.4812
      3 C2          0.0080   -0.7895   -1.1411 C.2       1 <0>         0.0913
      4 C3          0.0282   -2.0729   -0.8158 C.2       1 <0>        -0.2023
      5 C4          0.0400   -2.1061    0.6467 C.ar      1 <0>        -0.1336
      6 C5          0.0233   -0.7876    1.1160 C.ar      1 <0>         0.1162
      7 C6          0.0281   -0.6014    2.4974 C.ar      1 <0>        -0.1058
      8 C7          0.0555   -1.7454    3.2836 C.ar      1 <0>        -0.0964
      9 C8          0.0797   -3.0442    2.7772 C.ar      1 <0>        -0.1174
     10 C9          0.0695   -3.2585    1.4352 C.ar      1 <0>        -0.0501
     11 C10         0.1084   -4.5672    0.7055 C.3       1 <0>        -0.0367
     12 H1          1.1465   -4.8604    0.5493 H         1 <0>         0.1043
     13 C11        -0.5981   -5.6387    1.5422 C.3       1 <0>        -0.1264
     14 C12        -0.5917   -6.9634    0.7749 C.3       1 <0>        -0.1191
     15 H2          0.4364   -7.2946    0.6283 H         1 <0>         0.1074
     16 C13        -1.2619   -6.7580   -0.5856 C.3       1 <0>        -0.0110
     17 N2         -0.5193   -5.7488   -1.3493 N.4       1 <0>        -0.3819
     18 C14        -0.5941   -4.4602   -0.6486 C.3       1 <0>         0.0378
     19 H3         -1.6407   -4.2114   -0.4733 H         1 <0>         0.1390
     20 C15         0.0386   -3.3796   -1.5674 C.3       1 <0>        -0.0465
     21 C16        -1.1140   -5.6136   -2.6857 C.3       1 <0>        -0.0542
     22 C17        -1.3607   -8.0194    1.5713 C.3       1 <0>         0.1445
     23 N3         -1.2530   -9.3149    0.8957 N.am      1 <0>        -0.7202
     24 C18        -1.8561  -10.4004    1.4197 C.2       1 <0>         0.6478
     25 O1         -2.4890  -10.3045    2.4525 O.2       1 <0>        -0.5572
     26 O2         -1.7571  -11.5909    0.7987 O.3       1 <0>        -0.3583
     27 C19        -2.4213  -12.6986    1.4101 C.3       1 <0>         0.1298
     28 C20        -2.2011  -13.9369    0.5799 C.ar      1 <0>        -0.1065
     29 C21        -3.0857  -14.2560   -0.4333 C.ar      1 <0>        -0.0941
     30 C22        -2.8838  -15.3918   -1.1949 C.ar      1 <0>        -0.1226
     31 C23        -1.7970  -16.2083   -0.9436 C.ar      1 <0>        -0.1033
     32 C24        -0.9119  -15.8887    0.0690 C.ar      1 <0>        -0.1217
     33 C25        -1.1115  -14.7506    0.8278 C.ar      1 <0>        -0.0932
     34 H4          1.0048    1.8381    0.0023 H         1 <0>         0.0763
     35 H5         -0.5450    1.8219   -0.8730 H         1 <0>         0.0887
     36 H6         -0.5280    1.8123    0.9069 H         1 <0>         0.0865
     37 H7         -0.0028   -0.4089   -2.1517 H         1 <0>         0.1709
     38 H8          0.0117    0.3857    2.9353 H         1 <0>         0.1341
     39 H9          0.0586   -1.6213    4.3564 H         1 <0>         0.1280
     40 H10         0.1012   -3.8846    3.4551 H         1 <0>         0.1263
     41 H11        -0.0744   -5.7644    2.4899 H         1 <0>         0.1052
     42 H12        -1.6269   -5.3328    1.7318 H         1 <0>         0.0927
     43 H13        -1.2652   -7.6995   -1.1349 H         1 <0>         0.1320
     44 H14        -2.2876   -6.4199   -0.4381 H         1 <0>         0.1355
     45 H15        -0.5532   -3.2857   -2.4780 H         1 <0>         0.0973
     46 H16         1.0635   -3.6515   -1.8197 H         1 <0>         0.0936
     47 H17        -2.1551   -5.3050   -2.5906 H         1 <0>         0.1238
     48 H18        -0.5634   -4.8642   -3.2543 H         1 <0>         0.1297
     49 H19        -1.0648   -6.5713   -3.2039 H         1 <0>         0.1265
     50 H20        -0.9396   -8.0964    2.5738 H         1 <0>         0.0941
     51 H21        -2.4096   -7.7310    1.6390 H         1 <0>         0.0857
     52 H22        -0.7477   -9.3914    0.0712 H         1 <0>         0.4044
     53 H23        -2.0192  -12.8560    2.4109 H         1 <0>         0.0813
     54 H24        -3.4892  -12.4906    1.4762 H         1 <0>         0.0808
     55 H25        -3.9348  -13.6181   -0.6297 H         1 <0>         0.1240
     56 H26        -3.5753  -15.6415   -1.9860 H         1 <0>         0.1278
     57 H27        -1.6396  -17.0961   -1.5381 H         1 <0>         0.1277
     58 H28        -0.0630  -16.5268    0.2656 H         1 <0>         0.1284
     59 H29        -0.4179  -14.4989    1.6165 H         1 <0>         0.1249
     60 H30         0.4428   -6.0388   -1.4403 H         1 <0>         0.4239
@<TRIPOS>BOND
     1    1    2 1
     2    1   34 1
     3    1   35 1
     4    1   36 1
     5    2    6 1
     6    2    3 1
     7    3    4 2
     8    3   37 1
     9    4   20 1
    10    4    5 1
    11    5   10 ar
    12    5    6 ar
    13    6    7 ar
    14    7    8 ar
    15    7   38 1
    16    8    9 ar
    17    8   39 1
    18    9   10 ar
    19    9   40 1
    20   10   11 1
    21   11   12 1
    22   11   18 1
    23   11   13 1
    24   13   14 1
    25   13   41 1
    26   13   42 1
    27   14   15 1
    28   14   16 1
    29   14   22 1
    30   16   17 1
    31   16   43 1
    32   16   44 1
    33   17   18 1
    34   17   21 1
    35   17   60 1
    36   18   19 1
    37   18   20 1
    38   20   45 1
    39   20   46 1
    40   21   47 1
    41   21   48 1
    42   21   49 1
    43   22   23 1
    44   22   50 1
    45   22   51 1
    46   23   24 am
    47   23   52 1
    48   24   25 2
    49   24   26 1
    50   26   27 1
    51   27   28 1
    52   27   53 1
    53   27   54 1
    54   28   33 ar
    55   28   29 ar
    56   29   30 ar
    57   29   55 1
    58   30   31 ar
    59   30   56 1
    60   31   32 ar
    61   31   57 1
    62   32   33 ar
    63   32   58 1
    64   33   59 1
@<TRIPOS>MOLECULE
ZINC02562379
   26    27     0     0     0
SMALL
USER_CHARGES
3-(2-aminoethyl)-1H-indol-6-ol
@<TRIPOS>ATOM
      1 C1          2.9488    3.1917    3.6835 C.ar      1 <0>        -0.1562
      2 C2          1.8988    2.8641    2.8735 C.ar      1 <0>        -0.0661
      3 C3          1.1584    1.7085    3.1291 C.ar      1 <0>        -0.1109
      4 C4          1.4862    0.8910    4.2263 C.ar      1 <0>         0.1122
      5 C5          2.5581    1.2394    5.0407 C.ar      1 <0>        -0.1533
      6 C6          3.2831    2.3843    4.7675 C.ar      1 <0>         0.1357
      7 O1          4.3308    2.7250    5.5640 O.3       1 <0>        -0.4948
      8 N1          0.5929   -0.1569    4.2335 N.pl3     1 <0>        -0.5872
      9 H1          0.5867   -0.8795    4.8806 H         1 <0>         0.4245
     10 C7         -0.2849   -0.0272    3.1902 C.2       1 <0>         0.0857
     11 C8          0.0000    1.0800    2.4877 C.2       1 <0>        -0.2037
     12 C9         -0.7288    1.5792    1.2668 C.3       1 <0>        -0.0626
     13 C10        -0.0127    1.0858    0.0080 C.3       1 <0>        -0.0037
     14 H2          3.5235    4.0836    3.4819 H         1 <0>         0.1344
     15 H3          1.6453    3.4948    2.0342 H         1 <0>         0.1241
     16 H4          2.8230    0.6181    5.8835 H         1 <0>         0.1325
     17 H5          5.1779    2.3561    5.2789 H         1 <0>         0.3970
     18 H6         -1.0873   -0.7144    2.9659 H         1 <0>         0.1747
     19 H7         -0.7436    2.6691    1.2728 H         1 <0>         0.0924
     20 H8         -1.7514    1.2020    1.2746 H         1 <0>         0.0924
     21 H9          0.0021   -0.0041    0.0020 H         1 <0>         0.1339
     22 H10         1.0099    1.4631    0.0003 H         1 <0>         0.1315
     23 H11        -0.2694    1.2597   -2.0273 H         1 <0>         0.4398
     24 H12        -1.6917    1.2898   -1.1659 H         1 <0>         0.4364
     25 N2         -0.7207    1.5974   -1.1788 N.4       1 <0>        -0.6480
     26 H13        -0.6943    2.6238   -1.1711 H         1 <0>         0.4393
@<TRIPOS>BOND
     1    1    6 ar
     2    1    2 ar
     3    1   14 1
     4    2    3 ar
     5    2   15 1
     6    3   11 1
     7    3    4 ar
     8    4    5 ar
     9    4    8 1
    10    5    6 ar
    11    5   16 1
    12    6    7 1
    13    7   17 1
    14    8    9 1
    15    8   10 1
    16   10   11 2
    17   10   18 1
    18   11   12 1
    19   12   13 1
    20   12   19 1
    21   12   20 1
    22   13   21 1
    23   13   22 1
    24   13   25 1
    25   23   25 1
    26   24   25 1
    27   25   26 1
@<TRIPOS>MOLECULE
ZINC21986609
   31    33     0     0     0
SMALL
USER_CHARGES
3-(1,2,3,6-tetrahydropyridin-4-yl)-1H-indol-5-ol
@<TRIPOS>ATOM
      1 C1          4.5826   -1.3423    2.7613 C.ar      1 <0>        -0.1321
      2 C2          4.9532   -1.1562    1.4479 C.ar      1 <0>        -0.0775
      3 C3          4.1602   -0.3856    0.6039 C.ar      1 <0>         0.0472
      4 C4          2.9866    0.2026    1.1044 C.ar      1 <0>        -0.0493
      5 C5          2.6171    0.0035    2.4334 C.ar      1 <0>        -0.1922
      6 C6          3.4171   -0.7650    3.2570 C.ar      1 <0>         0.1472
      7 O1          3.0645   -0.9584    4.5561 O.3       1 <0>        -0.5071
      8 C7          2.3864    0.9358   -0.0233 C.2       1 <0>        -0.2035
      9 C8          3.2105    0.7556   -1.0875 C.2       1 <0>         0.1112
     10 N1          4.2667   -0.0278   -0.7249 N.pl3     1 <0>        -0.5952
     11 H1          5.1220   -0.3773   -1.3218 H         1 <0>         0.4520
     12 C9          1.1359    1.7193    0.0004 C.2       1 <0>         0.0013
     13 C10        -0.0126    1.0758    0.0080 C.2       1 <0>        -0.2013
     14 C11        -1.3421    1.7740    0.0183 C.3       1 <0>         0.0423
     15 N2         -1.1758    3.1740    0.4350 N.4       1 <0>        -0.5398
     16 C12        -0.1285    3.8210   -0.3724 C.3       1 <0>        -0.0001
     17 C13         1.2251    3.2199    0.0146 C.3       1 <0>        -0.1164
     18 H2          5.2017   -1.9418    3.4123 H         1 <0>         0.1374
     19 H3          5.8593   -1.6089    1.0732 H         1 <0>         0.1327
     20 H4          1.7128    0.4512    2.8185 H         1 <0>         0.1192
     21 H5          2.1438   -0.5030    4.9498 H         1 <0>         0.4315
     22 H6          3.0536    1.1704   -2.0723 H         1 <0>         0.1715
     23 H7         -0.0268   -0.0241    0.0070 H         1 <0>         0.1483
     24 H8         -1.7778    1.7478   -0.9914 H         1 <0>         0.1346
     25 H9         -2.0175    1.2661    0.7225 H         1 <0>         0.1383
     26 H10        -2.1243    3.7133    0.2952 H         1 <0>         0.4563
     27 H11        -0.3264    3.6435   -1.4398 H         1 <0>         0.1291
     28 H12        -0.1288    4.9030   -0.1744 H         1 <0>         0.1363
     29 H13         1.5006    3.5613    1.0233 H         1 <0>         0.1052
     30 H14         1.9892    3.5486   -0.7052 H         1 <0>         0.1205
     31 H15        -0.8871    3.2090    1.4959 H         1 <0>         0.4522
@<TRIPOS>BOND
     1    1    6 ar
     2    1    2 ar
     3    1   18 1
     4    2    3 ar
     5    2   19 1
     6    3   10 1
     7    3    4 ar
     8    4    5 ar
     9    4    8 1
    10    5    6 ar
    11    5   20 1
    12    6    7 1
    13    7   21 1
    14    8    9 2
    15    8   12 1
    16    9   10 1
    17    9   22 1
    18   10   11 1
    19   12   17 1
    20   12   13 2
    21   13   14 1
    22   13   23 1
    23   14   15 1
    24   14   24 1
    25   14   25 1
    26   15   16 1
    27   15   26 1
    28   15   31 1
    29   16   17 1
    30   16   27 1
    31   16   28 1
    32   17   29 1
    33   17   30 1
@<TRIPOS>MOLECULE
ZINC00157416
   28    29     0     0     0
SMALL
USER_CHARGES
2-piperazin-1-ylphenol
@<TRIPOS>ATOM
      1 C1          1.1407    3.5085    0.0361 C.ar      1 <0>        -0.1019
      2 C2         -0.0762    4.1646    0.0380 C.ar      1 <0>        -0.1041
      3 C3         -1.2554    3.4425    0.0198 C.ar      1 <0>        -0.1244
      4 C4         -1.2199    2.0580   -0.0000 C.ar      1 <0>         0.1059
      5 C5          0.0060    1.3960   -0.0020 C.ar      1 <0>         0.0566
      6 C6          1.1848    2.1270    0.0212 C.ar      1 <0>        -0.1477
      7 N1          0.0480   -0.0028   -0.0214 N.pl3     1 <0>        -0.4788
      8 C7          1.4160   -0.4854   -0.2565 C.3       1 <0>         0.0189
      9 C8          1.4063   -2.0130   -0.3498 C.3       1 <0>         0.0017
     10 C9         -0.5086   -2.0911    1.1287 C.3       1 <0>         0.0021
     11 C10        -0.4988   -0.5635    1.2220 C.3       1 <0>         0.0248
     12 O1         -2.3789    1.3465   -0.0171 O.3       1 <0>        -0.4835
     13 H1          2.0590    4.0766    0.0507 H         1 <0>         0.1337
     14 H2         -0.1060    5.2441    0.0541 H         1 <0>         0.1358
     15 H3         -2.2043    3.9582    0.0213 H         1 <0>         0.1392
     16 H4          2.1367    1.6169    0.0239 H         1 <0>         0.1306
     17 H5          1.7942   -0.0665   -1.1890 H         1 <0>         0.1285
     18 H6          2.0577   -0.1756    0.5684 H         1 <0>         0.0704
     19 H7          2.4241   -2.3750   -0.4952 H         1 <0>         0.1417
     20 H8          0.7864   -2.3220   -1.1914 H         1 <0>         0.1408
     21 H9         -0.8868   -2.5100    2.0612 H         1 <0>         0.1411
     22 H10        -1.1505   -2.4010    0.3041 H         1 <0>         0.1418
     23 H11         0.1211   -0.2545    2.0637 H         1 <0>         0.0671
     24 H12        -1.5165   -0.2012    1.3676 H         1 <0>         0.1230
     25 H13        -2.7631    1.1996    0.8581 H         1 <0>         0.3839
     26 N2          0.8644   -2.5799    0.8997 N.4       1 <0>        -0.5186
     27 H14         1.4604   -2.2974    1.6865 H         1 <0>         0.4308
     28 H15         0.8523   -3.6042    0.8299 H         1 <0>         0.4405
@<TRIPOS>BOND
     1    1    6 ar
     2    1    2 ar
     3    1   13 1
     4    2    3 ar
     5    2   14 1
     6    3    4 ar
     7    3   15 1
     8    4    5 ar
     9    4   12 1
    10    5    6 ar
    11    5    7 1
    12    6   16 1
    13    7   11 1
    14    7    8 1
    15    8    9 1
    16    8   17 1
    17    8   18 1
    18    9   19 1
    19    9   20 1
    20    9   26 1
    21   10   11 1
    22   10   21 1
    23   10   22 1
    24   10   26 1
    25   11   23 1
    26   11   24 1
    27   12   25 1
    28   26   27 1
    29   26   28 1
@<TRIPOS>MOLECULE
ZINC02572146
   29    30     0     0     0
SMALL
USER_CHARGES

@<TRIPOS>ATOM
      1 C1         -0.0184    1.5028    0.0103 C.3       1 <0>        -0.1071
      2 C2          0.0021   -0.0041    0.0020 C.2       1 <0>         0.1199
      3 C3          0.0074   -0.7686   -1.1014 C.2       1 <0>        -0.2092
      4 C4          0.0293   -2.1641   -0.6562 C.ar      1 <0>        -0.0803
      5 C5          0.0430   -3.3930   -1.3197 C.ar      1 <0>        -0.1146
      6 C6          0.0627   -4.5631   -0.5876 C.ar      1 <0>         0.0953
      7 C7          0.0685   -4.5202    0.8044 C.ar      1 <0>        -0.1188
      8 C8          0.0552   -3.3144    1.4689 C.ar      1 <0>        -0.1023
      9 C9          0.0357   -2.1241    0.7494 C.ar      1 <0>         0.0880
     10 N1          0.0239   -0.7953    1.1178 N.pl3     1 <0>        -0.5848
     11 H1          0.0285   -0.4701    2.0317 H         1 <0>         0.4225
     12 O1          0.0761   -5.7626   -1.2282 O.3       1 <0>        -0.4959
     13 C10        -0.0070   -0.2832   -2.5281 C.3       1 <0>        -0.0613
     14 C11         1.4305   -0.0988   -3.0185 C.3       1 <0>        -0.0084
     15 N2          1.4165    0.3744   -4.4092 N.4       1 <0>        -0.6388
     16 H2          1.0042    1.8801    0.0026 H         1 <0>         0.0837
     17 H3         -0.5455    1.8639   -0.8728 H         1 <0>         0.0866
     18 H4         -0.5286    1.8543    0.9071 H         1 <0>         0.0796
     19 H5          0.0378   -3.4277   -2.3992 H         1 <0>         0.1258
     20 H6          0.0832   -5.4414    1.3679 H         1 <0>         0.1387
     21 H7          0.0598   -3.2928    2.5486 H         1 <0>         0.1311
     22 H8          0.9632   -6.0974   -1.4178 H         1 <0>         0.3920
     23 H9         -0.5139   -1.0159   -3.1560 H         1 <0>         0.0928
     24 H10        -0.5345    0.6690   -2.5826 H         1 <0>         0.0917
     25 H11         1.9375    0.6339   -2.3905 H         1 <0>         0.1322
     26 H12         1.9580   -1.0511   -2.9640 H         1 <0>         0.1338
     27 H13         0.9472   -0.3038   -4.9905 H         1 <0>         0.4354
     28 H14         0.9282    1.2559   -4.4596 H         1 <0>         0.4345
     29 H15         2.3645    0.4960   -4.7326 H         1 <0>         0.4379
@<TRIPOS>BOND
     1    1    2 1
     2    1   16 1
     3    1   17 1
     4    1   18 1
     5    2   10 1
     6    2    3 2
     7    3    4 1
     8    3   13 1
     9    4    9 ar
    10    4    5 ar
    11    5    6 ar
    12    5   19 1
    13    6    7 ar
    14    6   12 1
    15    7    8 ar
    16    7   20 1
    17    8    9 ar
    18    8   21 1
    19    9   10 1
    20   10   11 1
    21   12   22 1
    22   13   14 1
    23   13   23 1
    24   13   24 1
    25   14   15 1
    26   14   25 1
    27   14   26 1
    28   15   27 1
    29   15   28 1
    30   15   29 1
@<TRIPOS>MOLECULE
ZINC02567336
   29    30     0     0     0
SMALL
USER_CHARGES
(2R)-8-methoxytetralin-2-amine
@<TRIPOS>ATOM
      1 C1         -3.6008    3.0121    0.0547 C.3       1 <0>         0.0241
      2 O1         -2.4109    3.8033    0.0443 O.3       1 <0>        -0.3202
      3 C2         -1.2268    3.1366    0.0285 C.ar      1 <0>         0.1382
      4 C3         -1.2171    1.7519    0.0173 C.ar      1 <0>        -0.2045
      5 C4         -0.0126    1.0758    0.0080 C.ar      1 <0>        -0.0630
      6 C5          1.1720    1.7838    0.0004 C.ar      1 <0>        -0.1522
      7 C6          1.1672    3.1728    0.0060 C.ar      1 <0>        -0.0478
      8 C7         -0.0302    3.8509    0.0178 C.ar      1 <0>        -0.1263
      9 C8         -0.1109    5.3549    0.0157 C.3       1 <0>        -0.0839
     10 C9          1.2251    5.9651    0.4345 C.3       1 <0>         0.0301
     11 H1          1.4103    5.7556    1.4880 H         1 <0>         0.1443
     12 C10         2.3325    5.3364   -0.4195 C.3       1 <0>        -0.1378
     13 C11         2.4982    3.8784    0.0039 C.3       1 <0>        -0.0775
     14 H2         -3.6289    2.3864   -0.8373 H         1 <0>         0.0613
     15 H3         -3.6089    2.3797    0.9425 H         1 <0>         0.0611
     16 H4         -4.4723    3.6667    0.0670 H         1 <0>         0.1067
     17 H5         -2.1471    1.2030    0.0201 H         1 <0>         0.1360
     18 H6          0.0021   -0.0041    0.0020 H         1 <0>         0.1340
     19 H7          2.1122    1.2525   -0.0102 H         1 <0>         0.1306
     20 H8         -0.8860    5.6743    0.7123 H         1 <0>         0.0999
     21 H9         -0.3652    5.6998   -0.9866 H         1 <0>         0.0940
     22 H10         3.2678    5.8733   -0.2610 H         1 <0>         0.0942
     23 H11         2.0562    5.3837   -1.4728 H         1 <0>         0.0934
     24 H12         2.9262    3.8415    1.0057 H         1 <0>         0.0923
     25 H13         3.1699    3.3765   -0.6926 H         1 <0>         0.1005
     26 H14         2.0774    7.8388    0.4711 H         1 <0>         0.4392
     27 H15         0.9543    7.6352   -0.7385 H         1 <0>         0.4356
     28 N1          1.1781    7.4240    0.2326 N.4       1 <0>        -0.6440
     29 H16         0.4528    7.8254    0.8384 H         1 <0>         0.4415
@<TRIPOS>BOND
     1    1    2 1
     2    1   14 1
     3    1   15 1
     4    1   16 1
     5    2    3 1
     6    3    8 ar
     7    3    4 ar
     8    4    5 ar
     9    4   17 1
    10    5    6 ar
    11    5   18 1
    12    6    7 ar
    13    6   19 1
    14    7   13 1
    15    7    8 ar
    16    8    9 1
    17    9   10 1
    18    9   20 1
    19    9   21 1
    20   10   11 1
    21   10   12 1
    22   10   28 1
    23   12   13 1
    24   12   22 1
    25   12   23 1
    26   13   24 1
    27   13   25 1
    28   26   28 1
    29   27   28 1
    30   28   29 1
@<TRIPOS>MOLECULE
ZINC12650844
   29    30     0     0     0
SMALL
USER_CHARGES
(2S)-8-methoxytetralin-2-amine
@<TRIPOS>ATOM
      1 C1          1.2013    5.8527    0.0158 C.3       1 <0>         0.0241
      2 O1         -0.0640    5.1886    0.0225 O.3       1 <0>        -0.3202
      3 C2         -0.0476    3.8297    0.0176 C.ar      1 <0>         0.1382
      4 C3          1.1624    3.1564    0.0066 C.ar      1 <0>        -0.2044
      5 C4          1.1771    1.7751    0.0004 C.ar      1 <0>        -0.0630
      6 C5         -0.0126    1.0758    0.0080 C.ar      1 <0>        -0.1522
      7 C6         -1.2288    1.7469    0.0174 C.ar      1 <0>        -0.0478
      8 C7         -1.2486    3.1229    0.0241 C.ar      1 <0>        -0.1264
      9 C8         -2.5293    3.9157    0.0281 C.3       1 <0>        -0.0842
     10 C9         -3.7013    3.0409    0.4683 C.3       1 <0>         0.0305
     11 H1         -3.5952    2.7888    1.5234 H         1 <0>         0.1474
     12 C10        -3.6911    1.7592   -0.3731 C.3       1 <0>        -0.1413
     13 C11        -2.4865    0.9182    0.0445 C.3       1 <0>        -0.0775
     14 H2          1.0455    6.9315    0.0207 H         1 <0>         0.1067
     15 H3          1.7681    5.5634    0.9008 H         1 <0>         0.0611
     16 H4          1.7555    5.5697   -0.8791 H         1 <0>         0.0613
     17 H5          2.0904    3.7087    0.0026 H         1 <0>         0.1361
     18 H6          2.1173    1.2438   -0.0101 H         1 <0>         0.1340
     19 H7          0.0021   -0.0041    0.0020 H         1 <0>         0.1306
     20 H8         -2.4298    4.7558    0.7154 H         1 <0>         0.1003
     21 H9         -2.7207    4.2943   -0.9760 H         1 <0>         0.0937
     22 H10        -4.6090    1.1980   -0.1983 H         1 <0>         0.0946
     23 H11        -3.6119    2.0145   -1.4299 H         1 <0>         0.0936
     24 H12        -2.6474    0.5356    1.0524 H         1 <0>         0.0927
     25 H13        -2.3766    0.0808   -0.6444 H         1 <0>         0.1000
     26 H14        -5.7525    3.2008    0.5413 H         1 <0>         0.4393
     27 H15        -4.9585    4.6489    0.7371 H         1 <0>         0.4390
     28 N1         -4.9628    3.7647    0.2314 N.4       1 <0>        -0.6439
     29 H16        -5.0599    3.9537   -0.7732 H         1 <0>         0.4378
@<TRIPOS>BOND
     1    1    2 1
     2    1   14 1
     3    1   15 1
     4    1   16 1
     5    2    3 1
     6    3    8 ar
     7    3    4 ar
     8    4    5 ar
     9    4   17 1
    10    5    6 ar
    11    5   18 1
    12    6    7 ar
    13    6   19 1
    14    7   13 1
    15    7    8 ar
    16    8    9 1
    17    9   10 1
    18    9   20 1
    19    9   21 1
    20   10   11 1
    21   10   12 1
    22   10   28 1
    23   12   13 1
    24   12   22 1
    25   12   23 1
    26   13   24 1
    27   13   25 1
    28   26   28 1
    29   27   28 1
    30   28   29 1
@<TRIPOS>MOLECULE
ZINC04244898
   29    30     0     0     0
SMALL
USER_CHARGES
1-(3-nitrophenyl)piperazine
@<TRIPOS>ATOM
      1 C1         -1.1724   -2.0936    0.0020 C.ar      1 <0>        -0.0836
      2 C2          0.0299   -2.7734   -0.0131 C.ar      1 <0>        -0.1166
      3 C3          1.2255   -2.0665   -0.0207 C.ar      1 <0>         0.0926
      4 C4          1.2075   -0.6773   -0.0131 C.ar      1 <0>        -0.0712
      5 C5          0.0021   -0.0041    0.0020 C.ar      1 <0>        -0.0136
      6 C6         -1.1866   -0.7111    0.0153 C.ar      1 <0>        -0.0644
      7 N1         -0.0180    1.4758    0.0102 N.pl3     1 <0>         0.0192
      8 O1          1.0284    2.0991    0.0035 O.2       1 <0>        -0.1494
      9 O2         -1.0810    2.0704    0.0184 O.3       1 <0>        -0.1383
     10 N2          2.4430   -2.7507   -0.0356 N.pl3     1 <0>        -0.4855
     11 C7          3.2865   -2.3495    1.0990 C.3       1 <0>         0.0200
     12 C8          4.6386   -3.0601    1.0025 C.3       1 <0>         0.0016
     13 C9          3.5821   -4.9154   -0.1380 C.3       1 <0>         0.0017
     14 C10         2.2300   -4.2048   -0.0414 C.3       1 <0>         0.0165
     15 H1         -2.1024   -2.6426    0.0083 H         1 <0>         0.1570
     16 H2          0.0403   -3.8533   -0.0194 H         1 <0>         0.1471
     17 H3          2.1354   -0.1247   -0.0194 H         1 <0>         0.1585
     18 H4         -2.1280   -0.1820    0.0319 H         1 <0>         0.1620
     19 H5          3.4401   -1.2707    1.0743 H         1 <0>         0.1309
     20 H6          2.7961   -2.6261    2.0324 H         1 <0>         0.0747
     21 H7          5.2552   -2.7864    1.8586 H         1 <0>         0.1453
     22 H8          5.1409   -2.7625    0.0821 H         1 <0>         0.1434
     23 H9          3.4285   -5.9942   -0.1133 H         1 <0>         0.1449
     24 H10         4.0723   -4.6391   -1.0715 H         1 <0>         0.1427
     25 H11         1.7276   -4.5024    0.8790 H         1 <0>         0.0763
     26 H12         1.6131   -4.4785   -0.8973 H         1 <0>         0.1326
     27 N3          4.4292   -4.5204    1.0033 N.4       1 <0>        -0.5196
     28 H13         3.9689   -4.7964    1.8786 H         1 <0>         0.4322
     29 H14         5.3378   -4.9932    0.9306 H         1 <0>         0.4429
@<TRIPOS>BOND
     1    1    6 ar
     2    1    2 ar
     3    1   15 1
     4    2    3 ar
     5    2   16 1
     6    3    4 ar
     7    3   10 1
     8    4    5 ar
     9    4   17 1
    10    5    6 ar
    11    5    7 1
    12    6   18 1
    13    7    8 2
    14    7    9 1
    15   10   14 1
    16   10   11 1
    17   11   12 1
    18   11   19 1
    19   11   20 1
    20   12   21 1
    21   12   22 1
    22   12   27 1
    23   13   14 1
    24   13   23 1
    25   13   24 1
    26   13   27 1
    27   14   25 1
    28   14   26 1
    29   27   28 1
    30   27   29 1
@<TRIPOS>MOLECULE
ZINC00538314
   60    64     0     0     0
SMALL
USER_CHARGES

@<TRIPOS>ATOM
      1 C1         -0.0184    1.5028    0.0103 C.3       1 <0>        -0.1174
      2 C2          0.0021   -0.0041    0.0020 C.2       1 <0>         0.2445
      3 C3         -1.1751   -0.7216    0.0036 C.2       1 <0>        -0.3147
      4 C4         -1.1361   -2.1161   -0.0047 C.2       1 <0>         0.5359
      5 O1         -2.1756   -2.7567   -0.0037 O.2       1 <0>        -0.5241
      6 N1          0.0668   -2.7644   -0.0143 N.am      1 <0>        -0.4737
      7 C5          0.2679   -4.1238   -0.0236 C.2       1 <0>         0.0266
      8 C6          1.4978   -4.6373   -0.0325 C.2       1 <0>        -0.1636
      9 S1          2.5089   -3.1651   -0.0288 S.3       1 <0>         0.1803
     10 C7          1.1857   -1.9749   -0.0151 C.2       1 <0>         0.3350
     11 N2          1.1565   -0.6654   -0.0126 N.2       1 <0>        -0.4984
     12 C8         -2.4993   -0.0022    0.0147 C.3       1 <0>        -0.0635
     13 C9         -3.0147    0.1395   -1.4188 C.3       1 <0>        -0.0075
     14 N3         -4.3055    0.8408   -1.4080 N.4       1 <0>        -0.3819
     15 C10        -4.1121    2.2079   -0.9103 C.3       1 <0>        -0.0097
     16 C11        -5.4758    2.8853   -0.7337 C.3       1 <0>        -0.1045
     17 C12        -6.2228    2.7941   -2.0481 C.2       1 <0>        -0.1537
     18 C13        -6.8154    3.8677   -2.5843 C.2       1 <0>         0.0201
     19 C14        -7.5400    3.7487   -3.8726 C.ar      1 <0>        -0.0793
     20 C15        -6.8454    3.4297   -5.0384 C.ar      1 <0>        -0.0814
     21 C16        -7.5238    3.3196   -6.2346 C.ar      1 <0>        -0.1518
     22 C17        -8.8933    3.5256   -6.2784 C.ar      1 <0>         0.1146
     23 C18        -9.5877    3.8433   -5.1223 C.ar      1 <0>        -0.1473
     24 C19        -8.9186    3.9499   -3.9205 C.ar      1 <0>        -0.0659
     25 F1         -9.5535    3.4167   -7.4521 F         1 <0>        -0.1311
     26 C20        -6.7474    5.1762   -1.8900 C.ar      1 <0>        -0.0818
     27 C21        -7.3566    5.3406   -0.6469 C.ar      1 <0>        -0.0760
     28 C22        -7.2903    6.5596   -0.0045 C.ar      1 <0>        -0.1515
     29 C23        -6.6196    7.6197   -0.5929 C.ar      1 <0>         0.1154
     30 C24        -6.0130    7.4611   -1.8286 C.ar      1 <0>        -0.1500
     31 C25        -6.0692    6.2440   -2.4758 C.ar      1 <0>        -0.0670
     32 F2         -6.5572    8.8117    0.0399 F         1 <0>        -0.1311
     33 C26        -6.2752    1.4449   -2.7346 C.3       1 <0>        -0.1083
     34 C27        -4.8545    0.8700   -2.7688 C.3       1 <0>        -0.0019
     35 H1          1.0042    1.8801    0.0026 H         1 <0>         0.0964
     36 H2         -0.5455    1.8639   -0.8728 H         1 <0>         0.0880
     37 H3         -0.5286    1.8543    0.9071 H         1 <0>         0.0967
     38 H4         -0.5845   -4.7869   -0.0233 H         1 <0>         0.1919
     39 H5          1.8032   -5.6732   -0.0394 H         1 <0>         0.2293
     40 H6         -3.2174   -0.5721    0.6044 H         1 <0>         0.1000
     41 H7         -2.3717    0.9869    0.4545 H         1 <0>         0.0983
     42 H8         -2.2966    0.7094   -2.0085 H         1 <0>         0.1284
     43 H9         -3.1423   -0.8496   -1.8586 H         1 <0>         0.1316
     44 H10        -3.5955    2.1756    0.0490 H         1 <0>         0.1348
     45 H11        -3.5151    2.7739   -1.6255 H         1 <0>         0.1309
     46 H12        -6.0411    2.3760    0.0468 H         1 <0>         0.1010
     47 H13        -5.3343    3.9317   -0.4629 H         1 <0>         0.1205
     48 H14        -5.7779    3.2693   -5.0053 H         1 <0>         0.1324
     49 H15        -6.9865    3.0728   -7.1384 H         1 <0>         0.1419
     50 H16       -10.6551    4.0034   -5.1612 H         1 <0>         0.1431
     51 H17        -9.4614    4.1929   -3.0190 H         1 <0>         0.1358
     52 H18        -7.8799    4.5149   -0.1877 H         1 <0>         0.1352
     53 H19        -7.7622    6.6880    0.9585 H         1 <0>         0.1425
     54 H20        -5.4916    8.2902   -2.2837 H         1 <0>         0.1424
     55 H21        -5.5921    6.1199   -3.4367 H         1 <0>         0.1346
     56 H22        -6.9300    0.7743   -2.1783 H         1 <0>         0.1009
     57 H23        -6.6483    1.5640   -3.7518 H         1 <0>         0.1217
     58 H24        -4.2246    1.4954   -3.4014 H         1 <0>         0.1291
     59 H25        -4.8820   -0.1426   -3.1713 H         1 <0>         0.1328
     60 H26        -4.9458    0.3531   -0.7995 H         1 <0>         0.4242
@<TRIPOS>BOND
     1    1    2 1
     2    1   35 1
     3    1   36 1
     4    1   37 1
     5    2   11 1
     6    2    3 2
     7    3    4 1
     8    3   12 1
     9    4    5 2
    10    4    6 am
    11    6   10 1
    12    6    7 1
    13    7    8 2
    14    7   38 1
    15    8    9 1
    16    8   39 1
    17    9   10 1
    18   10   11 2
    19   12   13 1
    20   12   40 1
    21   12   41 1
    22   13   14 1
    23   13   42 1
    24   13   43 1
    25   14   34 1
    26   14   15 1
    27   14   60 1
    28   15   16 1
    29   15   44 1
    30   15   45 1
    31   16   17 1
    32   16   46 1
    33   16   47 1
    34   17   18 2
    35   17   33 1
    36   18   19 1
    37   18   26 1
    38   19   24 ar
    39   19   20 ar
    40   20   21 ar
    41   20   48 1
    42   21   22 ar
    43   21   49 1
    44   22   23 ar
    45   22   25 1
    46   23   24 ar
    47   23   50 1
    48   24   51 1
    49   26   31 ar
    50   26   27 ar
    51   27   28 ar
    52   27   52 1
    53   28   29 ar
    54   28   53 1
    55   29   30 ar
    56   29   32 1
    57   30   31 ar
    58   30   54 1
    59   31   55 1
    60   33   34 1
    61   33   56 1
    62   33   57 1
    63   34   58 1
    64   34   59 1
@<TRIPOS>MOLECULE
ZINC00643233
   56    59     0     0     0
SMALL
USER_CHARGES

@<TRIPOS>ATOM
      1 C1         -0.0167    1.3786    0.0096 C.ar      1 <0>        -0.1573
      2 C2          1.1695    2.0894    0.0021 C.ar      1 <0>        -0.0635
      3 C3          2.3774    1.4200   -0.0130 C.ar      1 <0>        -0.1784
      4 C4          2.3998    0.0311   -0.0206 C.ar      1 <0>         0.2317
      5 C5          1.2064   -0.6798   -0.0130 C.ar      1 <0>        -0.1988
      6 C6          0.0021   -0.0041    0.0020 C.ar      1 <0>        -0.0706
      7 N1          3.6196   -0.6492   -0.0363 N.pl3     1 <0>        -0.6334
      8 C7          4.9637   -0.0571   -0.0400 C.3       1 <0>         0.3326
      9 N2          5.9388   -1.1470   -0.0572 N.am      1 <0>        -0.7166
     10 C8          5.3099   -2.3344   -0.0641 C.2       1 <0>         0.5288
     11 O1          5.8532   -3.4187   -0.0778 O.2       1 <0>        -0.5133
     12 C9          3.8222   -2.1026   -0.0461 C.3       1 <0>         0.1361
     13 C10         3.1820   -2.7114   -1.2943 C.3       1 <0>        -0.1499
     14 C11         3.3480   -4.2326   -1.2552 C.3       1 <0>        -0.0132
     15 N3          2.7020   -4.7671   -0.0503 N.4       1 <0>        -0.3794
     16 C12         3.3698   -4.2457    1.1482 C.3       1 <0>        -0.0190
     17 C13         3.2050   -2.7250    1.2070 C.3       1 <0>        -0.1492
     18 C14         2.7905   -6.2335   -0.0591 C.3       1 <0>        -0.0094
     19 C15         2.0109   -6.7986    1.1299 C.3       1 <0>        -0.1425
     20 C16         2.1030   -8.3258    1.1207 C.3       1 <0>        -0.1654
     21 C17         1.3351   -8.8824    2.2919 C.2       1 <0>         0.4040
     22 O2          0.7698   -8.1316    3.0583 O.2       1 <0>        -0.4484
     23 C18         1.2712  -10.3355    2.5052 C.ar      1 <0>        -0.1962
     24 C19         1.9272  -11.2044    1.6259 C.ar      1 <0>        -0.0430
     25 C20         1.8634  -12.5650    1.8315 C.ar      1 <0>        -0.1669
     26 C21         1.1505  -13.0743    2.9070 C.ar      1 <0>         0.1434
     27 C22         0.4980  -12.2186    3.7823 C.ar      1 <0>        -0.1651
     28 C23         0.5590  -10.8557    3.5917 C.ar      1 <0>        -0.0262
     29 F1          1.0910  -14.4098    3.1025 F         1 <0>        -0.1261
     30 H1         -0.9598    1.9046    0.0260 H         1 <0>         0.1276
     31 H2          1.1513    3.1692    0.0077 H         1 <0>         0.1312
     32 H3          3.3034    1.9757   -0.0192 H         1 <0>         0.1257
     33 H4          1.2204   -1.7597   -0.0193 H         1 <0>         0.1144
     34 H5         -0.9261   -0.5561    0.0079 H         1 <0>         0.1276
     35 H6          5.0901    0.5643   -0.9265 H         1 <0>         0.0880
     36 H7          5.1025    0.5473    0.8564 H         1 <0>         0.0877
     37 H8          6.9016   -1.0295   -0.0627 H         1 <0>         0.4365
     38 H9          2.1214   -2.4613   -1.3183 H         1 <0>         0.1096
     39 H10         3.6706   -2.3147   -2.1843 H         1 <0>         0.1192
     40 H11         2.8858   -4.6710   -2.1397 H         1 <0>         0.1383
     41 H12         4.4090   -4.4817   -1.2391 H         1 <0>         0.1470
     42 H13         2.9238   -4.6937    2.0361 H         1 <0>         0.1399
     43 H14         4.4303   -4.4946    1.1101 H         1 <0>         0.1471
     44 H15         3.7099   -2.3380    2.0921 H         1 <0>         0.1189
     45 H16         2.1450   -2.4752    1.2532 H         1 <0>         0.1098
     46 H17         2.3668   -6.6175   -0.9870 H         1 <0>         0.1347
     47 H18         3.8354   -6.5348    0.0153 H         1 <0>         0.1347
     48 H19         2.4346   -6.4145    2.0578 H         1 <0>         0.0947
     49 H20         0.9660   -6.4972    1.0555 H         1 <0>         0.0950
     50 H21         1.6793   -8.7098    0.1928 H         1 <0>         0.1132
     51 H22         3.1479   -8.6271    1.1951 H         1 <0>         0.1132
     52 H23         2.4820  -10.8091    0.7879 H         1 <0>         0.1415
     53 H24         2.3692  -13.2366    1.1537 H         1 <0>         0.1468
     54 H25        -0.0554  -12.6215    4.6177 H         1 <0>         0.1475
     55 H26         0.0543  -10.1903    4.2765 H         1 <0>         0.1457
     56 H27         1.7315   -4.4913   -0.0400 H         1 <0>         0.4195
@<TRIPOS>BOND
     1    1    6 ar
     2    1    2 ar
     3    1   30 1
     4    2    3 ar
     5    2   31 1
     6    3    4 ar
     7    3   32 1
     8    4    5 ar
     9    4    7 1
    10    5    6 ar
    11    5   33 1
    12    6   34 1
    13    7   12 1
    14    7    8 1
    15    8    9 1
    16    8   35 1
    17    8   36 1
    18    9   10 am
    19    9   37 1
    20   10   11 2
    21   10   12 1
    22   12   17 1
    23   12   13 1
    24   13   14 1
    25   13   38 1
    26   13   39 1
    27   14   15 1
    28   14   40 1
    29   14   41 1
    30   15   16 1
    31   15   18 1
    32   15   56 1
    33   16   17 1
    34   16   42 1
    35   16   43 1
    36   17   44 1
    37   17   45 1
    38   18   19 1
    39   18   46 1
    40   18   47 1
    41   19   20 1
    42   19   48 1
    43   19   49 1
    44   20   21 1
    45   20   50 1
    46   20   51 1
    47   21   22 2
    48   21   23 1
    49   23   28 ar
    50   23   24 ar
    51   24   25 ar
    52   24   52 1
    53   25   26 ar
    54   25   53 1
    55   26   27 ar
    56   26   29 1
    57   27   28 ar
    58   27   54 1
    59   28   55 1
@<TRIPOS>MOLECULE
ZINC03810797
   54    57     0     0     0
SMALL
USER_CHARGES
2-benzofuran-6-yl-N-[(5-methoxytetralin-1-yl)methyl]-N-methyl-ethanamine
@<TRIPOS>ATOM
      1 C1         -2.0883   -0.0783    1.2217 C.3       1 <0>        -0.0516
      2 C2         -1.1584   -1.9653    0.0227 C.3       1 <0>        -0.0034
      3 C3         -2.5061   -2.6836   -0.0709 C.3       1 <0>        -0.0979
      4 C4         -2.2828   -4.1739   -0.0603 C.ar      1 <0>        -0.0835
      5 C5         -2.2627   -4.8565    1.1474 C.ar      1 <0>        -0.1284
      6 C6         -2.0609   -6.2086    1.1751 C.ar      1 <0>        -0.0624
      7 C7         -1.8749   -6.9042   -0.0186 C.ar      1 <0>        -0.1187
      8 C8         -1.6400   -8.3122   -0.3603 C.2       1 <0>        -0.2145
      9 C9         -1.5419   -8.3612   -1.6957 C.2       1 <0>         0.0241
     10 O1         -1.6914   -7.1307   -2.2166 O.3       1 <0>        -0.1921
     11 C10        -1.8946   -6.2188   -1.2448 C.ar      1 <0>         0.0504
     12 C11        -2.1063   -4.8456   -1.2511 C.ar      1 <0>        -0.0922
     13 C12        -0.1054    0.2091   -0.1378 C.3       1 <0>        -0.0047
     14 C13        -0.3836    1.6409   -0.5999 C.3       1 <0>        -0.0629
     15 H1         -1.0919    2.1081    0.0842 H         1 <0>         0.1048
     16 C14        -0.9852    1.6092   -2.0034 C.3       1 <0>        -0.1330
     17 C15        -1.0543    3.0468   -2.5322 C.3       1 <0>        -0.1170
     18 C16         0.3693    3.5286   -2.8042 C.3       1 <0>        -0.0781
     19 C17         1.2468    3.2933   -1.6028 C.ar      1 <0>        -0.0928
     20 C18         0.9032    2.4240   -0.5927 C.ar      1 <0>        -0.0545
     21 C19         1.7611    2.2477    0.4855 C.ar      1 <0>        -0.1644
     22 C20         2.9538    2.9382    0.5563 C.ar      1 <0>        -0.0736
     23 C21         3.3014    3.8146   -0.4533 C.ar      1 <0>        -0.1985
     24 C22         2.4503    3.9922   -1.5311 C.ar      1 <0>         0.1356
     25 O2          2.7912    4.8534   -2.5256 O.3       1 <0>        -0.3115
     26 C23         4.0380    5.5384   -2.3916 C.3       1 <0>         0.0236
     27 H2         -2.1952    1.0064    1.2106 H         1 <0>         0.1232
     28 H3         -3.0751   -0.5404    1.2477 H         1 <0>         0.1245
     29 H4         -1.5230   -0.3788    2.1039 H         1 <0>         0.1261
     30 H5         -0.5374   -2.2457   -0.8280 H         1 <0>         0.1312
     31 H6         -0.6579   -2.2511    0.9479 H         1 <0>         0.1353
     32 H7         -3.1271   -2.4032    0.7799 H         1 <0>         0.0999
     33 H8         -3.0067   -2.3977   -0.9960 H         1 <0>         0.0966
     34 H9         -2.4070   -4.3165    2.0715 H         1 <0>         0.1313
     35 H10        -2.0461   -6.7355    2.1177 H         1 <0>         0.1345
     36 H11        -1.5616   -9.1419    0.3266 H         1 <0>         0.1646
     37 H12        -1.3679   -9.2589   -2.2704 H         1 <0>         0.2153
     38 H13        -2.1281   -4.3053   -2.1859 H         1 <0>         0.1342
     39 H14         0.5148   -0.2974   -0.8774 H         1 <0>         0.1337
     40 H15         0.4154    0.2310    0.8194 H         1 <0>         0.1375
     41 H16        -0.3563    1.0067   -2.6589 H         1 <0>         0.0831
     42 H17        -1.9878    1.1834   -1.9636 H         1 <0>         0.0666
     43 H18        -1.6328    3.0709   -3.4557 H         1 <0>         0.0810
     44 H19        -1.5242    3.6896   -1.7878 H         1 <0>         0.0721
     45 H20         0.7755    2.9859   -3.6577 H         1 <0>         0.0806
     46 H21         0.3508    4.5944   -3.0318 H         1 <0>         0.0857
     47 H22         1.4919    1.5633    1.2765 H         1 <0>         0.1208
     48 H23         3.6137    2.7940    1.3990 H         1 <0>         0.1310
     49 H24         4.2330    4.3586   -0.4024 H         1 <0>         0.1350
     50 H25         4.1874    6.1925   -3.2507 H         1 <0>         0.1073
     51 H26         4.0291    6.1340   -1.4787 H         1 <0>         0.0596
     52 H27         4.8487    4.8114   -2.3431 H         1 <0>         0.0594
     53 N1         -1.3925   -0.5062   -0.0102 N.4       1 <0>        -0.3989
     54 H28        -1.9810   -0.2811   -0.8210 H         1 <0>         0.4262
@<TRIPOS>BOND
     1    1   27 1
     2    1   28 1
     3    1   29 1
     4    1   53 1
     5    2    3 1
     6    2   30 1
     7    2   31 1
     8    2   53 1
     9    3    4 1
    10    3   32 1
    11    3   33 1
    12    4   12 ar
    13    4    5 ar
    14    5    6 ar
    15    5   34 1
    16    6    7 ar
    17    6   35 1
    18    7   11 ar
    19    7    8 1
    20    8    9 2
    21    8   36 1
    22    9   10 1
    23    9   37 1
    24   10   11 1
    25   11   12 ar
    26   12   38 1
    27   13   14 1
    28   13   39 1
    29   13   40 1
    30   13   53 1
    31   14   15 1
    32   14   20 1
    33   14   16 1
    34   16   17 1
    35   16   41 1
    36   16   42 1
    37   17   18 1
    38   17   43 1
    39   17   44 1
    40   18   19 1
    41   18   45 1
    42   18   46 1
    43   19   24 ar
    44   19   20 ar
    45   20   21 ar
    46   21   22 ar
    47   21   47 1
    48   22   23 ar
    49   22   48 1
    50   23   24 ar
    51   23   49 1
    52   24   25 1
    53   25   26 1
    54   26   50 1
    55   26   51 1
    56   26   52 1
    57   53   54 1
@<TRIPOS>MOLECULE
ZINC00140722
   32    33     0     0     0
SMALL
USER_CHARGES
2-(5-methoxy-2-methyl-1H-indol-3-yl)ethanamine
@<TRIPOS>ATOM
      1 C1         -1.2084   -2.3727    2.6104 C.3       1 <0>        -0.1069
      2 C2         -0.0288   -2.8299    1.7914 C.2       1 <0>         0.1233
      3 C3          0.8464   -2.0163    1.1798 C.2       1 <0>        -0.2136
      4 C4          1.8288   -2.8705    0.5079 C.ar      1 <0>        -0.0556
      5 C5          2.9608   -2.6186   -0.2705 C.ar      1 <0>        -0.1297
      6 C6          3.6941   -3.6761   -0.7699 C.ar      1 <0>         0.1176
      7 C7          3.3088   -4.9870   -0.5001 C.ar      1 <0>        -0.1759
      8 C8          2.1947   -5.2470    0.2660 C.ar      1 <0>        -0.0786
      9 C9          1.4424   -4.1952    0.7785 C.ar      1 <0>         0.0623
     10 N1          0.3068   -4.1356    1.5587 N.pl3     1 <0>        -0.5845
     11 H1         -0.1789   -4.9045    1.8957 H         1 <0>         0.4212
     12 O1          4.7969   -3.4370   -1.5287 O.3       1 <0>        -0.3181
     13 C10         5.5101   -4.5763   -2.0139 C.3       1 <0>         0.0251
     14 C11         0.8260   -0.5095    1.1880 C.3       1 <0>        -0.0610
     15 C12         0.0021   -0.0041    0.0020 C.3       1 <0>        -0.0044
     16 H2         -2.0796   -2.2655    1.9642 H         1 <0>         0.0834
     17 H3         -1.4196   -3.1090    3.3858 H         1 <0>         0.0791
     18 H4         -0.9791   -1.4130    3.0734 H         1 <0>         0.0863
     19 H5          3.2608   -1.6025   -0.4801 H         1 <0>         0.1273
     20 H6          3.8896   -5.8073   -0.8952 H         1 <0>         0.1377
     21 H7          1.9048   -6.2674    0.4687 H         1 <0>         0.1295
     22 H8          5.8584   -5.1730   -1.1709 H         1 <0>         0.0582
     23 H9          4.8503   -5.1792   -2.6379 H         1 <0>         0.0576
     24 H10         6.3654   -4.2457   -2.6031 H         1 <0>         0.1044
     25 H11         1.8454   -0.1318    1.1095 H         1 <0>         0.0929
     26 H12         0.3787   -0.1573    2.1176 H         1 <0>         0.0903
     27 H13        -1.0174   -0.3817    0.0806 H         1 <0>         0.1297
     28 H14         0.4494   -0.3563   -0.9275 H         1 <0>         0.1355
     29 H15         0.9191    1.8392    0.0032 H         1 <0>         0.4372
     30 H16        -0.5563    1.8234   -0.7642 H         1 <0>         0.4394
     31 N2         -0.0294    1.4689    0.0323 N.4       1 <0>        -0.6478
     32 H17        -0.4837    1.7790    0.8993 H         1 <0>         0.4379
@<TRIPOS>BOND
     1    1    2 1
     2    1   16 1
     3    1   17 1
     4    1   18 1
     5    2   10 1
     6    2    3 2
     7    3    4 1
     8    3   14 1
     9    4    9 ar
    10    4    5 ar
    11    5    6 ar
    12    5   19 1
    13    6    7 ar
    14    6   12 1
    15    7    8 ar
    16    7   20 1
    17    8    9 ar
    18    8   21 1
    19    9   10 1
    20   10   11 1
    21   12   13 1
    22   13   22 1
    23   13   23 1
    24   13   24 1
    25   14   15 1
    26   14   25 1
    27   14   26 1
    28   15   27 1
    29   15   28 1
    30   15   31 1
    31   29   31 1
    32   30   31 1
    33   31   32 1
@<TRIPOS>MOLECULE
ZINC22010815
   30    32     0     0     0
SMALL
USER_CHARGES
5-fluoro-3-(1,2,3,6-tetrahydropyridin-4-yl)-1H-indole
@<TRIPOS>ATOM
      1 C1          4.5802   -1.3413    2.7615 C.ar      1 <0>        -0.1302
      2 C2          4.9524   -1.1564    1.4481 C.ar      1 <0>        -0.0882
      3 C3          4.1603   -0.3856    0.6035 C.ar      1 <0>         0.0761
      4 C4          2.9867    0.2026    1.1042 C.ar      1 <0>        -0.0667
      5 C5          2.6184    0.0037    2.4337 C.ar      1 <0>        -0.1202
      6 C6          3.4168   -0.7641    3.2554 C.ar      1 <0>         0.0863
      7 F1          3.0663   -0.9556    4.5460 F         1 <0>        -0.1366
      8 C7          2.3864    0.9357   -0.0233 C.2       1 <0>        -0.1907
      9 C8          3.2105    0.7554   -1.0874 C.2       1 <0>         0.1121
     10 N1          4.2667   -0.0281   -0.7245 N.pl3     1 <0>        -0.5945
     11 H1          5.1220   -0.3777   -1.3214 H         1 <0>         0.4552
     12 C9          1.1358    1.7193    0.0004 C.2       1 <0>        -0.0047
     13 C10        -0.0126    1.0758    0.0080 C.2       1 <0>        -0.1964
     14 C11        -1.3421    1.7739    0.0183 C.3       1 <0>         0.0416
     15 N2         -1.1758    3.1740    0.4350 N.4       1 <0>        -0.5404
     16 C12        -0.1285    3.8210   -0.3724 C.3       1 <0>         0.0000
     17 C13         1.2251    3.2199    0.0146 C.3       1 <0>        -0.1163
     18 H2          5.1987   -1.9403    3.4135 H         1 <0>         0.1444
     19 H3          5.8586   -1.6098    1.0743 H         1 <0>         0.1369
     20 H4          1.7146    0.4518    2.8194 H         1 <0>         0.1292
     21 H5          3.0537    1.1700   -2.0723 H         1 <0>         0.1753
     22 H6         -0.0267   -0.0241    0.0070 H         1 <0>         0.1494
     23 H7         -1.7779    1.7476   -0.9914 H         1 <0>         0.1356
     24 H8         -2.0175    1.2660    0.7225 H         1 <0>         0.1395
     25 H9         -2.1243    3.7133    0.2951 H         1 <0>         0.4568
     26 H10        -0.3264    3.6435   -1.4398 H         1 <0>         0.1292
     27 H11        -0.1288    4.9030   -0.1744 H         1 <0>         0.1368
     28 H12         1.5007    3.5613    1.0233 H         1 <0>         0.1062
     29 H13         1.9892    3.5486   -0.7052 H         1 <0>         0.1210
     30 H14        -0.8871    3.2090    1.4959 H         1 <0>         0.4531
@<TRIPOS>BOND
     1    1    6 ar
     2    1    2 ar
     3    1   18 1
     4    2    3 ar
     5    2   19 1
     6    3   10 1
     7    3    4 ar
     8    4    5 ar
     9    4    8 1
    10    5    6 ar
    11    5   20 1
    12    6    7 1
    13    8    9 2
    14    8   12 1
    15    9   10 1
    16    9   21 1
    17   10   11 1
    18   12   17 1
    19   12   13 2
    20   13   14 1
    21   13   22 1
    22   14   15 1
    23   14   23 1
    24   14   24 1
    25   15   16 1
    26   15   25 1
    27   15   30 1
    28   16   17 1
    29   16   26 1
    30   16   27 1
    31   17   28 1
    32   17   29 1
@<TRIPOS>MOLECULE
ZINC01571800
   25    26     0     0     0
SMALL
USER_CHARGES

@<TRIPOS>ATOM
      1 C1          0.0058    1.3143    0.2255 C.ar      1 <0>         0.0078
      2 C2          1.1819    2.0265    0.0017 C.ar      1 <0>         0.3632
      3 N1          2.3163    1.3747   -0.2188 N.ar      1 <0>        -0.4918
      4 C3          2.3262    0.0514   -0.2252 C.ar      1 <0>         0.1743
      5 C4          1.1557   -0.6517   -0.0029 C.ar      1 <0>         0.0305
      6 N2          0.0235   -0.0049    0.2176 N.ar      1 <0>        -0.3796
      7 Cl1         3.8095   -0.8031   -0.5135 Cl        1 <0>         0.0093
      8 N3          1.1669    3.4164    0.0088 N.pl3     1 <0>        -0.6210
      9 C5          2.4203    4.1864   -0.0052 C.3       1 <0>         0.0984
     10 C6          2.3337    5.2349   -1.1192 C.3       1 <0>        -0.0220
     11 N4          1.1252    6.0476   -0.9323 N.4       1 <0>        -0.5049
     12 C7         -0.0702    5.2088   -1.0856 C.3       1 <0>        -0.0220
     13 C8         -0.1028    4.1591    0.0244 C.3       1 <0>         0.0983
     14 H1         -0.9187    1.8414    0.4097 H         1 <0>         0.1747
     15 H2          1.1666   -1.7316   -0.0090 H         1 <0>         0.1864
     16 H3          2.5558    4.6831    0.9555 H         1 <0>         0.0939
     17 H4          3.2592    3.5172   -0.1965 H         1 <0>         0.1382
     18 H5          3.2133    5.8776   -1.0825 H         1 <0>         0.1477
     19 H6          2.2892    4.7345   -2.0866 H         1 <0>         0.1351
     20 H7          1.1337    6.4533   -0.0085 H         1 <0>         0.4297
     21 H8         -0.9621    5.8324   -1.0240 H         1 <0>         0.1506
     22 H9         -0.0420    4.7092   -2.0539 H         1 <0>         0.1358
     23 H10        -0.9313    3.4718   -0.1472 H         1 <0>         0.1300
     24 H11        -0.2264    4.6529    0.9882 H         1 <0>         0.1013
     25 H12         1.1076    6.7851   -1.6207 H         1 <0>         0.4359
@<TRIPOS>BOND
     1    1    6 ar
     2    1    2 ar
     3    1   14 1
     4    2    3 ar
     5    2    8 1
     6    3    4 ar
     7    4    5 ar
     8    4    7 1
     9    5    6 ar
    10    5   15 1
    11    8   13 1
    12    8    9 1
    13    9   10 1
    14    9   16 1
    15    9   17 1
    16   10   11 1
    17   10   18 1
    18   10   19 1
    19   11   12 1
    20   11   20 1
    21   11   25 1
    22   12   13 1
    23   12   21 1
    24   12   22 1
    25   13   23 1
    26   13   24 1
@<TRIPOS>MOLECULE
ZINC02529848
   27    28     0     0     0
SMALL
USER_CHARGES
1-(3-fluorophenyl)piperazine
@<TRIPOS>ATOM
      1 C1          1.1740    1.7830    0.0004 C.ar      1 <0>        -0.0600
      2 C2         -0.0126    1.0758    0.0080 C.ar      1 <0>        -0.1409
      3 C3         -1.2247    1.7542    0.0174 C.ar      1 <0>         0.1155
      4 C4         -1.2402    3.1430    0.0294 C.ar      1 <0>        -0.2032
      5 C5         -0.0492    3.8458    0.0218 C.ar      1 <0>         0.1311
      6 C6          1.1574    3.1651    0.0075 C.ar      1 <0>        -0.1613
      7 F1         -0.0622    5.1968    0.0287 F         1 <0>        -0.1300
      8 N1         -2.4256    1.0410    0.0196 N.pl3     1 <0>        -0.4858
      9 C7         -2.4831    0.1101    1.1553 C.3       1 <0>         0.0236
     10 C8         -3.7752   -0.7065    1.0772 C.3       1 <0>         0.0009
     11 C9         -4.8710    1.1351   -0.0482 C.3       1 <0>         0.0017
     12 C10        -3.5789    1.9517    0.0300 C.3       1 <0>         0.0159
     13 H1          2.1162    1.2551   -0.0114 H         1 <0>         0.1441
     14 H2          0.0021   -0.0041    0.0020 H         1 <0>         0.1358
     15 H3         -2.1810    3.6732    0.0408 H         1 <0>         0.1396
     16 H4          2.0867    3.7154    0.0016 H         1 <0>         0.1439
     17 H5         -1.6256   -0.5617    1.1186 H         1 <0>         0.1304
     18 H6         -2.4646    0.6732    2.0884 H         1 <0>         0.0720
     19 H7         -3.8339   -1.3772    1.9343 H         1 <0>         0.1428
     20 H8         -3.7812   -1.2905    0.1569 H         1 <0>         0.1415
     21 H9         -5.7286    1.8070   -0.0115 H         1 <0>         0.1427
     22 H10        -4.8897    0.5723   -0.9814 H         1 <0>         0.1415
     23 H11        -3.5729    2.5357    0.9503 H         1 <0>         0.0738
     24 H12        -3.5200    2.6228   -0.8270 H         1 <0>         0.1306
     25 N2         -4.9357    0.2041    1.0943 N.4       1 <0>        -0.5194
     26 H13        -4.9325    0.7409    1.9696 H         1 <0>         0.4319
     27 H14        -5.7999   -0.3470    1.0339 H         1 <0>         0.4411
@<TRIPOS>BOND
     1    1    6 ar
     2    1    2 ar
     3    1   13 1
     4    2    3 ar
     5    2   14 1
     6    3    4 ar
     7    3    8 1
     8    4    5 ar
     9    4   15 1
    10    5    6 ar
    11    5    7 1
    12    6   16 1
    13    8   12 1
    14    8    9 1
    15    9   10 1
    16    9   17 1
    17    9   18 1
    18   10   19 1
    19   10   20 1
    20   10   25 1
    21   11   12 1
    22   11   21 1
    23   11   22 1
    24   11   25 1
    25   12   23 1
    26   12   24 1
    27   25   26 1
    28   25   27 1
