@<TRIPOS>MOLECULE
ZINC52956332
   66    69     0     0     0
SMALL
USER_CHARGES

@<TRIPOS>ATOM
      1 C1         -0.2570   -0.0396   -0.2249 C.3       1 <0>        -0.1481
      2 C2         -0.4777   -1.5512   -0.1410 C.3       1 <0>         0.0719
      3 C3          0.2510   -2.1058    1.0847 C.3       1 <0>        -0.1743
      4 O1         -1.8760   -1.8229   -0.0272 O.3       1 <0>        -0.2968
      5 C4         -2.3308   -2.9699   -0.5993 C.ar      1 <0>         0.1238
      6 C5         -1.4369   -3.8709   -1.1538 C.ar      1 <0>        -0.2108
      7 C6         -1.9007   -5.0365   -1.7356 C.ar      1 <0>        -0.0833
      8 C7         -3.2562   -5.3067   -1.7656 C.ar      1 <0>        -0.1528
      9 C8         -4.1549   -4.4130   -1.2140 C.ar      1 <0>        -0.0865
     10 C9         -3.6965   -3.2442   -0.6239 C.ar      1 <0>         0.1375
     11 N1         -4.6040   -2.3403   -0.0596 N.pl3     1 <0>        -0.6674
     12 C10        -5.1972   -1.2631   -0.8665 C.3       1 <0>         0.1547
     13 C11        -5.0050    0.0635   -0.1240 C.3       1 <0>         0.0426
     14 N2         -5.5408   -0.0593    1.2382 N.3       1 <0>        -0.5278
     15 C12        -4.8056   -1.0693    2.0110 C.3       1 <0>         0.0391
     16 C13        -4.9943   -2.4462    1.3545 C.3       1 <0>         0.1554
     17 C14        -5.5326    1.2387    1.9262 C.3       1 <0>         0.0947
     18 C15        -6.3064    1.1292    3.2147 C.ar      1 <0>        -0.0813
     19 C16        -7.6662    1.3854    3.2273 C.ar      1 <0>        -0.0744
     20 C17        -8.3840    1.2867    4.4058 C.ar      1 <0>        -0.1211
     21 C18        -7.7471    0.9321    5.5774 C.ar      1 <0>        -0.0675
     22 C19        -6.3760    0.6723    5.5716 C.ar      1 <0>        -0.1273
     23 C20        -5.6587    0.7682    4.3778 C.ar      1 <0>        -0.0879
     24 C21        -5.6870    0.2923    6.8233 C.2       1 <0>         0.5617
     25 O2         -6.1780   -0.5424    7.5580 O.2       1 <0>        -0.5326
     26 N3         -4.5146    0.8713    7.1497 N.am      1 <0>        -0.6059
     27 C22        -3.8640    1.8148    6.2303 C.3       1 <0>         0.0916
     28 C23        -3.5771    3.1180    6.9827 C.3       1 <0>        -0.1360
     29 C24        -2.7654    2.8071    8.2423 C.3       1 <0>        -0.1214
     30 C25        -3.5758    1.8882    9.1594 C.3       1 <0>        -0.1356
     31 C26        -3.8657    0.5757    8.4343 C.3       1 <0>         0.1105
     32 H1          0.8096    0.1676   -0.3117 H         1 <0>         0.0754
     33 H2         -0.7761    0.3555   -1.0981 H         1 <0>         0.0627
     34 H3         -0.6472    0.4351    0.6754 H         1 <0>         0.0636
     35 H4         -0.0875   -2.0259   -1.0413 H         1 <0>         0.0742
     36 H5         -0.1393   -1.6311    1.9850 H         1 <0>         0.0650
     37 H6          0.0937   -3.1828    1.1445 H         1 <0>         0.0608
     38 H7          1.3176   -1.8986    0.9979 H         1 <0>         0.0710
     39 H8         -0.3773   -3.6629   -1.1321 H         1 <0>         0.1279
     40 H9         -1.2021   -5.7375   -2.1681 H         1 <0>         0.1235
     41 H10        -3.6139   -6.2182   -2.2214 H         1 <0>         0.1239
     42 H11        -5.2133   -4.6264   -1.2391 H         1 <0>         0.1282
     43 H12        -4.7006   -1.2157   -1.8356 H         1 <0>         0.0685
     44 H13        -6.2613   -1.4538   -1.0061 H         1 <0>         0.0563
     45 H14        -3.9427    0.3033   -0.0768 H         1 <0>         0.0406
     46 H15        -5.5341    0.8563   -0.6529 H         1 <0>         0.0772
     47 H16        -3.7461   -0.8138    2.0285 H         1 <0>         0.0394
     48 H17        -5.1901   -1.0982    3.0305 H         1 <0>         0.0783
     49 H18        -6.0393   -2.7483    1.4243 H         1 <0>         0.0563
     50 H19        -4.3636   -3.1812    1.8544 H         1 <0>         0.0674
     51 H20        -4.5044    1.5283    2.1433 H         1 <0>         0.0422
     52 H21        -5.9950    1.9913    1.2875 H         1 <0>         0.0858
     53 H22        -8.1693    1.6640    2.3132 H         1 <0>         0.1285
     54 H23        -9.4450    1.4880    4.4089 H         1 <0>         0.1309
     55 H24        -8.3085    0.8561    6.4969 H         1 <0>         0.1292
     56 H25        -4.5982    0.5642    4.3658 H         1 <0>         0.1264
     57 H26        -2.9283    1.3874    5.8698 H         1 <0>         0.0700
     58 H27        -4.5244    2.0175    5.3871 H         1 <0>         0.0990
     59 H28        -3.0089    3.7912    6.3407 H         1 <0>         0.0765
     60 H29        -4.5182    3.5906    7.2637 H         1 <0>         0.0681
     61 H30        -1.8355    2.3122    7.9621 H         1 <0>         0.0648
     62 H31        -2.5388    3.7354    8.7666 H         1 <0>         0.0672
     63 H32        -3.0066    1.6860   10.0668 H         1 <0>         0.0777
     64 H33        -4.5169    2.3723    9.4200 H         1 <0>         0.0669
     65 H34        -4.5272   -0.0389    9.0449 H         1 <0>         0.0936
     66 H35        -2.9302    0.0450    8.2576 H         1 <0>         0.0683
@<TRIPOS>BOND
     1    1    2 1
     2    1   32 1
     3    1   33 1
     4    1   34 1
     5    2    3 1
     6    2    4 1
     7    2   35 1
     8    3   36 1
     9    3   37 1
    10    3   38 1
    11    4    5 1
    12    5   10 ar
    13    5    6 ar
    14    6    7 ar
    15    6   39 1
    16    7    8 ar
    17    7   40 1
    18    8    9 ar
    19    8   41 1
    20    9   10 ar
    21    9   42 1
    22   10   11 1
    23   11   16 1
    24   11   12 1
    25   12   13 1
    26   12   43 1
    27   12   44 1
    28   13   14 1
    29   13   45 1
    30   13   46 1
    31   14   15 1
    32   14   17 1
    33   15   16 1
    34   15   47 1
    35   15   48 1
    36   16   49 1
    37   16   50 1
    38   17   18 1
    39   17   51 1
    40   17   52 1
    41   18   23 ar
    42   18   19 ar
    43   19   20 ar
    44   19   53 1
    45   20   21 ar
    46   20   54 1
    47   21   22 ar
    48   21   55 1
    49   22   23 ar
    50   22   24 1
    51   23   56 1
    52   24   25 2
    53   24   26 am
    54   26   31 1
    55   26   27 1
    56   27   28 1
    57   27   57 1
    58   27   58 1
    59   28   29 1
    60   28   59 1
    61   28   60 1
    62   29   30 1
    63   29   61 1
    64   29   62 1
    65   30   31 1
    66   30   63 1
    67   30   64 1
    68   31   65 1
    69   31   66 1
@<TRIPOS>MOLECULE
ZINC26745026
   36    38     0     0     0
SMALL
USER_CHARGES
5-chloro-3-(1-ethyl-5,6-dihydro-2H-pyridin-3-yl)-1H-indole
@<TRIPOS>ATOM
      1 C1         -3.6418   -4.6541   -1.9040 C.3       1 <0>        -0.1899
      2 C2         -2.9178   -3.3460   -2.2289 C.3       1 <0>        -0.0088
      3 N1         -2.4413   -2.7278   -0.9845 N.4       1 <0>        -0.4001
      4 C3         -3.5699   -2.2828   -0.1506 C.3       1 <0>        -0.0084
      5 C4         -3.0407   -1.9483    1.2463 C.3       1 <0>        -0.1201
      6 C5         -1.8361   -1.0560    1.1330 C.2       1 <0>        -0.1243
      7 C6         -1.1695   -0.9018    0.0084 C.2       1 <0>        -0.0730
      8 C7         -1.5424   -1.6017   -1.2669 C.3       1 <0>         0.0445
      9 C8          0.0021   -0.0041    0.0020 C.2       1 <0>        -0.1767
     10 C9          1.3082   -0.3751   -0.0124 C.2       1 <0>         0.0882
     11 N2          2.1023    0.7343   -0.0141 N.pl3     1 <0>        -0.5950
     12 H1          3.1970    0.6271   -0.0252 H         1 <0>         0.4543
     13 C10         1.3272    1.8747   -0.0005 C.ar      1 <0>         0.1078
     14 C11        -0.0179    1.4686    0.0101 C.ar      1 <0>        -0.0819
     15 C12        -1.0346    2.4215    0.0300 C.ar      1 <0>        -0.0705
     16 C13        -0.7133    3.7619    0.0300 C.ar      1 <0>        -0.0502
     17 C14         0.6158    4.1637    0.0199 C.ar      1 <0>        -0.0880
     18 C15         1.6307    3.2323    0.0045 C.ar      1 <0>        -0.1079
     19 Cl1        -1.9761    4.9530    0.0487 Cl        1 <0>        -0.0609
     20 H2         -3.9986   -5.1169   -2.8359 H         1 <0>         0.1072
     21 H3         -4.4988   -4.4454   -1.2468 H         1 <0>         0.0802
     22 H4         -2.9485   -5.3404   -1.3957 H         1 <0>         0.0815
     23 H5         -2.0608   -3.5547   -2.8861 H         1 <0>         0.1314
     24 H6         -3.6110   -2.6597   -2.7372 H         1 <0>         0.1269
     25 H7         -4.0293   -1.3907   -0.6012 H         1 <0>         0.1287
     26 H8         -4.3175   -3.0871   -0.0858 H         1 <0>         0.1363
     27 H9         -3.8236   -1.4319    1.8210 H         1 <0>         0.1242
     28 H10        -2.7585   -2.8771    1.7636 H         1 <0>         0.1065
     29 H11        -1.5172   -0.5203    2.0393 H         1 <0>         0.1407
     30 H12        -0.6288   -1.9748   -1.7527 H         1 <0>         0.1377
     31 H13        -2.0473   -0.8879   -1.9344 H         1 <0>         0.1351
     32 H14         1.6646   -1.3946   -0.0210 H         1 <0>         0.1748
     33 H15        -2.0690    2.1113    0.0431 H         1 <0>         0.1297
     34 H16         0.8562    5.2166    0.0238 H         1 <0>         0.1420
     35 H17         2.6611    3.5557   -0.0032 H         1 <0>         0.1353
     36 H18        -1.8758   -3.4909   -0.4296 H         1 <0>         0.4428
@<TRIPOS>BOND
     1    1    2 1
     2    1   20 1
     3    1   21 1
     4    1   22 1
     5    2    3 1
     6    2   23 1
     7    2   24 1
     8    3    8 1
     9    3    4 1
    10    3   36 1
    11    4    5 1
    12    4   25 1
    13    4   26 1
    14    5    6 1
    15    5   27 1
    16    5   28 1
    17    6    7 2
    18    6   29 1
    19    7    8 1
    20    7    9 1
    21    8   30 1
    22    8   31 1
    23    9   14 1
    24    9   10 2
    25   10   11 1
    26   10   32 1
    27   11   12 1
    28   11   13 1
    29   13   18 ar
    30   13   14 ar
    31   14   15 ar
    32   15   16 ar
    33   15   33 1
    34   16   17 ar
    35   16   19 1
    36   17   18 ar
    37   17   34 1
    38   18   35 1
@<TRIPOS>MOLECULE
ZINC00020245
   46    48     0     0     0
SMALL
USER_CHARGES

@<TRIPOS>ATOM
      1 C1         -5.6836    1.3838    0.0162 C.3       1 <0>        -0.0473
      2 N1         -5.6620   -0.0833   -0.0564 N.4       1 <0>        -0.3868
      3 C2         -6.3713   -0.5242   -1.2649 C.3       1 <0>        -0.0522
      4 C3         -4.2702   -0.5505   -0.1076 C.3       1 <0>        -0.0086
      5 C4         -4.2434   -2.0795   -0.0575 C.3       1 <0>        -0.1781
      6 C5         -2.7938   -2.5661   -0.1108 C.3       1 <0>         0.1490
      7 N2         -2.7704   -4.0309   -0.1190 N.pl3     1 <0>        -0.6108
      8 C6         -2.7295   -4.7451   -1.3212 C.ar      1 <0>         0.1758
      9 C7         -1.6865   -4.4783   -2.2022 C.ar      1 <0>        -0.1411
     10 C8         -1.5734   -5.1772   -3.3856 C.ar      1 <0>        -0.1022
     11 C9         -2.5089   -6.1508   -3.6854 C.ar      1 <0>        -0.1266
     12 C10        -3.5489   -6.4041   -2.8209 C.ar      1 <0>        -0.1101
     13 C11        -3.6933   -5.6947   -1.6266 C.ar      1 <0>        -0.0998
     14 C12        -4.9357   -6.0340   -0.8354 C.3       1 <0>        -0.0687
     15 C13        -5.1005   -5.1892    0.4158 C.3       1 <0>        -0.0773
     16 C14        -3.9592   -5.4030    1.3779 C.ar      1 <0>        -0.0996
     17 C15        -2.7824   -4.7590    1.0748 C.ar      1 <0>         0.1523
     18 C16        -1.6837   -4.8488    1.9126 C.ar      1 <0>        -0.1184
     19 C17        -1.7825   -5.6251    3.0560 C.ar      1 <0>        -0.1094
     20 C18        -2.9565   -6.2950    3.3488 C.ar      1 <0>        -0.1165
     21 C19        -4.0679   -6.1865    2.5030 C.ar      1 <0>        -0.1028
     22 H1         -6.7163    1.7305    0.0542 H         1 <0>         0.1245
     23 H2         -5.1573    1.7109    0.9129 H         1 <0>         0.1235
     24 H3         -5.1933    1.7984   -0.8646 H         1 <0>         0.1221
     25 H4         -6.3552   -1.6128   -1.3188 H         1 <0>         0.1231
     26 H5         -7.4040   -0.1775   -1.2269 H         1 <0>         0.1246
     27 H6         -5.8810   -0.1096   -2.1457 H         1 <0>         0.1227
     28 H7         -3.8061   -0.2091   -1.0329 H         1 <0>         0.1308
     29 H8         -3.7207   -0.1494    0.7440 H         1 <0>         0.1320
     30 H9         -4.7075   -2.4209    0.8678 H         1 <0>         0.0908
     31 H10        -4.7929   -2.4806   -0.9091 H         1 <0>         0.0915
     32 H11        -2.3174   -2.1901   -1.0161 H         1 <0>         0.0824
     33 H12        -2.2550   -2.1990    0.7627 H         1 <0>         0.0801
     34 H13        -0.9599   -3.7176   -1.9576 H         1 <0>         0.1215
     35 H14        -0.7646   -4.9667   -4.0697 H         1 <0>         0.1276
     36 H15        -2.4229   -6.7145   -4.6025 H         1 <0>         0.1250
     37 H16        -4.2693   -7.1687   -3.0712 H         1 <0>         0.1222
     38 H17        -5.8074   -5.8880   -1.4734 H         1 <0>         0.0793
     39 H18        -4.8898   -7.0837   -0.5452 H         1 <0>         0.0765
     40 H19        -5.1365   -4.1371    0.1334 H         1 <0>         0.0724
     41 H20        -6.0358   -5.4578    0.9068 H         1 <0>         0.0709
     42 H21        -0.7686   -4.3248    1.6795 H         1 <0>         0.1257
     43 H22        -0.9372   -5.7074    3.7231 H         1 <0>         0.1275
     44 H23        -3.0178   -6.9071    4.2365 H         1 <0>         0.1269
     45 H24        -4.9880   -6.7067    2.7249 H         1 <0>         0.1290
     46 H25        -6.1159   -0.4671    0.7589 H         1 <0>         0.4268
@<TRIPOS>BOND
     1    1    2 1
     2    1   22 1
     3    1   23 1
     4    1   24 1
     5    2    3 1
     6    2    4 1
     7    2   46 1
     8    3   25 1
     9    3   26 1
    10    3   27 1
    11    4    5 1
    12    4   28 1
    13    4   29 1
    14    5    6 1
    15    5   30 1
    16    5   31 1
    17    6    7 1
    18    6   32 1
    19    6   33 1
    20    7   17 1
    21    7    8 1
    22    8   13 ar
    23    8    9 ar
    24    9   10 ar
    25    9   34 1
    26   10   11 ar
    27   10   35 1
    28   11   12 ar
    29   11   36 1
    30   12   13 ar
    31   12   37 1
    32   13   14 1
    33   14   15 1
    34   14   38 1
    35   14   39 1
    36   15   16 1
    37   15   40 1
    38   15   41 1
    39   16   21 ar
    40   16   17 ar
    41   17   18 ar
    42   18   19 ar
    43   18   42 1
    44   19   20 ar
    45   19   43 1
    46   20   21 ar
    47   20   44 1
    48   21   45 1
@<TRIPOS>MOLECULE
ZINC03650259
   47    48     0     0     0
SMALL
USER_CHARGES
8-methoxy-N,N-dipropyl-tetralin-2-amine
@<TRIPOS>ATOM
      1 C1         -7.6637    2.4009    2.4950 C.3       1 <0>        -0.1552
      2 C2         -6.2948    2.9595    2.1015 C.3       1 <0>        -0.1477
      3 C3         -6.2805    3.2652    0.6024 C.3       1 <0>        -0.0145
      4 C4         -4.8308    5.1864    0.8676 C.3       1 <0>        -0.0157
      5 C5         -5.9233    6.1304    0.3614 C.3       1 <0>        -0.1486
      6 C6         -5.6791    7.5360    0.9143 C.3       1 <0>        -0.1560
      7 C7         -3.8762    2.9790    0.5867 C.3       1 <0>         0.0265
      8 H1         -3.8807    2.7880    1.6598 H         1 <0>         0.1435
      9 C8         -4.0142    1.6554   -0.1748 C.3       1 <0>        -0.1402
     10 C9         -2.9878    0.6705    0.3813 C.3       1 <0>        -0.0757
     11 C10        -1.6156    1.2920    0.4000 C.ar      1 <0>        -0.0465
     12 C11        -0.5227    0.4426    0.5223 C.ar      1 <0>        -0.1520
     13 C12         0.7602    0.9482    0.5639 C.ar      1 <0>        -0.0641
     14 C13         0.9640    2.3127    0.4879 C.ar      1 <0>        -0.2046
     15 C14        -0.1218    3.1630    0.3675 C.ar      1 <0>         0.1378
     16 C15        -1.4178    2.6513    0.3249 C.ar      1 <0>        -0.1229
     17 C16        -2.5541    3.6301    0.1855 C.3       1 <0>        -0.0810
     18 O1          0.0770    4.5052    0.2909 O.3       1 <0>        -0.3200
     19 C17         1.4292    4.9646    0.3408 C.3       1 <0>         0.0242
     20 H2         -7.6739    2.1832    3.5630 H         1 <0>         0.0765
     21 H3         -8.4354    3.1361    2.2667 H         1 <0>         0.0662
     22 H4         -7.8571    1.4856    1.9357 H         1 <0>         0.0669
     23 H5         -5.5231    2.2244    2.3298 H         1 <0>         0.0855
     24 H6         -6.1015    3.8749    2.6608 H         1 <0>         0.0843
     25 H7         -7.0868    3.9593    0.3654 H         1 <0>         0.1314
     26 H8         -6.4202    2.3409    0.0418 H         1 <0>         0.1301
     27 H9         -4.9118    5.0842    1.9498 H         1 <0>         0.1315
     28 H10        -3.8523    5.5935    0.6133 H         1 <0>         0.1316
     29 H11        -5.9020    6.1597   -0.7280 H         1 <0>         0.0842
     30 H12        -6.8968    5.7723    0.6962 H         1 <0>         0.0860
     31 H13        -4.7056    7.8941    0.5794 H         1 <0>         0.0669
     32 H14        -6.4573    8.2085    0.5536 H         1 <0>         0.0768
     33 H15        -5.7004    7.5067    2.0037 H         1 <0>         0.0665
     34 H16        -5.0188    1.2556   -0.0370 H         1 <0>         0.0935
     35 H17        -3.8268    1.8210   -1.2357 H         1 <0>         0.0927
     36 H18        -3.2727    0.3885    1.3949 H         1 <0>         0.0911
     37 H19        -2.9670   -0.2199   -0.2470 H         1 <0>         0.0995
     38 H20        -0.6789   -0.6244    0.5810 H         1 <0>         0.1301
     39 H21         1.6030    0.2792    0.6561 H         1 <0>         0.1334
     40 H22         1.9661    2.7141    0.5219 H         1 <0>         0.1355
     41 H23        -2.3679    4.4908    0.8279 H         1 <0>         0.0989
     42 H24        -2.6171    3.9626   -0.8506 H         1 <0>         0.0917
     43 H25         1.9890    4.5377   -0.4913 H         1 <0>         0.0610
     44 H26         1.4463    6.0522    0.2702 H         1 <0>         0.1061
     45 H27         1.8839    4.6545    1.2817 H         1 <0>         0.0607
     46 N1         -4.9915    3.8726    0.2095 N.4       1 <0>        -0.3920
     47 H28        -4.9823    4.0062   -0.8084 H         1 <0>         0.4261
@<TRIPOS>BOND
     1    1    2 1
     2    1   20 1
     3    1   21 1
     4    1   22 1
     5    2    3 1
     6    2   23 1
     7    2   24 1
     8    3   25 1
     9    3   26 1
    10    3   46 1
    11    4    5 1
    12    4   27 1
    13    4   28 1
    14    4   46 1
    15    5    6 1
    16    5   29 1
    17    5   30 1
    18    6   31 1
    19    6   32 1
    20    6   33 1
    21    7    8 1
    22    7   17 1
    23    7    9 1
    24    7   46 1
    25    9   10 1
    26    9   34 1
    27    9   35 1
    28   10   11 1
    29   10   36 1
    30   10   37 1
    31   11   16 ar
    32   11   12 ar
    33   12   13 ar
    34   12   38 1
    35   13   14 ar
    36   13   39 1
    37   14   15 ar
    38   14   40 1
    39   15   16 ar
    40   15   18 1
    41   16   17 1
    42   17   41 1
    43   17   42 1
    44   18   19 1
    45   19   43 1
    46   19   44 1
    47   19   45 1
    48   46   47 1
@<TRIPOS>MOLECULE
ZINC03650260
   47    48     0     0     0
SMALL
USER_CHARGES
8-methoxy-N,N-dipropyl-tetralin-2-amine
@<TRIPOS>ATOM
      1 C1         -3.3141    1.9397    0.8841 C.3       1 <0>        -0.1553
      2 C2         -2.3652    1.3885    1.9503 C.3       1 <0>        -0.1489
      3 C3         -0.9173    1.6088    1.5075 C.3       1 <0>        -0.0129
      4 C4         -0.0425   -0.3234    2.6753 C.3       1 <0>        -0.0166
      5 C5          0.7353   -0.9451    1.5135 C.3       1 <0>        -0.1487
      6 C6          0.6323   -2.4697    1.5888 C.3       1 <0>        -0.1556
      7 C7         -0.3183    1.7772    3.8475 C.3       1 <0>         0.0267
      8 H1         -1.2951    1.4417    4.1959 H         1 <0>         0.1434
      9 C8         -0.3246    3.3014    3.6815 C.3       1 <0>        -0.1415
     10 C9         -0.8803    3.9230    4.9610 C.3       1 <0>        -0.0758
     11 C10        -0.1632    3.3801    6.1694 C.ar      1 <0>        -0.0463
     12 C11        -0.2747    4.0883    7.3597 C.ar      1 <0>        -0.1520
     13 C12         0.3473    3.6395    8.5064 C.ar      1 <0>        -0.0640
     14 C13         1.0898    2.4747    8.4747 C.ar      1 <0>        -0.2046
     15 C14         1.2060    1.7672    7.2905 C.ar      1 <0>         0.1379
     16 C15         0.5785    2.2220    6.1318 C.ar      1 <0>        -0.1229
     17 C16         0.7491    1.4083    4.8758 C.3       1 <0>        -0.0806
     18 O1          1.9362    0.6215    7.2574 O.3       1 <0>        -0.3201
     19 C17         2.5537    0.2102    8.4788 C.3       1 <0>         0.0243
     20 H2         -4.3455    1.7827    1.1995 H         1 <0>         0.0767
     21 H3         -3.1326    3.0064    0.7527 H         1 <0>         0.0666
     22 H4         -3.1400    1.4226   -0.0595 H         1 <0>         0.0666
     23 H5         -2.5393    1.9056    2.8939 H         1 <0>         0.0862
     24 H6         -2.5466    0.3218    2.0817 H         1 <0>         0.0846
     25 H7         -0.7291    1.0512    0.5901 H         1 <0>         0.1302
     26 H8         -0.7499    2.6708    1.3280 H         1 <0>         0.1305
     27 H9          0.4114   -0.6253    3.6192 H         1 <0>         0.1314
     28 H10        -1.0771   -0.6650    2.6439 H         1 <0>         0.1317
     29 H11         0.3159   -0.5987    0.5689 H         1 <0>         0.0838
     30 H12         1.7821   -0.6480    1.5769 H         1 <0>         0.0860
     31 H13         1.1863   -2.9126    0.7611 H         1 <0>         0.0769
     32 H14         1.0516   -2.8161    2.5334 H         1 <0>         0.0673
     33 H15        -0.4146   -2.7667    1.5254 H         1 <0>         0.0661
     34 H16         0.6920    3.6566    3.5131 H         1 <0>         0.0926
     35 H17        -0.9549    3.5760    2.8357 H         1 <0>         0.0951
     36 H18        -1.9427    3.6926    5.0398 H         1 <0>         0.0906
     37 H19        -0.7491    5.0044    4.9210 H         1 <0>         0.0998
     38 H20        -0.8541    4.9993    7.3874 H         1 <0>         0.1301
     39 H21         0.2544    4.1974    9.4265 H         1 <0>         0.1334
     40 H22         1.5777    2.1179    9.3697 H         1 <0>         0.1355
     41 H23         0.6630    0.3494    5.1192 H         1 <0>         0.0983
     42 H24         1.7358    1.6005    4.4544 H         1 <0>         0.0920
     43 H25         3.1041   -0.7160    8.3137 H         1 <0>         0.1061
     44 H26         3.2406    0.9857    8.8177 H         1 <0>         0.0610
     45 H27         1.7872    0.0473    9.2365 H         1 <0>         0.0608
     46 N1          0.0201    1.1483    2.5534 N.4       1 <0>        -0.3924
     47 H28         0.9742    1.4208    2.2895 H         1 <0>         0.4260
@<TRIPOS>BOND
     1    1    2 1
     2    1   20 1
     3    1   21 1
     4    1   22 1
     5    2    3 1
     6    2   23 1
     7    2   24 1
     8    3   25 1
     9    3   26 1
    10    3   46 1
    11    4    5 1
    12    4   27 1
    13    4   28 1
    14    4   46 1
    15    5    6 1
    16    5   29 1
    17    5   30 1
    18    6   31 1
    19    6   32 1
    20    6   33 1
    21    7    8 1
    22    7   17 1
    23    7    9 1
    24    7   46 1
    25    9   10 1
    26    9   34 1
    27    9   35 1
    28   10   11 1
    29   10   36 1
    30   10   37 1
    31   11   16 ar
    32   11   12 ar
    33   12   13 ar
    34   12   38 1
    35   13   14 ar
    36   13   39 1
    37   14   15 ar
    38   14   40 1
    39   15   16 ar
    40   15   18 1
    41   16   17 1
    42   17   41 1
    43   17   42 1
    44   18   19 1
    45   19   43 1
    46   19   44 1
    47   19   45 1
    48   46   47 1
@<TRIPOS>MOLECULE
ZINC01530571
   60    63     0     0     0
SMALL
USER_CHARGES

@<TRIPOS>ATOM
      1 C1         -0.0167    1.3818    0.0096 C.ar      1 <0>        -0.2679
      2 C2          1.1915    2.0609    0.0018 C.ar      1 <0>         0.1958
      3 N1          2.3197    1.3705   -0.0127 N.ar      1 <0>        -0.5666
      4 C3          2.3029    0.0457   -0.0197 C.ar      1 <0>         0.5562
      5 N2          1.1654   -0.6335   -0.0129 N.ar      1 <0>        -0.5663
      6 C4          0.0021   -0.0041    0.0020 C.ar      1 <0>         0.1960
      7 N3          3.5022   -0.6451   -0.0348 N.pl3     1 <0>        -0.6064
      8 C5          4.7874    0.0707   -0.0371 C.3       1 <0>         0.1080
      9 C6          5.6545   -0.4916   -1.1683 C.3       1 <0>        -0.0202
     10 N4          5.7718   -1.9473   -1.0165 N.4       1 <0>        -0.3840
     11 C7          4.4544   -2.5749   -1.1794 C.3       1 <0>        -0.0262
     12 C8          3.5278   -2.1159   -0.0430 C.3       1 <0>         0.1092
     13 C9          6.6913   -2.4716   -2.0352 C.3       1 <0>        -0.0085
     14 C10         6.9121   -3.9674   -1.8016 C.3       1 <0>        -0.1445
     15 C11         7.8697   -4.5135   -2.8626 C.3       1 <0>        -0.1292
     16 C12         8.0905   -6.0093   -2.6289 C.3       1 <0>         0.0911
     17 N5          9.0074   -6.5321   -3.6449 N.am      1 <0>        -0.5675
     18 C13         8.4943   -7.0005   -4.7921 C.2       1 <0>         0.5274
     19 O1          7.2949   -6.9658   -4.9647 O.2       1 <0>        -0.4991
     20 C14         9.3797   -7.5686   -5.8706 C.3       1 <0>        -0.1339
     21 C15        10.7544   -6.9065   -5.7927 C.3       1 <0>        -0.0666
     22 C16        11.7066   -7.5412   -6.8156 C.3       1 <0>        -0.1146
     23 C17        12.1410   -6.4083   -7.7700 C.3       1 <0>        -0.1265
     24 C18        11.9376   -5.1147   -6.9422 C.3       1 <0>        -0.1244
     25 C19        10.6393   -5.4143   -6.1507 C.3       1 <0>        -0.1220
     26 C20        11.3191   -7.0612   -4.3813 C.3       1 <0>        -0.1329
     27 C21        10.3239   -6.5167   -3.3897 C.2       1 <0>         0.5271
     28 O2         10.7205   -6.0600   -2.3391 O.2       1 <0>        -0.4986
     29 H1         -0.9525    1.9208    0.0259 H         1 <0>         0.1543
     30 H2          1.2116    3.1407    0.0070 H         1 <0>         0.1759
     31 H3         -0.9219   -0.5632    0.0082 H         1 <0>         0.1760
     32 H4          4.6141    1.1341   -0.2023 H         1 <0>         0.1406
     33 H5          5.2907   -0.0773    0.9184 H         1 <0>         0.0917
     34 H6          5.1926   -0.2623   -2.1286 H         1 <0>         0.1320
     35 H7          6.6459   -0.0406   -1.1249 H         1 <0>         0.1443
     36 H8          4.0288   -2.2827   -2.1393 H         1 <0>         0.1328
     37 H9          4.5614   -3.6591   -1.1441 H         1 <0>         0.1450
     38 H10         3.9061   -2.4809    0.9119 H         1 <0>         0.0920
     39 H11         2.5214   -2.4989   -0.2121 H         1 <0>         0.1403
     40 H12         6.2623   -2.3179   -3.0254 H         1 <0>         0.1301
     41 H13         7.6452   -1.9486   -1.9674 H         1 <0>         0.1337
     42 H14         7.3410   -4.1211   -0.8114 H         1 <0>         0.0926
     43 H15         5.9581   -4.4905   -1.8694 H         1 <0>         0.0914
     44 H16         7.4407   -4.3598   -3.8528 H         1 <0>         0.0793
     45 H17         8.8236   -3.9904   -2.7947 H         1 <0>         0.0796
     46 H18         8.5194   -6.1630   -1.6388 H         1 <0>         0.0991
     47 H19         7.1365   -6.5323   -2.6968 H         1 <0>         0.0987
     48 H20         9.4847   -8.6439   -5.7267 H         1 <0>         0.1160
     49 H21         8.9360   -7.3726   -6.8468 H         1 <0>         0.1186
     50 H22        12.5771   -7.9571   -6.3083 H         1 <0>         0.0770
     51 H23        11.1896   -8.3222   -7.3732 H         1 <0>         0.0769
     52 H24        13.1891   -6.5234   -8.0465 H         1 <0>         0.0725
     53 H25        11.5103   -6.3955   -8.6589 H         1 <0>         0.0700
     54 H26        12.7754   -4.9549   -6.2634 H         1 <0>         0.0706
     55 H27        11.8006   -4.2545   -7.5974 H         1 <0>         0.0710
     56 H28         9.7628   -5.2377   -6.7741 H         1 <0>         0.0740
     57 H29        10.5946   -4.8071   -5.2466 H         1 <0>         0.0611
     58 H30        11.5032   -8.1158   -4.1763 H         1 <0>         0.1163
     59 H31        12.2530   -6.5051   -4.2998 H         1 <0>         0.1183
     60 H32         6.1334   -2.1605   -0.0990 H         1 <0>         0.4234
@<TRIPOS>BOND
     1    1    6 ar
     2    1    2 ar
     3    1   29 1
     4    2    3 ar
     5    2   30 1
     6    3    4 ar
     7    4    5 ar
     8    4    7 1
     9    5    6 ar
    10    6   31 1
    11    7   12 1
    12    7    8 1
    13    8    9 1
    14    8   32 1
    15    8   33 1
    16    9   10 1
    17    9   34 1
    18    9   35 1
    19   10   11 1
    20   10   13 1
    21   10   60 1
    22   11   12 1
    23   11   36 1
    24   11   37 1
    25   12   38 1
    26   12   39 1
    27   13   14 1
    28   13   40 1
    29   13   41 1
    30   14   15 1
    31   14   42 1
    32   14   43 1
    33   15   16 1
    34   15   44 1
    35   15   45 1
    36   16   17 1
    37   16   46 1
    38   16   47 1
    39   17   27 am
    40   17   18 am
    41   18   19 2
    42   18   20 1
    43   20   21 1
    44   20   48 1
    45   20   49 1
    46   21   25 1
    47   21   22 1
    48   21   26 1
    49   22   23 1
    50   22   50 1
    51   22   51 1
    52   23   24 1
    53   23   52 1
    54   23   53 1
    55   24   25 1
    56   24   54 1
    57   24   55 1
    58   25   56 1
    59   25   57 1
    60   26   27 1
    61   26   58 1
    62   26   59 1
    63   27   28 2
@<TRIPOS>MOLECULE
ZINC01530571
   59    62     0     0     0
SMALL
USER_CHARGES

@<TRIPOS>ATOM
      1 C1         -0.0167    1.3818    0.0096 C.ar      1 <0>        -0.2969
      2 C2          1.1915    2.0609    0.0018 C.ar      1 <0>         0.1938
      3 N1          2.3197    1.3705   -0.0127 N.ar      1 <0>        -0.5732
      4 C3          2.3029    0.0457   -0.0197 C.ar      1 <0>         0.5658
      5 N2          1.1654   -0.6335   -0.0129 N.ar      1 <0>        -0.5730
      6 C4          0.0021   -0.0041    0.0020 C.ar      1 <0>         0.1940
      7 N3          3.5022   -0.6451   -0.0348 N.pl3     1 <0>        -0.5851
      8 C5          4.7864    0.0719   -0.0371 C.3       1 <0>         0.1324
      9 C6          5.6472   -0.4751   -1.1808 C.3       1 <0>         0.0415
     10 N4          5.7512   -1.9351   -1.0561 N.3       1 <0>        -0.5378
     11 C7          4.4367   -2.5765   -1.1923 C.3       1 <0>         0.0378
     12 C8          3.5262   -2.1156   -0.0430 C.3       1 <0>         0.1322
     13 C9          6.7063   -2.4799   -2.0301 C.3       1 <0>         0.0580
     14 C10         6.9763   -3.9518   -1.7112 C.3       1 <0>        -0.1114
     15 C11         7.9711   -4.5193   -2.7257 C.3       1 <0>        -0.1277
     16 C12         8.2411   -5.9911   -2.4068 C.3       1 <0>         0.0925
     17 N5          9.1937   -6.5345   -3.3782 N.am      1 <0>        -0.5656
     18 C13         8.7176   -7.0831   -4.5056 C.2       1 <0>         0.5235
     19 O1          7.5209   -7.1017   -4.6983 O.2       1 <0>        -0.4979
     20 C14         9.6414   -7.6762   -5.5375 C.3       1 <0>        -0.1320
     21 C15        10.9900   -6.9610   -5.4750 C.3       1 <0>        -0.0665
     22 C16        11.9819   -7.6151   -6.4466 C.3       1 <0>        -0.1128
     23 C17        12.3921   -6.5206   -7.4551 C.3       1 <0>        -0.1254
     24 C18        12.1282   -5.1922   -6.7029 C.3       1 <0>        -0.1237
     25 C19        10.8279   -5.4956   -5.9162 C.3       1 <0>        -0.1241
     26 C20        11.5352   -7.0178   -4.0487 C.3       1 <0>        -0.1310
     27 C21        10.5042   -6.4570   -3.1040 C.2       1 <0>         0.5230
     28 O2         10.8659   -5.9296   -2.0741 O.2       1 <0>        -0.4965
     29 H1         -0.9525    1.9208    0.0259 H         1 <0>         0.1437
     30 H2          1.2116    3.1407    0.0070 H         1 <0>         0.1666
     31 H3         -0.9219   -0.5632    0.0082 H         1 <0>         0.1667
     32 H4          4.6108    1.1370   -0.1881 H         1 <0>         0.1016
     33 H5          5.2961   -0.0869    0.9132 H         1 <0>         0.0738
     34 H6          5.1859   -0.2235   -2.1357 H         1 <0>         0.0373
     35 H7          6.6426   -0.0339   -1.1299 H         1 <0>         0.0892
     36 H8          3.9922   -2.2957   -2.1471 H         1 <0>         0.0376
     37 H9          4.5541   -3.6593   -1.1498 H         1 <0>         0.0919
     38 H10         3.9172   -2.4807    0.9068 H         1 <0>         0.0739
     39 H11         2.5171   -2.4975   -0.1978 H         1 <0>         0.1013
     40 H12         6.2894   -2.3962   -3.0337 H         1 <0>         0.0338
     41 H13         7.6396   -1.9194   -1.9765 H         1 <0>         0.0768
     42 H14         7.3933   -4.0355   -0.7076 H         1 <0>         0.0768
     43 H15         6.0430   -4.5123   -1.7648 H         1 <0>         0.0665
     44 H16         7.5542   -4.4355   -3.7293 H         1 <0>         0.0656
     45 H17         8.9044   -3.9587   -2.6720 H         1 <0>         0.0680
     46 H18         8.6581   -6.0748   -1.4031 H         1 <0>         0.0965
     47 H19         7.3078   -6.5516   -2.4604 H         1 <0>         0.0949
     48 H20         9.7822   -8.7375   -5.3331 H         1 <0>         0.1123
     49 H21         9.2080   -7.5500   -6.5297 H         1 <0>         0.1155
     50 H22        12.8577   -7.9706   -5.9039 H         1 <0>         0.0751
     51 H23        11.5029   -8.4436   -6.9683 H         1 <0>         0.0748
     52 H24        13.4482   -6.6121   -7.7087 H         1 <0>         0.0699
     53 H25        11.7768   -6.5793   -8.3530 H         1 <0>         0.0686
     54 H26        12.9479   -4.9651   -6.0212 H         1 <0>         0.0700
     55 H27        11.9720   -4.3745   -7.4065 H         1 <0>         0.0701
     56 H28         9.9566   -5.3855   -6.5618 H         1 <0>         0.0744
     57 H29        10.7458   -4.8422   -5.0477 H         1 <0>         0.0652
     58 H30        11.7534   -8.0522   -3.7832 H         1 <0>         0.1126
     59 H31        12.4471   -6.4242   -3.9835 H         1 <0>         0.1155
@<TRIPOS>BOND
     1    1    6 ar
     2    1    2 ar
     3    1   29 1
     4    2    3 ar
     5    2   30 1
     6    3    4 ar
     7    4    5 ar
     8    4    7 1
     9    5    6 ar
    10    6   31 1
    11    7   12 1
    12    7    8 1
    13    8    9 1
    14    8   32 1
    15    8   33 1
    16    9   10 1
    17    9   34 1
    18    9   35 1
    19   10   11 1
    20   10   13 1
    21   11   12 1
    22   11   36 1
    23   11   37 1
    24   12   38 1
    25   12   39 1
    26   13   14 1
    27   13   40 1
    28   13   41 1
    29   14   15 1
    30   14   42 1
    31   14   43 1
    32   15   16 1
    33   15   44 1
    34   15   45 1
    35   16   17 1
    36   16   46 1
    37   16   47 1
    38   17   27 am
    39   17   18 am
    40   18   19 2
    41   18   20 1
    42   20   21 1
    43   20   48 1
    44   20   49 1
    45   21   25 1
    46   21   22 1
    47   21   26 1
    48   22   23 1
    49   22   50 1
    50   22   51 1
    51   23   24 1
    52   23   52 1
    53   23   53 1
    54   24   25 1
    55   24   54 1
    56   24   55 1
    57   25   56 1
    58   25   57 1
    59   26   27 1
    60   26   58 1
    61   26   59 1
    62   27   28 2
@<TRIPOS>MOLECULE
ZINC13731513
   43    45     0     0     0
SMALL
USER_CHARGES
(1-benzyl-4-piperidyl)-(4-fluorophenyl)methanone
@<TRIPOS>ATOM
      1 C1         -9.0064    2.7155    5.1315 C.ar      1 <0>        -0.0836
      2 C2         -8.3496    3.7746    4.5335 C.ar      1 <0>        -0.1137
      3 C3         -7.9935    3.7027    3.1997 C.ar      1 <0>        -0.0976
      4 C4         -8.2947    2.5719    2.4639 C.ar      1 <0>        -0.1643
      5 C5         -8.9566    1.5151    3.0604 C.ar      1 <0>        -0.0939
      6 C6         -9.3076    1.5847    4.3957 C.ar      1 <0>        -0.1127
      7 C7         -7.9069    2.4938    1.0097 C.3       1 <0>         0.0492
      8 C8         -6.2448    1.6017   -0.5075 C.3       1 <0>         0.0001
      9 C9         -4.9034    0.8682   -0.5762 C.3       1 <0>        -0.1397
     10 C10        -3.8113    1.7538    0.0300 C.3       1 <0>        -0.1356
     11 C11        -4.1896    2.1047    1.4716 C.3       1 <0>        -0.1384
     12 C12        -5.5524    2.8010    1.4811 C.3       1 <0>        -0.0043
     13 C13        -2.4989    1.0131    0.0198 C.2       1 <0>         0.4062
     14 O1         -2.4871   -0.1996    0.0135 O.2       1 <0>        -0.4333
     15 C14        -1.2330    1.7606    0.0174 C.ar      1 <0>        -0.1961
     16 C15        -0.0126    1.0758    0.0080 C.ar      1 <0>        -0.0241
     17 C16         1.1699    1.7822    0.0005 C.ar      1 <0>        -0.1629
     18 C17         1.1529    3.1693    0.0071 C.ar      1 <0>         0.1459
     19 C18        -0.0534    3.8542    0.0218 C.ar      1 <0>        -0.1661
     20 C19        -1.2430    3.1599    0.0299 C.ar      1 <0>        -0.0464
     21 F1          2.3162    3.8562   -0.0012 F         1 <0>        -0.1245
     22 H1         -9.2840    2.7713    6.1737 H         1 <0>         0.1360
     23 H2         -8.1142    4.6581    5.1083 H         1 <0>         0.1362
     24 H3         -7.4803    4.5302    2.7324 H         1 <0>         0.1310
     25 H4         -9.1958    0.6334    2.4844 H         1 <0>         0.1315
     26 H5         -9.8205    0.7570    4.8630 H         1 <0>         0.1364
     27 H6         -7.9093    3.4949    0.5787 H         1 <0>         0.1374
     28 H7         -8.6215    1.8669    0.4763 H         1 <0>         0.1362
     29 H8         -6.1824    2.5270   -1.0803 H         1 <0>         0.1334
     30 H9         -7.0271    0.9681   -0.9254 H         1 <0>         0.1345
     31 H10        -4.6602    0.6511   -1.6163 H         1 <0>         0.1173
     32 H11        -4.9692   -0.0639   -0.0151 H         1 <0>         0.1008
     33 H12        -3.7251    2.5922   -0.5082 H         1 <0>         0.1049
     34 H13        -4.2439    1.1926    2.0659 H         1 <0>         0.0962
     35 H14        -3.4367    2.7704    1.8937 H         1 <0>         0.1196
     36 H15        -5.4933    3.7207    0.8990 H         1 <0>         0.1339
     37 H16        -5.8318    3.0385    2.5076 H         1 <0>         0.1349
     38 H17         0.0021   -0.0041    0.0020 H         1 <0>         0.1472
     39 H18         2.1124    1.2551   -0.0110 H         1 <0>         0.1491
     40 H19        -0.0598    4.9342    0.0273 H         1 <0>         0.1472
     41 H20        -2.1815    3.6943    0.0414 H         1 <0>         0.1386
     42 N1         -6.5634    1.8876    0.9077 N.4       1 <0>        -0.3944
     43 H21        -6.5540    1.0070    1.4356 H         1 <0>         0.4278
@<TRIPOS>BOND
     1    1    6 ar
     2    1    2 ar
     3    1   22 1
     4    2    3 ar
     5    2   23 1
     6    3    4 ar
     7    3   24 1
     8    4    5 ar
     9    4    7 1
    10    5    6 ar
    11    5   25 1
    12    6   26 1
    13    7   27 1
    14    7   28 1
    15    7   42 1
    16    8    9 1
    17    8   29 1
    18    8   30 1
    19    8   42 1
    20    9   10 1
    21    9   31 1
    22    9   32 1
    23   10   11 1
    24   10   13 1
    25   10   33 1
    26   11   12 1
    27   11   34 1
    28   11   35 1
    29   12   36 1
    30   12   37 1
    31   12   42 1
    32   13   14 2
    33   13   15 1
    34   15   20 ar
    35   15   16 ar
    36   16   17 ar
    37   16   38 1
    38   17   18 ar
    39   17   39 1
    40   18   19 ar
    41   18   21 1
    42   19   20 ar
    43   19   40 1
    44   20   41 1
    45   42   43 1
@<TRIPOS>MOLECULE
ZINC01679511
   34    35     0     0     0
SMALL
USER_CHARGES
4-benzyl-1-methyl-piperidine
@<TRIPOS>ATOM
      1 C1          0.0021   -0.0041    0.0020 C.3       1 <0>        -0.0425
      2 C2         -0.8065    1.9866   -1.1134 C.3       1 <0>        -0.0015
      3 C3         -0.9267    3.5073   -0.9912 C.3       1 <0>        -0.1481
      4 C4          0.4734    4.1270   -0.9947 C.3       1 <0>        -0.0943
      5 C5          1.2898    3.5311    0.1555 C.3       1 <0>        -0.1451
      6 C6          1.3458    2.0096    0.0000 C.3       1 <0>        -0.0013
      7 C7          0.3638    5.6422   -0.8125 C.3       1 <0>        -0.0747
      8 C8         -0.3330    6.2426   -2.0062 C.ar      1 <0>        -0.0956
      9 C9          0.4042    6.6651   -3.0966 C.ar      1 <0>        -0.1160
     10 C10        -0.2354    7.2119   -4.1934 C.ar      1 <0>        -0.1138
     11 C11        -1.6113    7.3449   -4.1959 C.ar      1 <0>        -0.1160
     12 C12        -2.3481    6.9267   -3.1035 C.ar      1 <0>        -0.1162
     13 C13        -1.7089    6.3760   -2.0085 C.ar      1 <0>        -0.1215
     14 H1          0.5293   -0.3651    0.8851 H         1 <0>         0.1215
     15 H2         -1.0205   -0.3814    0.0098 H         1 <0>         0.1215
     16 H3          0.5123   -0.3556   -0.8948 H         1 <0>         0.1222
     17 H4         -0.3120    1.7356   -2.0518 H         1 <0>         0.1289
     18 H5         -1.8012    1.5411   -1.0968 H         1 <0>         0.1282
     19 H6         -1.4335    3.7586   -0.0594 H         1 <0>         0.0883
     20 H7         -1.4991    3.8965   -1.8332 H         1 <0>         0.1151
     21 H8          0.9660    3.9088   -1.9423 H         1 <0>         0.0902
     22 H9          0.8178    3.7827    1.1052 H         1 <0>         0.0892
     23 H10         2.3012    3.9367    0.1323 H         1 <0>         0.1128
     24 H11         1.9143    1.5809    0.8253 H         1 <0>         0.1289
     25 H12         1.8301    1.7587   -0.9437 H         1 <0>         0.1292
     26 H13        -0.2085    5.8592    0.0894 H         1 <0>         0.0783
     27 H14         1.3621    6.0703   -0.7212 H         1 <0>         0.0830
     28 H15         1.4795    6.5650   -3.0930 H         1 <0>         0.1216
     29 H16         0.3402    7.5382   -5.0470 H         1 <0>         0.1255
     30 H17        -2.1107    7.7751   -5.0514 H         1 <0>         0.1256
     31 H18        -3.4231    7.0306   -3.1054 H         1 <0>         0.1247
     32 H19        -2.2845    6.0497   -1.1549 H         1 <0>         0.1195
     33 N1         -0.0313    1.4727    0.0357 N.4       1 <0>        -0.3959
     34 H20        -0.4846    1.7761    0.9056 H         1 <0>         0.4282
@<TRIPOS>BOND
     1    1   14 1
     2    1   15 1
     3    1   16 1
     4    1   33 1
     5    2    3 1
     6    2   17 1
     7    2   18 1
     8    2   33 1
     9    3    4 1
    10    3   19 1
    11    3   20 1
    12    4    5 1
    13    4    7 1
    14    4   21 1
    15    5    6 1
    16    5   22 1
    17    5   23 1
    18    6   24 1
    19    6   25 1
    20    6   33 1
    21    7    8 1
    22    7   26 1
    23    7   27 1
    24    8   13 ar
    25    8    9 ar
    26    9   10 ar
    27    9   28 1
    28   10   11 ar
    29   10   29 1
    30   11   12 ar
    31   11   30 1
    32   12   13 ar
    33   12   31 1
    34   13   32 1
    35   33   34 1
@<TRIPOS>MOLECULE
ZINC01915508
   64    68     0     0     0
SMALL
USER_CHARGES
8-[4-[4-(9-thia-8-azabicyclo[4.3.0]nona-2,4,7,10-tetraen-7-yl)piperazin-1-yl]butyl]-8-azaspiro[4.5]decane-7,9-dione
@<TRIPOS>ATOM
      1 C1         -0.1854    3.0363    3.0585 C.ar      1 <0>        -0.1227
      2 C2          0.9702    2.2871    2.8731 C.ar      1 <0>        -0.0631
      3 C3          1.7797    2.5384    1.7969 C.ar      1 <0>        -0.0775
      4 C4          1.4398    3.5390    0.9109 C.ar      1 <0>        -0.1195
      5 C5          0.2738    4.3208    1.0775 C.ar      1 <0>        -0.1259
      6 C6         -0.5340    4.0311    2.1987 C.ar      1 <0>        -0.0351
      7 C7          0.1089    5.3174    0.0302 C.2       1 <0>         0.2965
      8 N1          0.9929    5.4074   -0.9213 N.2       1 <0>        -0.4531
      9 S1          2.1517    4.2026   -0.5700 S.3       1 <0>         0.2239
     10 N2         -0.9928    6.1742    0.0458 N.pl3     1 <0>        -0.4740
     11 C8         -1.8260    5.9826   -1.1494 C.3       1 <0>         0.0288
     12 C9         -3.0618    6.8807   -1.0559 C.3       1 <0>         0.0019
     13 C10        -1.8041    8.4738    0.2628 C.3       1 <0>         0.0063
     14 C11        -0.5684    7.5757    0.1693 C.3       1 <0>         0.0281
     15 C12        -3.7969    9.1840   -0.9159 C.3       1 <0>        -0.0018
     16 C13        -4.4982    9.1379   -2.2750 C.3       1 <0>        -0.1459
     17 C14        -5.7059   10.0771   -2.2578 C.3       1 <0>        -0.1286
     18 C15        -6.4072   10.0310   -3.6168 C.3       1 <0>         0.0907
     19 N3         -7.5636   10.9302   -3.6003 N.am      1 <0>        -0.5674
     20 C16        -8.7518   10.4404   -3.2171 C.2       1 <0>         0.5275
     21 O1         -8.8357    9.2783   -2.8824 O.2       1 <0>        -0.4991
     22 C17        -9.9833   11.3079   -3.1892 C.3       1 <0>        -0.1340
     23 C18        -9.5725   12.7603   -2.9521 C.3       1 <0>        -0.0662
     24 C19       -10.8015   13.6767   -3.0258 C.3       1 <0>        -0.1145
     25 C20       -10.9201   14.3606   -1.6469 C.3       1 <0>        -0.1263
     26 C21        -9.4840   14.3020   -1.0687 C.3       1 <0>        -0.1244
     27 C22        -8.9806   12.9141   -1.5400 C.3       1 <0>        -0.1218
     28 C23        -8.5400   13.1786   -3.9978 C.3       1 <0>        -0.1329
     29 C24        -7.3893   12.2063   -3.9743 C.2       1 <0>         0.5269
     30 O2         -6.2846   12.5847   -4.3000 O.2       1 <0>        -0.4987
     31 H1         -0.8189    2.8271    3.9078 H         1 <0>         0.1379
     32 H2          1.2271    1.5059    3.5731 H         1 <0>         0.1446
     33 H3          2.6772    1.9577    1.6438 H         1 <0>         0.1426
     34 H4         -1.4362    4.5989    2.3719 H         1 <0>         0.1355
     35 H5         -1.2524    6.2448   -2.0384 H         1 <0>         0.0752
     36 H6         -2.1380    4.9401   -1.2119 H         1 <0>         0.1258
     37 H7         -3.6497    6.6005   -0.1819 H         1 <0>         0.1430
     38 H8         -3.6669    6.7619   -1.9547 H         1 <0>         0.1398
     39 H9         -2.3778    8.2117    1.1518 H         1 <0>         0.1425
     40 H10        -1.4921    9.5163    0.3257 H         1 <0>         0.1394
     41 H11         0.0365    7.6946    1.0683 H         1 <0>         0.1260
     42 H12         0.0195    7.8560   -0.7047 H         1 <0>         0.0753
     43 H13        -4.4917    8.8682   -0.1377 H         1 <0>         0.1343
     44 H14        -3.4629   10.2016   -0.7137 H         1 <0>         0.1317
     45 H15        -3.8034    9.4537   -3.0532 H         1 <0>         0.0910
     46 H16        -4.8321    8.1202   -2.4772 H         1 <0>         0.0910
     47 H17        -6.4007    9.7613   -1.4795 H         1 <0>         0.0800
     48 H18        -5.3719   11.0947   -2.0556 H         1 <0>         0.0795
     49 H19        -5.7124   10.3468   -4.3951 H         1 <0>         0.0985
     50 H20        -6.7411    9.0133   -3.8190 H         1 <0>         0.0987
     51 H21       -10.6438   10.9805   -2.3863 H         1 <0>         0.1190
     52 H22       -10.5031   11.2276   -4.1439 H         1 <0>         0.1155
     53 H23       -10.6624   14.4268   -3.8044 H         1 <0>         0.0769
     54 H24       -11.6956   13.0875   -3.2291 H         1 <0>         0.0769
     55 H25       -11.6116   13.8121   -1.0073 H         1 <0>         0.0700
     56 H26       -11.2444   15.3952   -1.7587 H         1 <0>         0.0725
     57 H27        -9.5035   14.3564    0.0198 H         1 <0>         0.0709
     58 H28        -8.8653   15.0981   -1.4826 H         1 <0>         0.0705
     59 H29        -9.3535   12.1291   -0.8821 H         1 <0>         0.0742
     60 H30        -7.8914   12.8959   -1.5784 H         1 <0>         0.0612
     61 H31        -8.1754   14.1800   -3.7693 H         1 <0>         0.1185
     62 H32        -9.0001   13.1744   -4.9859 H         1 <0>         0.1158
     63 N4         -2.6214    8.2879   -0.9547 N.4       1 <0>        -0.3991
     64 H33        -2.0524    8.5196   -1.7774 H         1 <0>         0.4266
@<TRIPOS>BOND
     1    1    6 ar
     2    1    2 ar
     3    1   31 1
     4    2    3 ar
     5    2   32 1
     6    3    4 ar
     7    3   33 1
     8    4    9 1
     9    4    5 ar
    10    5    6 ar
    11    5    7 1
    12    6   34 1
    13    7    8 2
    14    7   10 1
    15    8    9 1
    16   10   14 1
    17   10   11 1
    18   11   12 1
    19   11   35 1
    20   11   36 1
    21   12   37 1
    22   12   38 1
    23   12   63 1
    24   13   14 1
    25   13   39 1
    26   13   40 1
    27   13   63 1
    28   14   41 1
    29   14   42 1
    30   15   16 1
    31   15   43 1
    32   15   44 1
    33   15   63 1
    34   16   17 1
    35   16   45 1
    36   16   46 1
    37   17   18 1
    38   17   47 1
    39   17   48 1
    40   18   19 1
    41   18   49 1
    42   18   50 1
    43   19   29 am
    44   19   20 am
    45   20   21 2
    46   20   22 1
    47   22   23 1
    48   22   51 1
    49   22   52 1
    50   23   27 1
    51   23   24 1
    52   23   28 1
    53   24   25 1
    54   24   53 1
    55   24   54 1
    56   25   26 1
    57   25   55 1
    58   25   56 1
    59   26   27 1
    60   26   57 1
    61   26   58 1
    62   27   59 1
    63   27   60 1
    64   28   29 1
    65   28   61 1
    66   28   62 1
    67   29   30 2
    68   63   64 1
@<TRIPOS>MOLECULE
ZINC02512916
   31    32     0     0     0
SMALL
USER_CHARGES
4-[(4-fluorophenyl)methyl]piperidine
@<TRIPOS>ATOM
      1 C1         -1.0249    2.0328    4.3658 C.ar      1 <0>        -0.0910
      2 C2         -0.3277    1.6909    5.5090 C.ar      1 <0>        -0.1513
      3 C3          0.6125    2.5622    6.0324 C.ar      1 <0>         0.1053
      4 C4          0.8575    3.7725    5.4060 C.ar      1 <0>        -0.1489
      5 C5          0.1635    4.1095    4.2595 C.ar      1 <0>        -0.0849
      6 C6         -0.7754    3.2390    3.7381 C.ar      1 <0>        -0.1079
      7 C7         -1.5319    3.6079    2.4881 C.3       1 <0>        -0.0735
      8 C8         -0.7644    3.1099    1.2618 C.3       1 <0>        -0.0962
      9 C9         -0.7286    1.5791    1.2674 C.3       1 <0>        -0.1492
     10 C10        -0.0127    1.0858    0.0080 C.3       1 <0>        -0.0028
     11 C11        -0.7289    3.0396   -1.2338 C.3       1 <0>        -0.0026
     12 C12        -1.4660    3.5913   -0.0113 C.3       1 <0>        -0.1449
     13 F1          1.2901    2.2319    7.1535 F         1 <0>        -0.1336
     14 H1         -1.7620    1.3556    3.9603 H         1 <0>         0.1308
     15 H2         -0.5194    0.7465    5.9965 H         1 <0>         0.1387
     16 H3          1.5904    4.4531    5.8136 H         1 <0>         0.1396
     17 H4          0.3544    5.0535    3.7708 H         1 <0>         0.1331
     18 H5         -1.6388    4.6913    2.4345 H         1 <0>         0.0856
     19 H6         -2.5190    3.1461    2.5111 H         1 <0>         0.0808
     20 H7          0.2538    3.4983    1.2857 H         1 <0>         0.0913
     21 H8         -1.7471    1.1912    1.2827 H         1 <0>         0.0897
     22 H9         -0.1928    1.2311    2.1505 H         1 <0>         0.1143
     23 H10         0.0021   -0.0041    0.0020 H         1 <0>         0.1318
     24 H11         1.0099    1.4629    0.0003 H         1 <0>         0.1291
     25 H12         0.2971    3.4074   -1.2358 H         1 <0>         0.1293
     26 H13        -1.2345    3.3688   -2.1416 H         1 <0>         0.1322
     27 H14        -1.4570    4.6808   -0.0419 H         1 <0>         0.1131
     28 H15        -2.4961    3.2350   -0.0160 H         1 <0>         0.0901
     29 N1         -0.7276    1.5649   -1.1903 N.4       1 <0>        -0.5166
     30 H16        -1.6967    1.2265   -1.1639 H         1 <0>         0.4321
     31 H17        -0.2612    1.2022   -2.0300 H         1 <0>         0.4362
@<TRIPOS>BOND
     1    1    6 ar
     2    1    2 ar
     3    1   14 1
     4    2    3 ar
     5    2   15 1
     6    3    4 ar
     7    3   13 1
     8    4    5 ar
     9    4   16 1
    10    5    6 ar
    11    5   17 1
    12    6    7 1
    13    7    8 1
    14    7   18 1
    15    7   19 1
    16    8   12 1
    17    8    9 1
    18    8   20 1
    19    9   10 1
    20    9   21 1
    21    9   22 1
    22   10   23 1
    23   10   24 1
    24   10   29 1
    25   11   12 1
    26   11   25 1
    27   11   26 1
    28   11   29 1
    29   12   27 1
    30   12   28 1
    31   29   30 1
    32   29   31 1
@<TRIPOS>MOLECULE
ZINC05998832
   51    53     0     0     0
SMALL
USER_CHARGES
4-amino-5-chloro-N-[1-[(4-fluorophenyl)methyl]-4-piperidyl]-2-methoxy-benzamide
@<TRIPOS>ATOM
      1 C1          1.3159   -4.9468   -5.9419 C.3       1 <0>         0.0173
      2 O1          1.1885   -4.1554   -4.7589 O.3       1 <0>        -0.2772
      3 C2          1.1359   -4.8188   -3.5766 C.ar      1 <0>         0.2479
      4 C3          1.2113   -6.2006   -3.5506 C.ar      1 <0>        -0.2977
      5 C4          1.1508   -6.8746   -2.3376 C.ar      1 <0>         0.3045
      6 C5          1.0210   -6.1635   -1.1449 C.ar      1 <0>        -0.1595
      7 C6          0.9519   -4.7999   -1.1592 C.ar      1 <0>         0.0119
      8 C7          1.0112   -4.1070   -2.3735 C.ar      1 <0>        -0.2395
      9 C8          0.9368   -2.6368   -2.3894 C.2       1 <0>         0.5779
     10 O2          0.9885   -2.0367   -3.4461 O.2       1 <0>        -0.5149
     11 N1          0.8115   -1.9558   -1.2331 N.am      1 <0>        -0.7351
     12 C9          0.7375   -0.4928   -1.2489 C.3       1 <0>         0.1401
     13 C10         0.0021   -0.0041    0.0020 C.3       1 <0>        -0.1580
     14 C11        -0.0187    1.5261    0.0104 C.3       1 <0>         0.0041
     15 C12         2.0699    1.6185   -1.2150 C.3       1 <0>        -0.0031
     16 C13         2.1530    0.0910   -1.2600 C.3       1 <0>        -0.1607
     17 C14         1.3803    3.4971    0.1472 C.3       1 <0>         0.0509
     18 C15         2.7964    3.9577    0.3783 C.ar      1 <0>        -0.1775
     19 C16         3.2887    4.0576    1.6662 C.ar      1 <0>        -0.0620
     20 C17         4.5888    4.4752    1.8792 C.ar      1 <0>        -0.1512
     21 C18         5.3949    4.8038    0.8025 C.ar      1 <0>         0.1402
     22 C19         4.8990    4.7085   -0.4868 C.ar      1 <0>        -0.1510
     23 C20         3.6003    4.2855   -0.6975 C.ar      1 <0>        -0.0644
     24 F1          6.6645    5.2167    1.0096 F         1 <0>        -0.1222
     25 Cl1         0.9463   -7.0162    0.3654 Cl        1 <0>        -0.0604
     26 N2          1.2203   -8.2639   -2.3123 N.pl3     1 <0>        -0.8497
     27 H1          0.4628   -5.6206   -6.0218 H         1 <0>         0.0611
     28 H2          1.3463   -4.2941   -6.8142 H         1 <0>         0.1075
     29 H3          2.2357   -5.5295   -5.8919 H         1 <0>         0.0608
     30 H4          1.3122   -6.7541   -4.4724 H         1 <0>         0.1459
     31 H5          0.8511   -4.2553   -0.2320 H         1 <0>         0.1381
     32 H6          0.7703   -2.4345   -0.3904 H         1 <0>         0.4022
     33 H7          0.2008   -0.1639   -2.1388 H         1 <0>         0.1060
     34 H8          0.5174   -0.3659    0.8918 H         1 <0>         0.0939
     35 H9         -1.0203   -0.3818   -0.0060 H         1 <0>         0.1205
     36 H10        -0.5461    1.8871   -0.8725 H         1 <0>         0.1354
     37 H11        -0.5291    1.8775    0.9071 H         1 <0>         0.1349
     38 H12         3.0763    2.0369   -1.2084 H         1 <0>         0.1306
     39 H13         1.5326    1.9790   -2.0923 H         1 <0>         0.1344
     40 H14         2.7021   -0.2693   -0.3901 H         1 <0>         0.0891
     41 H15         2.6673   -0.2188   -2.1698 H         1 <0>         0.1176
     42 H16         0.9913    3.9595   -0.7600 H         1 <0>         0.1397
     43 H17         0.7611    3.7860    0.9965 H         1 <0>         0.1381
     44 H18         2.6585    3.8052    2.5061 H         1 <0>         0.1424
     45 H19         4.9745    4.5492    2.8852 H         1 <0>         0.1495
     46 H20         5.5270    4.9642   -1.3274 H         1 <0>         0.1498
     47 H21         3.2135    4.2107   -1.7031 H         1 <0>         0.1427
     48 H22         1.1784   -8.7362   -1.4661 H         1 <0>         0.4090
     49 H23         1.3105   -8.7601   -3.1408 H         1 <0>         0.4092
     50 N3          1.3729    2.0248    0.0240 N.4       1 <0>        -0.3951
     51 H24         1.8637    1.6203    0.8301 H         1 <0>         0.4262
@<TRIPOS>BOND
     1    1    2 1
     2    1   27 1
     3    1   28 1
     4    1   29 1
     5    2    3 1
     6    3    8 ar
     7    3    4 ar
     8    4    5 ar
     9    4   30 1
    10    5    6 ar
    11    5   26 1
    12    6    7 ar
    13    6   25 1
    14    7    8 ar
    15    7   31 1
    16    8    9 1
    17    9   10 2
    18    9   11 am
    19   11   12 1
    20   11   32 1
    21   12   16 1
    22   12   13 1
    23   12   33 1
    24   13   14 1
    25   13   34 1
    26   13   35 1
    27   14   36 1
    28   14   37 1
    29   14   50 1
    30   15   16 1
    31   15   38 1
    32   15   39 1
    33   15   50 1
    34   16   40 1
    35   16   41 1
    36   17   18 1
    37   17   42 1
    38   17   43 1
    39   17   50 1
    40   18   23 ar
    41   18   19 ar
    42   19   20 ar
    43   19   44 1
    44   20   21 ar
    45   20   45 1
    46   21   22 ar
    47   21   24 1
    48   22   23 ar
    49   22   46 1
    50   23   47 1
    51   26   48 1
    52   26   49 1
    53   50   51 1
@<TRIPOS>MOLECULE
ZINC22463345
   54    57     0     0     0
SMALL
USER_CHARGES
2-[4-[(1R,3S)-3-(4-fluorophenyl)-6-(trifluoromethyl)indan-1-yl]piperazin-1-yl]ethanol
@<TRIPOS>ATOM
      1 C1         -0.4317   -7.2518   -3.5141 C.ar      1 <0>        -0.0795
      2 C2         -0.2506   -8.3222   -4.3693 C.ar      1 <0>        -0.1489
      3 C3         -0.4902   -8.1728   -5.7248 C.ar      1 <0>         0.1151
      4 C4         -0.9167   -6.9525   -6.2210 C.ar      1 <0>        -0.1491
      5 C5         -1.1029   -5.8853   -5.3630 C.ar      1 <0>        -0.0776
      6 C6         -0.8630   -6.0355   -4.0098 C.ar      1 <0>        -0.1134
      7 C7         -1.0660   -4.8708   -3.0753 C.3       1 <0>        -0.0239
      8 H1         -1.4064   -4.0308   -3.6986 H         1 <0>         0.1155
      9 C8          0.2397   -4.5683   -2.3046 C.3       1 <0>        -0.1302
     10 C9         -0.2897   -4.1132   -0.9280 C.3       1 <0>         0.0949
     11 H2          0.3887   -4.3445   -0.0935 H         1 <0>         0.1442
     12 C10        -1.6365   -4.7872   -0.7764 C.ar      1 <0>        -0.1605
     13 C11        -2.0826   -5.2228   -2.0105 C.ar      1 <0>        -0.0272
     14 C12        -3.3011   -5.8720   -2.1130 C.ar      1 <0>        -0.0928
     15 C13        -4.0718   -6.0859   -0.9866 C.ar      1 <0>        -0.0339
     16 C14        -3.6260   -5.6504    0.2470 C.ar      1 <0>        -0.1742
     17 C15        -2.4105   -5.0021    0.3513 C.ar      1 <0>        -0.0334
     18 C16        -4.4649   -5.8826    1.4772 C.3       1 <0>         0.5081
     19 F1         -5.6404   -6.5520    1.1204 F         1 <0>        -0.1687
     20 F2         -3.7457   -6.6587    2.3924 F         1 <0>        -0.1698
     21 F3         -4.7874   -4.6527    2.0607 F         1 <0>        -0.1732
     22 N1         -0.4445   -2.6526   -0.8989 N.4       1 <0>        -0.4018
     23 C17        -1.1751   -2.2243    0.3021 C.3       1 <0>        -0.0047
     24 C18        -1.3844   -0.7089    0.2552 C.3       1 <0>         0.0249
     25 N2         -0.0792   -0.0391    0.1695 N.3       1 <0>        -0.5286
     26 C19         0.6515   -0.4675   -1.0315 C.3       1 <0>         0.0269
     27 C20         0.8608   -1.9829   -0.9846 C.3       1 <0>        -0.0015
     28 C21        -0.2340    1.4214    0.1986 C.3       1 <0>         0.0527
     29 C22        -0.5431    1.8731    1.6274 C.3       1 <0>         0.0888
     30 O1          0.5720    1.5796    2.4715 O.3       1 <0>        -0.5933
     31 F4         -0.3074   -9.2167   -6.5627 F         1 <0>        -0.1307
     32 H3         -0.2400   -7.3667   -2.4574 H         1 <0>         0.1306
     33 H4          0.0824   -9.2734   -3.9812 H         1 <0>         0.1411
     34 H5         -1.1035   -6.8347   -7.2782 H         1 <0>         0.1423
     35 H6         -1.4356   -4.9334   -5.7498 H         1 <0>         0.1352
     36 H7          0.8519   -5.4804   -2.2483 H         1 <0>         0.1277
     37 H8          0.8014   -3.7815   -2.8294 H         1 <0>         0.1103
     38 H9         -3.6501   -6.2126   -3.0766 H         1 <0>         0.1466
     39 H10        -5.0219   -6.5926   -1.0699 H         1 <0>         0.1549
     40 H11        -2.0628   -4.6621    1.3156 H         1 <0>         0.1428
     41 H12        -2.1516   -2.7294    0.3368 H         1 <0>         0.1337
     42 H13        -0.5940   -2.4877    1.1982 H         1 <0>         0.1375
     43 H14        -1.9893   -0.4494   -0.6261 H         1 <0>         0.0595
     44 H15        -1.9060   -0.3824    1.1670 H         1 <0>         0.1226
     45 H16         0.0704   -0.2042   -1.9276 H         1 <0>         0.0592
     46 H17         1.6281    0.0376   -1.0662 H         1 <0>         0.1254
     47 H18         1.4652   -2.2435   -0.1032 H         1 <0>         0.1390
     48 H19         1.3818   -2.3105   -1.8963 H         1 <0>         0.1377
     49 H20         0.6980    1.8958   -0.1424 H         1 <0>         0.0946
     50 H21        -1.0597    1.7159   -0.4658 H         1 <0>         0.0631
     51 H22        -0.7346    2.9563    1.6362 H         1 <0>         0.0538
     52 H23        -1.4322    1.3406    1.9961 H         1 <0>         0.0407
     53 H24         0.5342    1.8341    3.5410 H         1 <0>         0.4149
     54 H25        -1.0355   -2.3588   -1.7789 H         1 <0>         0.4323
@<TRIPOS>BOND
     1    1    6 ar
     2    1    2 ar
     3    1   32 1
     4    2    3 ar
     5    2   33 1
     6    3    4 ar
     7    3   31 1
     8    4    5 ar
     9    4   34 1
    10    5    6 ar
    11    5   35 1
    12    6    7 1
    13    7    8 1
    14    7   13 1
    15    7    9 1
    16    9   10 1
    17    9   36 1
    18    9   37 1
    19   10   11 1
    20   10   12 1
    21   10   22 1
    22   12   17 ar
    23   12   13 ar
    24   13   14 ar
    25   14   15 ar
    26   14   38 1
    27   15   16 ar
    28   15   39 1
    29   16   17 ar
    30   16   18 1
    31   17   40 1
    32   18   19 1
    33   18   20 1
    34   18   21 1
    35   22   27 1
    36   22   23 1
    37   22   54 1
    38   23   24 1
    39   23   41 1
    40   23   42 1
    41   24   25 1
    42   24   43 1
    43   24   44 1
    44   25   26 1
    45   25   28 1
    46   26   27 1
    47   26   45 1
    48   26   46 1
    49   27   47 1
    50   27   48 1
    51   28   29 1
    52   28   49 1
    53   28   50 1
    54   29   30 1
    55   29   51 1
    56   29   52 1
    57   30   53 1
@<TRIPOS>MOLECULE
ZINC22463345
   53    56     0     0     0
SMALL
USER_CHARGES
2-[4-[(1R,3S)-3-(4-fluorophenyl)-6-(trifluoromethyl)indan-1-yl]piperazin-1-yl]ethanol
@<TRIPOS>ATOM
      1 C1         -0.4317   -7.2518   -3.5141 C.ar      1 <0>        -0.0804
      2 C2         -0.2506   -8.3222   -4.3693 C.ar      1 <0>        -0.1507
      3 C3         -0.4902   -8.1728   -5.7248 C.ar      1 <0>         0.0982
      4 C4         -0.9167   -6.9525   -6.2210 C.ar      1 <0>        -0.1513
      5 C5         -1.1029   -5.8853   -5.3630 C.ar      1 <0>        -0.0833
      6 C6         -0.8630   -6.0355   -4.0098 C.ar      1 <0>        -0.0940
      7 C7         -1.0660   -4.8708   -3.0753 C.3       1 <0>        -0.0064
      8 H1         -1.4064   -4.0308   -3.6986 H         1 <0>         0.1064
      9 C8          0.2397   -4.5683   -2.3046 C.3       1 <0>        -0.1017
     10 C9         -0.2897   -4.1132   -0.9280 C.3       1 <0>         0.1294
     11 H2          0.3887   -4.3445   -0.0935 H         1 <0>         0.0598
     12 C10        -1.6365   -4.7872   -0.7764 C.ar      1 <0>        -0.0880
     13 C11        -2.0826   -5.2228   -2.0105 C.ar      1 <0>        -0.0359
     14 C12        -3.3011   -5.8720   -2.1130 C.ar      1 <0>        -0.1021
     15 C13        -4.0718   -6.0859   -0.9866 C.ar      1 <0>        -0.0650
     16 C14        -3.6260   -5.6504    0.2470 C.ar      1 <0>        -0.1829
     17 C15        -2.4105   -5.0021    0.3513 C.ar      1 <0>        -0.0510
     18 C16        -4.4649   -5.8826    1.4772 C.3       1 <0>         0.5095
     19 F1         -5.6404   -6.5520    1.1204 F         1 <0>        -0.1760
     20 F2         -3.7457   -6.6587    2.3924 F         1 <0>        -0.1760
     21 F3         -4.7874   -4.6527    2.0607 F         1 <0>        -0.1761
     22 N1         -0.4445   -2.6526   -0.8989 N.3       1 <0>        -0.5345
     23 C17        -1.1751   -2.2243    0.3021 C.3       1 <0>         0.0530
     24 C18        -1.3844   -0.7089    0.2552 C.3       1 <0>         0.0562
     25 N2         -0.0792   -0.0391    0.1695 N.3       1 <0>        -0.5290
     26 C19         0.6515   -0.4675   -1.0315 C.3       1 <0>         0.0579
     27 C20         0.8608   -1.9829   -0.9846 C.3       1 <0>         0.0559
     28 C21        -0.2340    1.4214    0.1986 C.3       1 <0>         0.0531
     29 C22        -0.5431    1.8731    1.6274 C.3       1 <0>         0.0918
     30 O1          0.5720    1.5796    2.4715 O.3       1 <0>        -0.5880
     31 F4         -0.3074   -9.2167   -6.5627 F         1 <0>        -0.1391
     32 H3         -0.2400   -7.3667   -2.4574 H         1 <0>         0.1309
     33 H4          0.0824   -9.2734   -3.9812 H         1 <0>         0.1358
     34 H5         -1.1035   -6.8347   -7.2782 H         1 <0>         0.1365
     35 H6         -1.4356   -4.9334   -5.7498 H         1 <0>         0.1338
     36 H7          0.8519   -5.4804   -2.2483 H         1 <0>         0.0858
     37 H8          0.8014   -3.7815   -2.8294 H         1 <0>         0.0919
     38 H9         -3.6501   -6.2126   -3.0766 H         1 <0>         0.1333
     39 H10        -5.0219   -6.5926   -1.0699 H         1 <0>         0.1415
     40 H11        -2.0628   -4.6621    1.3156 H         1 <0>         0.1310
     41 H12        -2.1516   -2.7294    0.3368 H         1 <0>         0.0835
     42 H13        -0.5940   -2.4877    1.1982 H         1 <0>         0.0442
     43 H14        -1.9893   -0.4494   -0.6261 H         1 <0>         0.0417
     44 H15        -1.9060   -0.3824    1.1670 H         1 <0>         0.0789
     45 H16         0.0704   -0.2042   -1.9276 H         1 <0>         0.0417
     46 H17         1.6281    0.0376   -1.0662 H         1 <0>         0.0814
     47 H18         1.4652   -2.2435   -0.1032 H         1 <0>         0.0460
     48 H19         1.3818   -2.3105   -1.8963 H         1 <0>         0.0843
     49 H20         0.6980    1.8958   -0.1424 H         1 <0>         0.0811
     50 H21        -1.0597    1.7159   -0.4658 H         1 <0>         0.0514
     51 H22        -0.7346    2.9563    1.6362 H         1 <0>         0.0432
     52 H23        -1.4322    1.3406    1.9961 H         1 <0>         0.0398
     53 H24         0.5342    1.8341    3.5410 H         1 <0>         0.4028
@<TRIPOS>BOND
     1    1    6 ar
     2    1    2 ar
     3    1   32 1
     4    2    3 ar
     5    2   33 1
     6    3    4 ar
     7    3   31 1
     8    4    5 ar
     9    4   34 1
    10    5    6 ar
    11    5   35 1
    12    6    7 1
    13    7    8 1
    14    7   13 1
    15    7    9 1
    16    9   10 1
    17    9   36 1
    18    9   37 1
    19   10   11 1
    20   10   12 1
    21   10   22 1
    22   12   17 ar
    23   12   13 ar
    24   13   14 ar
    25   14   15 ar
    26   14   38 1
    27   15   16 ar
    28   15   39 1
    29   16   17 ar
    30   16   18 1
    31   17   40 1
    32   18   19 1
    33   18   20 1
    34   18   21 1
    35   22   27 1
    36   22   23 1
    37   23   24 1
    38   23   41 1
    39   23   42 1
    40   24   25 1
    41   24   43 1
    42   24   44 1
    43   25   26 1
    44   25   28 1
    45   26   27 1
    46   26   45 1
    47   26   46 1
    48   27   47 1
    49   27   48 1
    50   28   29 1
    51   28   49 1
    52   28   50 1
    53   29   30 1
    54   29   51 1
    55   29   52 1
    56   30   53 1
@<TRIPOS>MOLECULE
ZINC22937852
   54    57     0     0     0
SMALL
USER_CHARGES
2-[4-[(1S,3S)-3-(4-fluorophenyl)-6-(trifluoromethyl)indan-1-yl]piperazin-1-yl]ethanol
@<TRIPOS>ATOM
      1 C1         -0.6994    2.2254   -1.0171 C.ar      1 <0>        -0.0841
      2 C2         -0.6562    3.5975   -1.1765 C.ar      1 <0>        -0.1493
      3 C3          0.5578    4.2329   -1.3756 C.ar      1 <0>         0.1140
      4 C4          1.7277    3.4932   -1.4094 C.ar      1 <0>        -0.1465
      5 C5          1.6826    2.1218   -1.2445 C.ar      1 <0>        -0.0752
      6 C6          0.4699    1.4885   -1.0458 C.ar      1 <0>        -0.1121
      7 C7          0.4219   -0.0070   -0.8665 C.3       1 <0>        -0.0110
      8 H1          1.4622   -0.3591   -0.9285 H         1 <0>         0.1232
      9 C8         -0.4986   -0.6445   -1.9289 C.3       1 <0>        -0.1345
     10 C9         -1.1351   -1.8181   -1.1545 C.3       1 <0>         0.1001
     11 H2         -0.6347   -2.7832   -1.3221 H         1 <0>         0.1522
     12 C10        -1.1030   -1.3974    0.2992 C.ar      1 <0>        -0.1590
     13 C11        -0.2081   -0.3565    0.4647 C.ar      1 <0>        -0.0217
     14 C12        -0.0135    0.1918    1.7210 C.ar      1 <0>        -0.0897
     15 C13        -0.7104   -0.2977    2.8088 C.ar      1 <0>        -0.0385
     16 C14        -1.6050   -1.3382    2.6433 C.ar      1 <0>        -0.1702
     17 C15        -1.8005   -1.8866    1.3905 C.ar      1 <0>        -0.0468
     18 C16        -2.3667   -1.8736    3.8283 C.3       1 <0>         0.5081
     19 F1         -2.0017   -1.1633    4.9769 F         1 <0>        -0.1682
     20 F2         -3.7399   -1.7260    3.6053 F         1 <0>        -0.1739
     21 F3         -2.0656   -3.2287    4.0026 F         1 <0>        -0.1708
     22 N1         -2.5210   -2.0290   -1.5936 N.4       1 <0>        -0.4042
     23 C17        -2.5661   -2.5157   -2.9795 C.3       1 <0>        -0.0003
     24 C18        -4.0185   -2.7979   -3.3712 C.3       1 <0>         0.0262
     25 N2         -4.8111   -1.5696   -3.2213 N.3       1 <0>        -0.5277
     26 C19        -4.7660   -1.0829   -1.8354 C.3       1 <0>         0.0246
     27 C20        -3.3137   -0.8006   -1.4437 C.3       1 <0>        -0.0083
     28 C21        -6.1970   -1.7805   -3.6604 C.3       1 <0>         0.0526
     29 C22        -6.8494   -0.4287   -3.9568 C.3       1 <0>         0.0890
     30 O1         -6.1670    0.2017   -5.0426 O.3       1 <0>        -0.5928
     31 F4          0.6007    5.5736   -1.5363 F         1 <0>        -0.1309
     32 H3         -1.6467    1.7291   -0.8659 H         1 <0>         0.1232
     33 H4         -1.5695    4.1735   -1.1499 H         1 <0>         0.1398
     34 H5          2.6752    3.9877   -1.5650 H         1 <0>         0.1432
     35 H6          2.5951    1.5447   -1.2705 H         1 <0>         0.1379
     36 H7         -1.2381    0.0969   -2.2657 H         1 <0>         0.1082
     37 H8          0.1055   -0.9755   -2.7865 H         1 <0>         0.1181
     38 H9          0.6851    1.0051    1.8510 H         1 <0>         0.1471
     39 H10        -0.5566    0.1324    3.7874 H         1 <0>         0.1546
     40 H11        -2.4999   -2.6994    1.2619 H         1 <0>         0.1355
     41 H12        -2.1462   -1.7516   -3.6503 H         1 <0>         0.1386
     42 H13        -1.9765   -3.4406   -3.0627 H         1 <0>         0.1384
     43 H14        -4.0572   -3.1350   -4.4176 H         1 <0>         0.1254
     44 H15        -4.4287   -3.5821   -2.7180 H         1 <0>         0.0597
     45 H16        -5.3556   -0.1580   -1.7522 H         1 <0>         0.1216
     46 H17        -5.1858   -1.8469   -1.1646 H         1 <0>         0.0600
     47 H18        -3.2739   -0.4640   -0.3972 H         1 <0>         0.1330
     48 H19        -2.9025   -0.0168   -2.0968 H         1 <0>         0.1383
     49 H20        -6.2033   -2.3981   -4.5706 H         1 <0>         0.0945
     50 H21        -6.7595   -2.2927   -2.8659 H         1 <0>         0.0634
     51 H22        -7.9047   -0.5822   -4.2266 H         1 <0>         0.0538
     52 H23        -6.7885    0.2114   -3.0643 H         1 <0>         0.0402
     53 H24        -6.4961    1.1885   -5.4003 H         1 <0>         0.4144
     54 H25        -2.9651   -2.8009   -0.9479 H         1 <0>         0.4369
@<TRIPOS>BOND
     1    1    6 ar
     2    1    2 ar
     3    1   32 1
     4    2    3 ar
     5    2   33 1
     6    3    4 ar
     7    3   31 1
     8    4    5 ar
     9    4   34 1
    10    5    6 ar
    11    5   35 1
    12    6    7 1
    13    7    8 1
    14    7   13 1
    15    7    9 1
    16    9   10 1
    17    9   36 1
    18    9   37 1
    19   10   11 1
    20   10   12 1
    21   10   22 1
    22   12   17 ar
    23   12   13 ar
    24   13   14 ar
    25   14   15 ar
    26   14   38 1
    27   15   16 ar
    28   15   39 1
    29   16   17 ar
    30   16   18 1
    31   17   40 1
    32   18   19 1
    33   18   20 1
    34   18   21 1
    35   22   27 1
    36   22   23 1
    37   22   54 1
    38   23   24 1
    39   23   41 1
    40   23   42 1
    41   24   25 1
    42   24   43 1
    43   24   44 1
    44   25   26 1
    45   25   28 1
    46   26   27 1
    47   26   45 1
    48   26   46 1
    49   27   47 1
    50   27   48 1
    51   28   29 1
    52   28   49 1
    53   28   50 1
    54   29   30 1
    55   29   51 1
    56   29   52 1
    57   30   53 1
@<TRIPOS>MOLECULE
ZINC22937852
   53    56     0     0     0
SMALL
USER_CHARGES
2-[4-[(1S,3S)-3-(4-fluorophenyl)-6-(trifluoromethyl)indan-1-yl]piperazin-1-yl]ethanol
@<TRIPOS>ATOM
      1 C1         -0.6994    2.2254   -1.0171 C.ar      1 <0>        -0.0792
      2 C2         -0.6562    3.5975   -1.1765 C.ar      1 <0>        -0.1500
      3 C3          0.5578    4.2329   -1.3756 C.ar      1 <0>         0.0989
      4 C4          1.7277    3.4932   -1.4094 C.ar      1 <0>        -0.1509
      5 C5          1.6826    2.1218   -1.2445 C.ar      1 <0>        -0.0841
      6 C6          0.4699    1.4885   -1.0458 C.ar      1 <0>        -0.0926
      7 C7          0.4219   -0.0070   -0.8665 C.3       1 <0>        -0.0117
      8 H1          1.4622   -0.3591   -0.9285 H         1 <0>         0.1049
      9 C8         -0.4986   -0.6445   -1.9289 C.3       1 <0>        -0.1444
     10 C9         -1.1351   -1.8181   -1.1545 C.3       1 <0>         0.1286
     11 H2         -0.6347   -2.7832   -1.3221 H         1 <0>         0.1076
     12 C10        -1.1030   -1.3974    0.2992 C.ar      1 <0>        -0.0850
     13 C11        -0.2081   -0.3565    0.4647 C.ar      1 <0>        -0.0520
     14 C12        -0.0135    0.1918    1.7210 C.ar      1 <0>        -0.1016
     15 C13        -0.7104   -0.2977    2.8088 C.ar      1 <0>        -0.0677
     16 C14        -1.6050   -1.3382    2.6433 C.ar      1 <0>        -0.1843
     17 C15        -1.8005   -1.8866    1.3905 C.ar      1 <0>        -0.0361
     18 C16        -2.3667   -1.8736    3.8283 C.3       1 <0>         0.5096
     19 F1         -2.0017   -1.1633    4.9769 F         1 <0>        -0.1770
     20 F2         -3.7399   -1.7260    3.6053 F         1 <0>        -0.1761
     21 F3         -2.0656   -3.2287    4.0026 F         1 <0>        -0.1758
     22 N1         -2.5210   -2.0290   -1.5936 N.3       1 <0>        -0.5312
     23 C17        -2.5661   -2.5157   -2.9795 C.3       1 <0>         0.0556
     24 C18        -4.0185   -2.7979   -3.3712 C.3       1 <0>         0.0566
     25 N2         -4.8111   -1.5696   -3.2213 N.3       1 <0>        -0.5277
     26 C19        -4.7660   -1.0829   -1.8354 C.3       1 <0>         0.0545
     27 C20        -3.3137   -0.8006   -1.4437 C.3       1 <0>         0.0510
     28 C21        -6.1970   -1.7805   -3.6604 C.3       1 <0>         0.0528
     29 C22        -6.8494   -0.4287   -3.9568 C.3       1 <0>         0.0921
     30 O1         -6.1670    0.2017   -5.0426 O.3       1 <0>        -0.5874
     31 F4          0.6007    5.5736   -1.5363 F         1 <0>        -0.1387
     32 H3         -1.6467    1.7291   -0.8659 H         1 <0>         0.1285
     33 H4         -1.5695    4.1735   -1.1499 H         1 <0>         0.1358
     34 H5          2.6752    3.9877   -1.5650 H         1 <0>         0.1369
     35 H6          2.5951    1.5447   -1.2705 H         1 <0>         0.1339
     36 H7         -1.2381    0.0969   -2.2657 H         1 <0>         0.0914
     37 H8          0.1055   -0.9755   -2.7865 H         1 <0>         0.0861
     38 H9          0.6851    1.0051    1.8510 H         1 <0>         0.1323
     39 H10        -0.5566    0.1324    3.7874 H         1 <0>         0.1406
     40 H11        -2.4999   -2.6994    1.2619 H         1 <0>         0.1364
     41 H12        -2.1462   -1.7516   -3.6503 H         1 <0>         0.0491
     42 H13        -1.9765   -3.4406   -3.0627 H         1 <0>         0.0822
     43 H14        -4.0572   -3.1350   -4.4176 H         1 <0>         0.0813
     44 H15        -4.4287   -3.5821   -2.7180 H         1 <0>         0.0418
     45 H16        -5.3556   -0.1580   -1.7522 H         1 <0>         0.0777
     46 H17        -5.1858   -1.8469   -1.1646 H         1 <0>         0.0416
     47 H18        -3.2739   -0.4640   -0.3972 H         1 <0>         0.0790
     48 H19        -2.9025   -0.0168   -2.0968 H         1 <0>         0.0498
     49 H20        -6.2033   -2.3981   -4.5706 H         1 <0>         0.0810
     50 H21        -6.7595   -2.2927   -2.8659 H         1 <0>         0.0516
     51 H22        -7.9047   -0.5822   -4.2266 H         1 <0>         0.0431
     52 H23        -6.7885    0.2114   -3.0643 H         1 <0>         0.0392
     53 H24        -6.4961    1.1885   -5.4003 H         1 <0>         0.4023
@<TRIPOS>BOND
     1    1    6 ar
     2    1    2 ar
     3    1   32 1
     4    2    3 ar
     5    2   33 1
     6    3    4 ar
     7    3   31 1
     8    4    5 ar
     9    4   34 1
    10    5    6 ar
    11    5   35 1
    12    6    7 1
    13    7    8 1
    14    7   13 1
    15    7    9 1
    16    9   10 1
    17    9   36 1
    18    9   37 1
    19   10   11 1
    20   10   12 1
    21   10   22 1
    22   12   17 ar
    23   12   13 ar
    24   13   14 ar
    25   14   15 ar
    26   14   38 1
    27   15   16 ar
    28   15   39 1
    29   16   17 ar
    30   16   18 1
    31   17   40 1
    32   18   19 1
    33   18   20 1
    34   18   21 1
    35   22   27 1
    36   22   23 1
    37   23   24 1
    38   23   41 1
    39   23   42 1
    40   24   25 1
    41   24   43 1
    42   24   44 1
    43   25   26 1
    44   25   28 1
    45   26   27 1
    46   26   45 1
    47   26   46 1
    48   27   47 1
    49   27   48 1
    50   28   29 1
    51   28   49 1
    52   28   50 1
    53   29   30 1
    54   29   51 1
    55   29   52 1
    56   30   53 1
@<TRIPOS>MOLECULE
ZINC22937855
   54    57     0     0     0
SMALL
USER_CHARGES
2-[4-[(1R,3R)-3-(4-fluorophenyl)-6-(trifluoromethyl)indan-1-yl]piperazin-1-yl]ethanol
@<TRIPOS>ATOM
      1 C1         -0.5753    4.7457    2.8158 C.ar      1 <0>        -0.0838
      2 C2         -0.9754    5.8159    3.5933 C.ar      1 <0>        -0.1492
      3 C3         -0.9811    5.7045    4.9734 C.ar      1 <0>         0.1141
      4 C4         -0.5917    4.5186    5.5727 C.ar      1 <0>        -0.1467
      5 C5         -0.1978    3.4477    4.7929 C.ar      1 <0>        -0.0754
      6 C6         -0.1921    3.5603    3.4151 C.ar      1 <0>        -0.1125
      7 C7          0.2381    2.3920    2.5660 C.3       1 <0>        -0.0108
      8 H1          0.4988    1.5825    3.2637 H         1 <0>         0.1230
      9 C8         -0.8842    2.0048    1.5797 C.3       1 <0>        -0.1340
     10 C9         -0.0906    1.5546    0.3348 C.3       1 <0>         0.1002
     11 H2          0.0480    0.4654    0.2673 H         1 <0>         0.1520
     12 C10         1.2251    2.2990    0.4131 C.ar      1 <0>        -0.1590
     13 C11         1.4140    2.7803    1.6954 C.ar      1 <0>        -0.0217
     14 C12         2.5586    3.4969    2.0009 C.ar      1 <0>        -0.0896
     15 C13         3.5116    3.7322    1.0289 C.ar      1 <0>        -0.0364
     16 C14         3.3228    3.2511   -0.2529 C.ar      1 <0>        -0.1702
     17 C15         2.1814    2.5358   -0.5597 C.ar      1 <0>        -0.0484
     18 C16         4.3612    3.5060   -1.3149 C.3       1 <0>         0.5081
     19 F1          4.0695    4.7050   -1.9740 F         1 <0>        -0.1709
     20 F2          5.6242    3.5963   -0.7199 F         1 <0>        -0.1677
     21 F3          4.3540    2.4535   -2.2364 F         1 <0>        -0.1743
     22 N1         -0.8113    1.9211   -0.8917 N.4       1 <0>        -0.4042
     23 C17        -1.0422    3.3711   -0.9535 C.3       1 <0>        -0.0090
     24 C18        -1.7226    3.7206   -2.2791 C.3       1 <0>         0.0284
     25 N2         -2.9895    2.9835   -2.3857 N.3       1 <0>        -0.5277
     26 C19        -2.7587    1.5335   -2.3238 C.3       1 <0>         0.0223
     27 C20        -2.0782    1.1840   -0.9982 C.3       1 <0>         0.0006
     28 C21        -3.7103    3.3500   -3.6121 C.3       1 <0>         0.0524
     29 C22        -5.1857    2.9711   -3.4691 C.3       1 <0>         0.0894
     30 O1         -5.7717    3.7295   -2.4091 O.3       1 <0>        -0.5930
     31 F4         -1.3659    6.7521    5.7346 F         1 <0>        -0.1308
     32 H3         -0.5659    4.8341    1.7395 H         1 <0>         0.1236
     33 H4         -1.2786    6.7405    3.1247 H         1 <0>         0.1401
     34 H5         -0.5954    4.4306    6.6491 H         1 <0>         0.1430
     35 H6          0.1060    2.5226    5.2602 H         1 <0>         0.1377
     36 H7         -1.4920    1.1976    2.0144 H         1 <0>         0.1178
     37 H8         -1.5214    2.8805    1.3871 H         1 <0>         0.1081
     38 H9          2.7070    3.8729    3.0024 H         1 <0>         0.1471
     39 H10         4.4035    4.2912    1.2705 H         1 <0>         0.1523
     40 H11         2.0344    2.1605   -1.5616 H         1 <0>         0.1375
     41 H12        -1.6885    3.6754   -0.1171 H         1 <0>         0.1380
     42 H13        -0.0796    3.8990   -0.8839 H         1 <0>         0.1335
     43 H14        -1.9221    4.8018   -2.3149 H         1 <0>         0.1236
     44 H15        -1.0635    3.4415   -3.1144 H         1 <0>         0.0594
     45 H16        -3.7213    1.0057   -2.3932 H         1 <0>         0.1233
     46 H17        -2.1125    1.2290   -3.1603 H         1 <0>         0.0603
     47 H18        -1.8777    0.1031   -0.9616 H         1 <0>         0.1379
     48 H19        -2.7363    1.4633   -0.1622 H         1 <0>         0.1382
     49 H20        -3.6245    4.4341   -3.7777 H         1 <0>         0.0941
     50 H21        -3.2750    2.8128   -4.4677 H         1 <0>         0.0635
     51 H22        -5.7128    3.1879   -4.4099 H         1 <0>         0.0537
     52 H23        -5.2683    1.8981   -3.2414 H         1 <0>         0.0406
     53 H24        -6.8335    3.5924   -2.1565 H         1 <0>         0.4145
     54 H25        -0.1818    1.6405   -1.7490 H         1 <0>         0.4372
@<TRIPOS>BOND
     1    1    6 ar
     2    1    2 ar
     3    1   32 1
     4    2    3 ar
     5    2   33 1
     6    3    4 ar
     7    3   31 1
     8    4    5 ar
     9    4   34 1
    10    5    6 ar
    11    5   35 1
    12    6    7 1
    13    7    8 1
    14    7   13 1
    15    7    9 1
    16    9   10 1
    17    9   36 1
    18    9   37 1
    19   10   11 1
    20   10   12 1
    21   10   22 1
    22   12   17 ar
    23   12   13 ar
    24   13   14 ar
    25   14   15 ar
    26   14   38 1
    27   15   16 ar
    28   15   39 1
    29   16   17 ar
    30   16   18 1
    31   17   40 1
    32   18   19 1
    33   18   20 1
    34   18   21 1
    35   22   27 1
    36   22   23 1
    37   22   54 1
    38   23   24 1
    39   23   41 1
    40   23   42 1
    41   24   25 1
    42   24   43 1
    43   24   44 1
    44   25   26 1
    45   25   28 1
    46   26   27 1
    47   26   45 1
    48   26   46 1
    49   27   47 1
    50   27   48 1
    51   28   29 1
    52   28   49 1
    53   28   50 1
    54   29   30 1
    55   29   51 1
    56   29   52 1
    57   30   53 1
@<TRIPOS>MOLECULE
ZINC22937855
   53    56     0     0     0
SMALL
USER_CHARGES
2-[4-[(1R,3R)-3-(4-fluorophenyl)-6-(trifluoromethyl)indan-1-yl]piperazin-1-yl]ethanol
@<TRIPOS>ATOM
      1 C1         -0.5753    4.7457    2.8158 C.ar      1 <0>        -0.0789
      2 C2         -0.9754    5.8159    3.5933 C.ar      1 <0>        -0.1497
      3 C3         -0.9811    5.7045    4.9734 C.ar      1 <0>         0.0990
      4 C4         -0.5917    4.5186    5.5727 C.ar      1 <0>        -0.1511
      5 C5         -0.1978    3.4477    4.7929 C.ar      1 <0>        -0.0844
      6 C6         -0.1921    3.5603    3.4151 C.ar      1 <0>        -0.0930
      7 C7          0.2381    2.3920    2.5660 C.3       1 <0>        -0.0116
      8 H1          0.4988    1.5825    3.2637 H         1 <0>         0.1049
      9 C8         -0.8842    2.0048    1.5797 C.3       1 <0>        -0.1437
     10 C9         -0.0906    1.5546    0.3348 C.3       1 <0>         0.1287
     11 H2          0.0480    0.4654    0.2673 H         1 <0>         0.1076
     12 C10         1.2251    2.2990    0.4131 C.ar      1 <0>        -0.0856
     13 C11         1.4140    2.7803    1.6954 C.ar      1 <0>        -0.0519
     14 C12         2.5586    3.4969    2.0009 C.ar      1 <0>        -0.1014
     15 C13         3.5116    3.7322    1.0289 C.ar      1 <0>        -0.0654
     16 C14         3.3228    3.2511   -0.2529 C.ar      1 <0>        -0.1841
     17 C15         2.1814    2.5358   -0.5597 C.ar      1 <0>        -0.0382
     18 C16         4.3612    3.5060   -1.3149 C.3       1 <0>         0.5095
     19 F1          4.0695    4.7050   -1.9740 F         1 <0>        -0.1762
     20 F2          5.6242    3.5963   -0.7199 F         1 <0>        -0.1767
     21 F3          4.3540    2.4535   -2.2364 F         1 <0>        -0.1760
     22 N1         -0.8113    1.9211   -0.8917 N.3       1 <0>        -0.5310
     23 C17        -1.0422    3.3711   -0.9535 C.3       1 <0>         0.0502
     24 C18        -1.7226    3.7206   -2.2791 C.3       1 <0>         0.0568
     25 N2         -2.9895    2.9835   -2.3857 N.3       1 <0>        -0.5277
     26 C19        -2.7587    1.5335   -2.3238 C.3       1 <0>         0.0542
     27 C20        -2.0782    1.1840   -0.9982 C.3       1 <0>         0.0562
     28 C21        -3.7103    3.3500   -3.6121 C.3       1 <0>         0.0526
     29 C22        -5.1857    2.9711   -3.4691 C.3       1 <0>         0.0924
     30 O1         -5.7717    3.7295   -2.4091 O.3       1 <0>        -0.5876
     31 F4         -1.3659    6.7521    5.7346 F         1 <0>        -0.1386
     32 H3         -0.5659    4.8341    1.7395 H         1 <0>         0.1288
     33 H4         -1.2786    6.7405    3.1247 H         1 <0>         0.1361
     34 H5         -0.5954    4.4306    6.6491 H         1 <0>         0.1368
     35 H6          0.1060    2.5226    5.2602 H         1 <0>         0.1338
     36 H7         -1.4920    1.1976    2.0144 H         1 <0>         0.0859
     37 H8         -1.5214    2.8805    1.3871 H         1 <0>         0.0908
     38 H9          2.7070    3.8729    3.0024 H         1 <0>         0.1324
     39 H10         4.4035    4.2912    1.2705 H         1 <0>         0.1381
     40 H11         2.0344    2.1605   -1.5616 H         1 <0>         0.1388
     41 H12        -1.6885    3.6754   -0.1171 H         1 <0>         0.0494
     42 H13        -0.0796    3.8990   -0.8839 H         1 <0>         0.0798
     43 H14        -1.9221    4.8018   -2.3149 H         1 <0>         0.0796
     44 H15        -1.0635    3.4415   -3.1144 H         1 <0>         0.0413
     45 H16        -3.7213    1.0057   -2.3932 H         1 <0>         0.0793
     46 H17        -2.1125    1.2290   -3.1603 H         1 <0>         0.0421
     47 H18        -1.8777    0.1031   -0.9616 H         1 <0>         0.0816
     48 H19        -2.7363    1.4633   -0.1622 H         1 <0>         0.0489
     49 H20        -3.6245    4.4341   -3.7777 H         1 <0>         0.0806
     50 H21        -3.2750    2.8128   -4.4677 H         1 <0>         0.0517
     51 H22        -5.7128    3.1879   -4.4099 H         1 <0>         0.0430
     52 H23        -5.2683    1.8981   -3.2414 H         1 <0>         0.0395
     53 H24        -6.8335    3.5924   -2.1565 H         1 <0>         0.4024
@<TRIPOS>BOND
     1    1    6 ar
     2    1    2 ar
     3    1   32 1
     4    2    3 ar
     5    2   33 1
     6    3    4 ar
     7    3   31 1
     8    4    5 ar
     9    4   34 1
    10    5    6 ar
    11    5   35 1
    12    6    7 1
    13    7    8 1
    14    7   13 1
    15    7    9 1
    16    9   10 1
    17    9   36 1
    18    9   37 1
    19   10   11 1
    20   10   12 1
    21   10   22 1
    22   12   17 ar
    23   12   13 ar
    24   13   14 ar
    25   14   15 ar
    26   14   38 1
    27   15   16 ar
    28   15   39 1
    29   16   17 ar
    30   16   18 1
    31   17   40 1
    32   18   19 1
    33   18   20 1
    34   18   21 1
    35   22   27 1
    36   22   23 1
    37   23   24 1
    38   23   41 1
    39   23   42 1
    40   24   25 1
    41   24   43 1
    42   24   44 1
    43   25   26 1
    44   25   28 1
    45   26   27 1
    46   26   45 1
    47   26   46 1
    48   27   47 1
    49   27   48 1
    50   28   29 1
    51   28   49 1
    52   28   50 1
    53   29   30 1
    54   29   51 1
    55   29   52 1
    56   30   53 1
@<TRIPOS>MOLECULE
ZINC22937858
   54    57     0     0     0
SMALL
USER_CHARGES
2-[4-[(1S,3R)-3-(4-fluorophenyl)-6-(trifluoromethyl)indan-1-yl]piperazin-1-yl]ethanol
@<TRIPOS>ATOM
      1 C1          0.1870    2.1606   -4.1297 C.ar      1 <0>        -0.0795
      2 C2          0.2538    2.3564   -5.4961 C.ar      1 <0>        -0.1490
      3 C3         -0.2299    3.5289   -6.0514 C.ar      1 <0>         0.1149
      4 C4         -0.7856    4.5014   -5.2374 C.ar      1 <0>        -0.1491
      5 C5         -0.8568    4.3008   -3.8720 C.ar      1 <0>        -0.0775
      6 C6         -0.3732    3.1299   -3.3186 C.ar      1 <0>        -0.1131
      7 C7         -0.4510    2.9126   -1.8294 C.3       1 <0>        -0.0235
      8 H1         -0.9211    3.8142   -1.4098 H         1 <0>         0.1155
      9 C8         -1.2333    1.6192   -1.5171 C.3       1 <0>        -0.1298
     10 C9         -0.5057    1.0861   -0.2646 C.3       1 <0>         0.0942
     11 H2         -0.5210   -0.0102   -0.1759 H         1 <0>         0.1435
     12 C10         0.9011    1.6367   -0.3592 C.ar      1 <0>        -0.1598
     13 C11         0.9325    2.6864   -1.2586 C.ar      1 <0>        -0.0272
     14 C12         2.1241    3.3465   -1.5059 C.ar      1 <0>        -0.0931
     15 C13         3.2809    2.9595   -0.8574 C.ar      1 <0>        -0.0344
     16 C14         3.2495    1.9103    0.0417 C.ar      1 <0>        -0.1744
     17 C15         2.0615    1.2503    0.2898 C.ar      1 <0>        -0.0337
     18 C16         4.5101    1.4860    0.7500 C.3       1 <0>         0.5081
     19 F1          5.5728    2.2966    0.3365 F         1 <0>        -0.1688
     20 F2          4.3349    1.6159    2.1319 F         1 <0>        -0.1732
     21 F3          4.7931    0.1516    0.4392 F         1 <0>        -0.1699
     22 N1         -1.1630    1.5739    0.9553 N.4       1 <0>        -0.4004
     23 C17        -0.3115    1.3599    2.1338 C.3       1 <0>        -0.0057
     24 C18        -0.9958    1.9516    3.3684 C.3       1 <0>         0.0223
     25 N2         -2.3089    1.3170    3.5488 N.3       1 <0>        -0.5323
     26 C19        -3.1604    1.5310    2.3703 C.3       1 <0>         0.0202
     27 C20        -2.4762    0.9393    1.1357 C.3       1 <0>        -0.0030
     28 C21        -2.9662    1.8047    4.7686 C.3       1 <0>         0.0524
     29 C22        -2.8880    3.3321    4.8143 C.3       1 <0>         0.0399
     30 O1         -3.6742    3.8812    3.7549 O.3       1 <0>        -0.6058
     31 F4         -0.1593    3.7241   -7.3864 F         1 <0>        -0.1308
     32 H3          0.5688    1.2483   -3.6958 H         1 <0>         0.1305
     33 H4          0.6877    1.5973   -6.1301 H         1 <0>         0.1410
     34 H5         -1.1635    5.4163   -5.6695 H         1 <0>         0.1423
     35 H6         -1.2902    5.0592   -3.2368 H         1 <0>         0.1353
     36 H7         -2.2882    1.8658   -1.3265 H         1 <0>         0.1102
     37 H8         -1.1662    0.9339   -2.3749 H         1 <0>         0.1272
     38 H9          2.1494    4.1665   -2.2084 H         1 <0>         0.1465
     39 H10         4.2088    3.4765   -1.0525 H         1 <0>         0.1548
     40 H11         2.0377    0.4305    0.9924 H         1 <0>         0.1427
     41 H12        -0.1547    0.2812    2.2818 H         1 <0>         0.1355
     42 H13         0.6592    1.8537    1.9794 H         1 <0>         0.1332
     43 H14        -0.3733    1.7672    4.2564 H         1 <0>         0.1213
     44 H15        -1.1269    3.0351    3.2311 H         1 <0>         0.0655
     45 H16        -4.1311    1.0372    2.5248 H         1 <0>         0.1189
     46 H17        -3.3172    2.6096    2.2222 H         1 <0>         0.0900
     47 H18        -3.0977    1.1238    0.2471 H         1 <0>         0.1355
     48 H19        -2.3442   -0.1442    1.2723 H         1 <0>         0.1342
     49 H20        -4.0206    1.4914    4.7672 H         1 <0>         0.0958
     50 H21        -2.4602    1.3851    5.6506 H         1 <0>         0.1063
     51 H22        -3.2732    3.6902    5.7804 H         1 <0>         0.0589
     52 H23        -1.8413    3.6494    4.6966 H         1 <0>         0.0486
     53 H24        -3.7399    4.9718    3.6270 H         1 <0>         0.4159
     54 H25        -1.3215    2.6566    0.8427 H         1 <0>         0.4327
@<TRIPOS>BOND
     1    1    6 ar
     2    1    2 ar
     3    1   32 1
     4    2    3 ar
     5    2   33 1
     6    3    4 ar
     7    3   31 1
     8    4    5 ar
     9    4   34 1
    10    5    6 ar
    11    5   35 1
    12    6    7 1
    13    7    8 1
    14    7   13 1
    15    7    9 1
    16    9   10 1
    17    9   36 1
    18    9   37 1
    19   10   11 1
    20   10   12 1
    21   10   22 1
    22   12   17 ar
    23   12   13 ar
    24   13   14 ar
    25   14   15 ar
    26   14   38 1
    27   15   16 ar
    28   15   39 1
    29   16   17 ar
    30   16   18 1
    31   17   40 1
    32   18   19 1
    33   18   20 1
    34   18   21 1
    35   22   27 1
    36   22   23 1
    37   22   54 1
    38   23   24 1
    39   23   41 1
    40   23   42 1
    41   24   25 1
    42   24   43 1
    43   24   44 1
    44   25   26 1
    45   25   28 1
    46   26   27 1
    47   26   45 1
    48   26   46 1
    49   27   47 1
    50   27   48 1
    51   28   29 1
    52   28   49 1
    53   28   50 1
    54   29   30 1
    55   29   51 1
    56   29   52 1
    57   30   53 1
@<TRIPOS>MOLECULE
ZINC22937858
   53    56     0     0     0
SMALL
USER_CHARGES
2-[4-[(1S,3R)-3-(4-fluorophenyl)-6-(trifluoromethyl)indan-1-yl]piperazin-1-yl]ethanol
@<TRIPOS>ATOM
      1 C1          0.1870    2.1606   -4.1297 C.ar      1 <0>        -0.0805
      2 C2          0.2538    2.3564   -5.4961 C.ar      1 <0>        -0.1508
      3 C3         -0.2299    3.5289   -6.0514 C.ar      1 <0>         0.0980
      4 C4         -0.7856    4.5014   -5.2374 C.ar      1 <0>        -0.1513
      5 C5         -0.8568    4.3008   -3.8720 C.ar      1 <0>        -0.0832
      6 C6         -0.3732    3.1299   -3.3186 C.ar      1 <0>        -0.0937
      7 C7         -0.4510    2.9126   -1.8294 C.3       1 <0>        -0.0059
      8 H1         -0.9211    3.8142   -1.4098 H         1 <0>         0.1065
      9 C8         -1.2333    1.6192   -1.5171 C.3       1 <0>        -0.1003
     10 C9         -0.5057    1.0861   -0.2646 C.3       1 <0>         0.1287
     11 H2         -0.5210   -0.0102   -0.1759 H         1 <0>         0.0592
     12 C10         0.9011    1.6367   -0.3592 C.ar      1 <0>        -0.0889
     13 C11         0.9325    2.6864   -1.2586 C.ar      1 <0>        -0.0357
     14 C12         2.1241    3.3465   -1.5059 C.ar      1 <0>        -0.1024
     15 C13         3.2809    2.9595   -0.8574 C.ar      1 <0>        -0.0653
     16 C14         3.2495    1.9103    0.0417 C.ar      1 <0>        -0.1831
     17 C15         2.0615    1.2503    0.2898 C.ar      1 <0>        -0.0510
     18 C16         4.5101    1.4860    0.7500 C.3       1 <0>         0.5095
     19 F1          5.5728    2.2966    0.3365 F         1 <0>        -0.1761
     20 F2          4.3349    1.6159    2.1319 F         1 <0>        -0.1760
     21 F3          4.7931    0.1516    0.4392 F         1 <0>        -0.1760
     22 N1         -1.1630    1.5739    0.9553 N.3       1 <0>        -0.5316
     23 C17        -0.3115    1.3599    2.1338 C.3       1 <0>         0.0525
     24 C18        -0.9958    1.9516    3.3684 C.3       1 <0>         0.0535
     25 N2         -2.3089    1.3170    3.5488 N.3       1 <0>        -0.5346
     26 C19        -3.1604    1.5310    2.3703 C.3       1 <0>         0.0518
     27 C20        -2.4762    0.9393    1.1357 C.3       1 <0>         0.0551
     28 C21        -2.9662    1.8047    4.7686 C.3       1 <0>         0.0533
     29 C22        -2.8880    3.3321    4.8143 C.3       1 <0>         0.0447
     30 O1         -3.6742    3.8812    3.7549 O.3       1 <0>        -0.5935
     31 F4         -0.1593    3.7241   -7.3864 F         1 <0>        -0.1392
     32 H3          0.5688    1.2483   -3.6958 H         1 <0>         0.1307
     33 H4          0.6877    1.5973   -6.1301 H         1 <0>         0.1356
     34 H5         -1.1635    5.4163   -5.6695 H         1 <0>         0.1364
     35 H6         -1.2902    5.0592   -3.2368 H         1 <0>         0.1339
     36 H7         -2.2882    1.8658   -1.3265 H         1 <0>         0.0916
     37 H8         -1.1662    0.9339   -2.3749 H         1 <0>         0.0847
     38 H9          2.1494    4.1665   -2.2084 H         1 <0>         0.1333
     39 H10         4.2088    3.4765   -1.0525 H         1 <0>         0.1413
     40 H11         2.0377    0.4305    0.9924 H         1 <0>         0.1308
     41 H12        -0.1547    0.2812    2.2818 H         1 <0>         0.0413
     42 H13         0.6592    1.8537    1.9794 H         1 <0>         0.0830
     43 H14        -0.3733    1.7672    4.2564 H         1 <0>         0.0762
     44 H15        -1.1269    3.0351    3.2311 H         1 <0>         0.0499
     45 H16        -4.1311    1.0372    2.5248 H         1 <0>         0.0733
     46 H17        -3.3172    2.6096    2.2222 H         1 <0>         0.0758
     47 H18        -3.0977    1.1238    0.2471 H         1 <0>         0.0817
     48 H19        -2.3442   -0.1442    1.2723 H         1 <0>         0.0402
     49 H20        -4.0206    1.4914    4.7672 H         1 <0>         0.0815
     50 H21        -2.4602    1.3851    5.6506 H         1 <0>         0.0909
     51 H22        -3.2732    3.6902    5.7804 H         1 <0>         0.0433
     52 H23        -1.8413    3.6494    4.6966 H         1 <0>         0.0477
     53 H24        -3.7399    4.9718    3.6270 H         1 <0>         0.4030
@<TRIPOS>BOND
     1    1    6 ar
     2    1    2 ar
     3    1   32 1
     4    2    3 ar
     5    2   33 1
     6    3    4 ar
     7    3   31 1
     8    4    5 ar
     9    4   34 1
    10    5    6 ar
    11    5   35 1
    12    6    7 1
    13    7    8 1
    14    7   13 1
    15    7    9 1
    16    9   10 1
    17    9   36 1
    18    9   37 1
    19   10   11 1
    20   10   12 1
    21   10   22 1
    22   12   17 ar
    23   12   13 ar
    24   13   14 ar
    25   14   15 ar
    26   14   38 1
    27   15   16 ar
    28   15   39 1
    29   16   17 ar
    30   16   18 1
    31   17   40 1
    32   18   19 1
    33   18   20 1
    34   18   21 1
    35   22   27 1
    36   22   23 1
    37   23   24 1
    38   23   41 1
    39   23   42 1
    40   24   25 1
    41   24   43 1
    42   24   44 1
    43   25   26 1
    44   25   28 1
    45   26   27 1
    46   26   45 1
    47   26   46 1
    48   27   47 1
    49   27   48 1
    50   28   29 1
    51   28   49 1
    52   28   50 1
    53   29   30 1
    54   29   51 1
    55   29   52 1
    56   30   53 1
@<TRIPOS>MOLECULE
ZINC00538337
   58    62     0     0     0
SMALL
USER_CHARGES

@<TRIPOS>ATOM
      1 C1         -0.0168    1.3842    0.0097 C.ar      1 <0>        -0.0898
      2 C2          1.1703    2.0901    0.0021 C.ar      1 <0>        -0.1344
      3 C3          2.3788    1.4141   -0.0135 C.ar      1 <0>         0.1119
      4 C4          2.3997    0.0295   -0.0216 C.ar      1 <0>        -0.1322
      5 C5          1.2148   -0.6800   -0.0137 C.ar      1 <0>        -0.0888
      6 C6          0.0021   -0.0041    0.0020 C.ar      1 <0>         0.1035
      7 N1         -1.2015   -0.7222    0.0101 N.pl3     1 <0>        -0.4255
      8 C7         -2.2407   -0.5077    0.8765 C.2       1 <0>         0.0751
      9 C8         -3.2397   -1.3652    0.6140 C.2       1 <0>        -0.1721
     10 C9         -2.8068   -2.1974   -0.5117 C.ar      1 <0>        -0.0841
     11 C10        -1.5194   -1.7470   -0.8569 C.ar      1 <0>         0.1032
     12 C11        -0.8430   -2.3517   -1.9103 C.ar      1 <0>        -0.1070
     13 C12        -1.4366   -3.3808   -2.6081 C.ar      1 <0>        -0.0841
     14 C13        -2.7089   -3.8239   -2.2706 C.ar      1 <0>        -0.0491
     15 C14        -3.3935   -3.2441   -1.2250 C.ar      1 <0>        -0.0671
     16 Cl1        -3.4366   -5.1218   -3.1648 Cl        1 <0>        -0.0596
     17 C15        -4.5571   -1.4553    1.3402 C.3       1 <0>        -0.0164
     18 C16        -4.3063   -1.7573    2.8204 C.3       1 <0>        -0.1397
     19 C17        -5.6422   -1.7687    3.5665 C.3       1 <0>        -0.0052
     20 N2         -6.2909   -0.4585    3.4359 N.4       1 <0>        -0.3798
     21 C18        -6.5994   -0.1937    2.0255 C.3       1 <0>        -0.0131
     22 C19        -5.3003   -0.1217    1.2201 C.3       1 <0>        -0.1392
     23 C20        -7.5345   -0.4493    4.2177 C.3       1 <0>        -0.0330
     24 C21        -8.1476    0.9521    4.1845 C.3       1 <0>         0.1326
     25 N3         -9.3878    0.9612    4.9641 N.am      1 <0>        -0.6351
     26 C22       -10.7283    0.6664    4.4362 C.3       1 <0>         0.0898
     27 C23       -11.6494    0.8170    5.6625 C.3       1 <0>         0.0871
     28 N4        -10.7301    1.1807    6.7511 N.am      1 <0>        -0.7327
     29 C24        -9.4802    1.2337    6.2723 C.2       1 <0>         0.7000
     30 O1         -8.5172    1.5083    6.9620 O.2       1 <0>        -0.5776
     31 F1          3.5389    2.1063   -0.0213 F         1 <0>        -0.1276
     32 H1         -0.9590    1.9118    0.0260 H         1 <0>         0.1391
     33 H2          1.1561    3.1700    0.0080 H         1 <0>         0.1488
     34 H3          3.3432   -0.4959   -0.0345 H         1 <0>         0.1499
     35 H4          1.2315   -1.7598   -0.0203 H         1 <0>         0.1411
     36 H5         -2.2541    0.2401    1.6556 H         1 <0>         0.1691
     37 H6          0.1466   -2.0149   -2.1816 H         1 <0>         0.1333
     38 H7         -0.9074   -3.8472   -3.4259 H         1 <0>         0.1426
     39 H8         -4.3833   -3.5900   -0.9659 H         1 <0>         0.1336
     40 H9         -5.1611   -2.2499    0.9021 H         1 <0>         0.0971
     41 H10        -3.8271   -2.7315    2.9171 H         1 <0>         0.1158
     42 H11        -3.6594   -0.9891    3.2440 H         1 <0>         0.0884
     43 H12        -6.2882   -2.5373    3.1423 H         1 <0>         0.1304
     44 H13        -5.4673   -1.9836    4.6207 H         1 <0>         0.1320
     45 H14        -7.2250   -0.9960    1.6341 H         1 <0>         0.1319
     46 H15        -7.1311    0.7541    1.9420 H         1 <0>         0.1316
     47 H16        -4.6740    0.6804    1.6106 H         1 <0>         0.0885
     48 H17        -5.5315    0.0731    0.1729 H         1 <0>         0.1159
     49 H18        -8.2379   -1.1638    3.7899 H         1 <0>         0.1318
     50 H19        -7.3173   -0.7265    5.2492 H         1 <0>         0.1351
     51 H20        -7.4442    1.6665    4.6123 H         1 <0>         0.1060
     52 H21        -8.3648    1.2293    3.1530 H         1 <0>         0.1030
     53 H22       -11.0011    1.3839    3.6624 H         1 <0>         0.0916
     54 H23       -10.7713   -0.3513    4.0481 H         1 <0>         0.0867
     55 H24       -12.3795    1.6093    5.4975 H         1 <0>         0.0926
     56 H25       -12.1498   -0.1259    5.8832 H         1 <0>         0.0914
     57 H26       -10.9875    1.3510    7.6707 H         1 <0>         0.4382
     58 H27        -5.6719    0.2583    3.7840 H         1 <0>         0.4243
@<TRIPOS>BOND
     1    1    6 ar
     2    1    2 ar
     3    1   32 1
     4    2    3 ar
     5    2   33 1
     6    3    4 ar
     7    3   31 1
     8    4    5 ar
     9    4   34 1
    10    5    6 ar
    11    5   35 1
    12    6    7 1
    13    7   11 1
    14    7    8 1
    15    8    9 2
    16    8   36 1
    17    9   10 1
    18    9   17 1
    19   10   15 ar
    20   10   11 ar
    21   11   12 ar
    22   12   13 ar
    23   12   37 1
    24   13   14 ar
    25   13   38 1
    26   14   15 ar
    27   14   16 1
    28   15   39 1
    29   17   22 1
    30   17   18 1
    31   17   40 1
    32   18   19 1
    33   18   41 1
    34   18   42 1
    35   19   20 1
    36   19   43 1
    37   19   44 1
    38   20   21 1
    39   20   23 1
    40   20   58 1
    41   21   22 1
    42   21   45 1
    43   21   46 1
    44   22   47 1
    45   22   48 1
    46   23   24 1
    47   23   49 1
    48   23   50 1
    49   24   25 1
    50   24   51 1
    51   24   52 1
    52   25   29 am
    53   25   26 1
    54   26   27 1
    55   26   53 1
    56   26   54 1
    57   27   28 1
    58   27   55 1
    59   27   56 1
    60   28   29 am
    61   28   57 1
    62   29   30 2
@<TRIPOS>MOLECULE
ZINC02516053
   32    32     0     0     0
SMALL
USER_CHARGES

@<TRIPOS>ATOM
      1 C1         -0.0187    1.5258    0.0104 C.3       1 <0>        -0.1837
      2 C2          0.0021   -0.0041    0.0020 C.3       1 <0>         0.0344
      3 H1          0.5293   -0.3651    0.8851 H         1 <0>         0.1407
      4 C3          0.7182   -0.4975   -1.2568 C.3       1 <0>        -0.0944
      5 C4          0.8473   -1.9981   -1.2057 C.ar      1 <0>        -0.0941
      6 C5          2.0025   -2.5757   -0.7149 C.ar      1 <0>        -0.1590
      7 C6          2.1215   -3.9563   -0.6678 C.ar      1 <0>         0.1458
      8 C7          1.0802   -4.7580   -1.1137 C.ar      1 <0>        -0.0982
      9 C8         -0.0748   -4.1803   -1.6044 C.ar      1 <0>        -0.1178
     10 C9         -0.1957   -2.7990   -1.6460 C.ar      1 <0>         0.0662
     11 O1         -1.3349   -2.2303   -2.1234 O.3       1 <0>        -0.3399
     12 C10        -2.3683   -3.1155   -2.5599 C.3       1 <0>         0.0160
     13 I1          1.2600   -6.8441   -1.0433 I         1 <0>         0.0067
     14 O2          3.2588   -4.5247   -0.1852 O.3       1 <0>        -0.2969
     15 C11         4.2899   -3.6392    0.2560 C.3       1 <0>         0.0216
     16 N1         -1.3761   -0.5125    0.0124 N.4       1 <0>        -0.6338
     17 H2          1.0039    1.9031    0.0027 H         1 <0>         0.1075
     18 H3         -0.5459    1.8868   -0.8726 H         1 <0>         0.0843
     19 H4         -0.5289    1.8773    0.9072 H         1 <0>         0.0848
     20 H5          0.1430   -0.2121   -2.1375 H         1 <0>         0.1074
     21 H6          1.7103   -0.0491   -1.3098 H         1 <0>         0.1218
     22 H7          2.8130   -1.9517   -0.3683 H         1 <0>         0.1510
     23 H8         -0.8853   -4.8040   -1.9514 H         1 <0>         0.1495
     24 H9         -2.6820   -3.7459   -1.7280 H         1 <0>         0.0642
     25 H10        -3.2186   -2.5338   -2.9159 H         1 <0>         0.1133
     26 H11        -1.9924   -3.7419   -3.3689 H         1 <0>         0.0693
     27 H12         4.6073   -3.0087   -0.5745 H         1 <0>         0.0621
     28 H13         3.9101   -3.0129    1.0633 H         1 <0>         0.0598
     29 H14         5.1387   -4.2206    0.6159 H         1 <0>         0.1128
     30 H15        -1.8641   -0.1783   -0.8050 H         1 <0>         0.4349
     31 H16        -1.3624   -1.5214    0.0069 H         1 <0>         0.4309
     32 H17        -1.8484   -0.1871    0.8426 H         1 <0>         0.4329
@<TRIPOS>BOND
     1    1    2 1
     2    1   17 1
     3    1   18 1
     4    1   19 1
     5    2    3 1
     6    2    4 1
     7    2   16 1
     8    4    5 1
     9    4   20 1
    10    4   21 1
    11    5   10 ar
    12    5    6 ar
    13    6    7 ar
    14    6   22 1
    15    7    8 ar
    16    7   14 1
    17    8    9 ar
    18    8   13 1
    19    9   10 ar
    20    9   23 1
    21   10   11 1
    22   11   12 1
    23   12   24 1
    24   12   25 1
    25   12   26 1
    26   14   15 1
    27   15   27 1
    28   15   28 1
    29   15   29 1
    30   16   30 1
    31   16   31 1
    32   16   32 1
@<TRIPOS>MOLECULE
ZINC01640741
   65    68     0     0     0
SMALL
USER_CHARGES
8-[4-(4-fluorophenyl)-4-oxo-butyl]-1-phenyl-3-propyl-1,3,8-triazaspiro[4.5]decan-4-one
@<TRIPOS>ATOM
      1 C1         -2.9090   -1.9130   -1.4734 C.3       1 <0>        -0.1539
      2 C2         -1.6561   -1.0348   -1.4672 C.3       1 <0>        -0.1387
      3 C3         -1.2086   -0.7949   -0.0239 C.3       1 <0>         0.1254
      4 N1         -0.0090    0.0460   -0.0180 N.am      1 <0>        -0.6094
      5 C4          1.3726   -0.4493   -0.0652 C.3       1 <0>         0.2394
      6 N2          2.2292    0.6727    0.3851 N.pl3     1 <0>        -0.4404
      7 C5          1.4294    1.8648    0.0347 C.3       1 <0>         0.0527
      8 C6         -0.0043    1.3949    0.0309 C.2       1 <0>         0.5260
      9 O1         -0.9852    2.1076    0.0612 O.2       1 <0>        -0.5115
     10 C7          1.6297    2.9574    1.0815 C.3       1 <0>        -0.1193
     11 C8          0.8292    4.1987    0.6776 C.3       1 <0>        -0.0224
     12 C9          1.0201    3.6360   -1.6729 C.3       1 <0>         0.0012
     13 C10         1.8269    2.3758   -1.3474 C.3       1 <0>        -0.1654
     14 C11         0.6313    5.9297   -1.0033 C.3       1 <0>        -0.0038
     15 C12         0.6980    6.8855    0.1896 C.3       1 <0>        -0.1468
     16 C13         0.0326    8.2121   -0.1820 C.3       1 <0>        -0.1549
     17 C14         0.0982    9.1535    0.9929 C.2       1 <0>         0.4032
     18 O2          0.6254    8.7984    2.0257 O.2       1 <0>        -0.4471
     19 C15        -0.4767   10.5024    0.8870 C.ar      1 <0>        -0.1962
     20 C16        -1.0806   10.9174   -0.3052 C.ar      1 <0>        -0.0431
     21 C17        -1.6225   12.1806   -0.3958 C.ar      1 <0>        -0.1669
     22 C18        -1.5603   13.0447    0.6876 C.ar      1 <0>         0.1436
     23 C19        -0.9580   12.6416    1.8704 C.ar      1 <0>        -0.1650
     24 C20        -0.4173   11.3791    1.9762 C.ar      1 <0>        -0.0258
     25 F1         -2.0891   14.2841    0.5905 F         1 <0>        -0.1260
     26 C21         3.4508    0.6728   -0.2921 C.ar      1 <0>         0.0814
     27 C22         3.7815   -0.3835   -1.1314 C.ar      1 <0>        -0.1599
     28 C23         4.9882   -0.3779   -1.8032 C.ar      1 <0>        -0.0846
     29 C24         5.8712    0.6726   -1.6329 C.ar      1 <0>        -0.1242
     30 C25         5.5474    1.7232   -0.7940 C.ar      1 <0>        -0.0948
     31 C26         4.3402    1.7264   -0.1233 C.ar      1 <0>        -0.1415
     32 H1         -2.6853   -2.8684   -0.9988 H         1 <0>         0.0610
     33 H2         -3.7064   -1.4124   -0.9243 H         1 <0>         0.0601
     34 H3         -3.2278   -2.0839   -2.5017 H         1 <0>         0.0640
     35 H4         -1.8798   -0.0794   -1.9418 H         1 <0>         0.0645
     36 H5         -0.8587   -1.5354   -2.0164 H         1 <0>         0.0658
     37 H6         -0.9849   -1.7503    0.4507 H         1 <0>         0.0915
     38 H7         -2.0060   -0.2942    0.5252 H         1 <0>         0.0924
     39 H8          1.4883   -1.3014    0.6046 H         1 <0>         0.1146
     40 H9          1.6338   -0.7348   -1.0842 H         1 <0>         0.0831
     41 H10         1.2827    2.6003    2.0511 H         1 <0>         0.1232
     42 H11         2.6879    3.2114    1.1443 H         1 <0>         0.1027
     43 H12         0.9931    4.9904    1.4086 H         1 <0>         0.1416
     44 H13        -0.2317    3.9511    0.6418 H         1 <0>         0.1540
     45 H14         1.3224    4.0194   -2.6475 H         1 <0>         0.1358
     46 H15        -0.0422    3.3925   -1.6919 H         1 <0>         0.1376
     47 H16         2.8908    2.6128   -1.3555 H         1 <0>         0.1191
     48 H17         1.6196    1.6079   -2.0927 H         1 <0>         0.1140
     49 H18         1.1519    6.3719   -1.8527 H         1 <0>         0.1314
     50 H19        -0.4109    5.7517   -1.2684 H         1 <0>         0.1344
     51 H20         0.1774    6.4433    1.0390 H         1 <0>         0.0991
     52 H21         1.7402    7.0635    0.4547 H         1 <0>         0.0951
     53 H22         0.5102    8.6178   -0.9613 H         1 <0>         0.1002
     54 H23        -1.0096    8.0341   -0.4472 H         1 <0>         0.1128
     55 H24        -1.1257   10.2472   -1.1509 H         1 <0>         0.1411
     56 H25        -2.0927   12.5005   -1.3139 H         1 <0>         0.1468
     57 H26        -0.9132   13.3190    2.7103 H         1 <0>         0.1476
     58 H27         0.0510   11.0664    2.8978 H         1 <0>         0.1461
     59 H28         3.0942   -1.2064   -1.2615 H         1 <0>         0.1342
     60 H29         5.2442   -1.1968   -2.4591 H         1 <0>         0.1323
     61 H30         6.8161    0.6723   -2.1560 H         1 <0>         0.1307
     62 H31         6.2395    2.5418   -0.6630 H         1 <0>         0.1318
     63 H32         4.0880    2.5471    0.5320 H         1 <0>         0.1260
     64 N3          1.3001    4.6619   -0.6453 N.4       1 <0>        -0.3901
     65 H33         2.3135    4.8206   -0.6010 H         1 <0>         0.4243
@<TRIPOS>BOND
     1    1    2 1
     2    1   32 1
     3    1   33 1
     4    1   34 1
     5    2    3 1
     6    2   35 1
     7    2   36 1
     8    3    4 1
     9    3   37 1
    10    3   38 1
    11    4    8 am
    12    4    5 1
    13    5    6 1
    14    5   39 1
    15    5   40 1
    16    6    7 1
    17    6   26 1
    18    7   13 1
    19    7    8 1
    20    7   10 1
    21    8    9 2
    22   10   11 1
    23   10   41 1
    24   10   42 1
    25   11   43 1
    26   11   44 1
    27   11   64 1
    28   12   13 1
    29   12   45 1
    30   12   46 1
    31   12   64 1
    32   13   47 1
    33   13   48 1
    34   14   15 1
    35   14   49 1
    36   14   50 1
    37   14   64 1
    38   15   16 1
    39   15   51 1
    40   15   52 1
    41   16   17 1
    42   16   53 1
    43   16   54 1
    44   17   18 2
    45   17   19 1
    46   19   24 ar
    47   19   20 ar
    48   20   21 ar
    49   20   55 1
    50   21   22 ar
    51   21   56 1
    52   22   23 ar
    53   22   25 1
    54   23   24 ar
    55   23   57 1
    56   24   58 1
    57   26   31 ar
    58   26   27 ar
    59   27   28 ar
    60   27   59 1
    61   28   29 ar
    62   28   60 1
    63   29   30 ar
    64   29   61 1
    65   30   31 ar
    66   30   62 1
    67   31   63 1
    68   64   65 1
@<TRIPOS>MOLECULE
ZINC03995320
   69    73     0     0     0
SMALL
USER_CHARGES

@<TRIPOS>ATOM
      1 C1         -0.0167    1.3786    0.0096 C.ar      1 <0>        -0.1578
      2 C2          1.1695    2.0894    0.0021 C.ar      1 <0>        -0.0634
      3 C3          2.3774    1.4200   -0.0130 C.ar      1 <0>        -0.1785
      4 C4          2.3998    0.0311   -0.0206 C.ar      1 <0>         0.2332
      5 C5          1.2064   -0.6798   -0.0130 C.ar      1 <0>        -0.1989
      6 C6          0.0021   -0.0041    0.0020 C.ar      1 <0>        -0.0703
      7 N1          3.6196   -0.6492   -0.0363 N.pl3     1 <0>        -0.6319
      8 C7          4.9637   -0.0571   -0.0400 C.3       1 <0>         0.3337
      9 N2          5.9388   -1.1470   -0.0572 N.am      1 <0>        -0.6042
     10 C8          5.3099   -2.3344   -0.0641 C.2       1 <0>         0.5276
     11 O1          5.8532   -3.4187   -0.0778 O.2       1 <0>        -0.5109
     12 C9          3.8222   -2.1026   -0.0461 C.3       1 <0>         0.1384
     13 C10         3.1820   -2.7114   -1.2943 C.3       1 <0>        -0.1494
     14 C11         3.3480   -4.2326   -1.2552 C.3       1 <0>        -0.0130
     15 N3          2.7020   -4.7671   -0.0503 N.4       1 <0>        -0.3794
     16 C12         3.3698   -4.2457    1.1482 C.3       1 <0>        -0.0187
     17 C13         3.2050   -2.7250    1.2070 C.3       1 <0>        -0.1487
     18 C14         2.7905   -6.2335   -0.0591 C.3       1 <0>        -0.0090
     19 C15         2.0109   -6.7986    1.1299 C.3       1 <0>        -0.1425
     20 C16         2.1030   -8.3258    1.1207 C.3       1 <0>        -0.1653
     21 C17         1.3351   -8.8824    2.2919 C.2       1 <0>         0.4039
     22 O2          0.7698   -8.1316    3.0583 O.2       1 <0>        -0.4483
     23 C18         1.2712  -10.3355    2.5052 C.ar      1 <0>        -0.1961
     24 C19         1.9272  -11.2044    1.6259 C.ar      1 <0>        -0.0430
     25 C20         1.8634  -12.5650    1.8315 C.ar      1 <0>        -0.1669
     26 C21         1.1505  -13.0743    2.9070 C.ar      1 <0>         0.1434
     27 C22         0.4980  -12.2186    3.7823 C.ar      1 <0>        -0.1651
     28 C23         0.5590  -10.8557    3.5917 C.ar      1 <0>        -0.0262
     29 F1          1.0910  -14.4098    3.1025 F         1 <0>        -0.1261
     30 C24         7.3929   -0.9696   -0.0656 C.3       1 <0>         0.1714
     31 C25         7.9014   -0.9223    1.3523 C.ar      1 <0>        -0.0968
     32 C26         7.9843    0.2875    2.0167 C.ar      1 <0>        -0.1129
     33 C27         8.4505    0.3324    3.3172 C.ar      1 <0>        -0.0876
     34 C28         8.8349   -0.8322    3.9547 C.ar      1 <0>        -0.1410
     35 C29         8.7523   -2.0440    3.2905 C.ar      1 <0>         0.0995
     36 C30         8.2794   -2.0885    1.9897 C.ar      1 <0>        -0.1329
     37 F2          9.1282   -3.1828    3.9125 F         1 <0>        -0.1351
     38 H1         -0.9598    1.9046    0.0260 H         1 <0>         0.1272
     39 H2          1.1513    3.1692    0.0077 H         1 <0>         0.1308
     40 H3          3.3034    1.9757   -0.0192 H         1 <0>         0.1248
     41 H4          1.2204   -1.7597   -0.0193 H         1 <0>         0.1141
     42 H5         -0.9261   -0.5561    0.0079 H         1 <0>         0.1273
     43 H6          5.0901    0.5643   -0.9265 H         1 <0>         0.0869
     44 H7          5.1025    0.5473    0.8564 H         1 <0>         0.0844
     45 H8          2.1214   -2.4613   -1.3183 H         1 <0>         0.1091
     46 H9          3.6706   -2.3147   -2.1843 H         1 <0>         0.1191
     47 H10         2.8858   -4.6710   -2.1397 H         1 <0>         0.1378
     48 H11         4.4090   -4.4817   -1.2391 H         1 <0>         0.1473
     49 H12         2.9238   -4.6937    2.0361 H         1 <0>         0.1392
     50 H13         4.4303   -4.4946    1.1101 H         1 <0>         0.1472
     51 H14         3.7099   -2.3380    2.0921 H         1 <0>         0.1176
     52 H15         2.1450   -2.4752    1.2532 H         1 <0>         0.1095
     53 H16         2.3668   -6.6175   -0.9870 H         1 <0>         0.1346
     54 H17         3.8354   -6.5348    0.0153 H         1 <0>         0.1345
     55 H18         2.4346   -6.4145    2.0578 H         1 <0>         0.0945
     56 H19         0.9660   -6.4972    1.0555 H         1 <0>         0.0949
     57 H20         1.6793   -8.7098    0.1928 H         1 <0>         0.1132
     58 H21         3.1479   -8.6271    1.1951 H         1 <0>         0.1131
     59 H22         2.4820  -10.8091    0.7879 H         1 <0>         0.1415
     60 H23         2.3692  -13.2366    1.1537 H         1 <0>         0.1468
     61 H24        -0.0554  -12.6215    4.6177 H         1 <0>         0.1475
     62 H25         0.0543  -10.1903    4.2765 H         1 <0>         0.1457
     63 H26         7.8578   -1.8041   -0.5906 H         1 <0>         0.1062
     64 H27         7.6423   -0.0373   -0.5723 H         1 <0>         0.1061
     65 H28         7.6849    1.1980    1.5191 H         1 <0>         0.1313
     66 H29         8.5148    1.2779    3.8352 H         1 <0>         0.1391
     67 H30         9.1998   -0.7967    4.9706 H         1 <0>         0.1406
     68 H31         8.2104   -3.0338    1.4720 H         1 <0>         0.1374
     69 H32         1.7315   -4.4913   -0.0400 H         1 <0>         0.4193
@<TRIPOS>BOND
     1    1    6 ar
     2    1    2 ar
     3    1   38 1
     4    2    3 ar
     5    2   39 1
     6    3    4 ar
     7    3   40 1
     8    4    5 ar
     9    4    7 1
    10    5    6 ar
    11    5   41 1
    12    6   42 1
    13    7   12 1
    14    7    8 1
    15    8    9 1
    16    8   43 1
    17    8   44 1
    18    9   10 am
    19    9   30 1
    20   10   11 2
    21   10   12 1
    22   12   17 1
    23   12   13 1
    24   13   14 1
    25   13   45 1
    26   13   46 1
    27   14   15 1
    28   14   47 1
    29   14   48 1
    30   15   16 1
    31   15   18 1
    32   15   69 1
    33   16   17 1
    34   16   49 1
    35   16   50 1
    36   17   51 1
    37   17   52 1
    38   18   19 1
    39   18   53 1
    40   18   54 1
    41   19   20 1
    42   19   55 1
    43   19   56 1
    44   20   21 1
    45   20   57 1
    46   20   58 1
    47   21   22 2
    48   21   23 1
    49   23   28 ar
    50   23   24 ar
    51   24   25 ar
    52   24   59 1
    53   25   26 ar
    54   25   60 1
    55   26   27 ar
    56   26   29 1
    57   27   28 ar
    58   27   61 1
    59   28   62 1
    60   30   31 1
    61   30   63 1
    62   30   64 1
    63   31   36 ar
    64   31   32 ar
    65   32   33 ar
    66   32   65 1
    67   33   34 ar
    68   33   66 1
    69   34   35 ar
    70   34   67 1
    71   35   36 ar
    72   35   37 1
    73   36   68 1
@<TRIPOS>MOLECULE
ZINC00005452
   39    41     0     0     0
SMALL
USER_CHARGES
5-methoxy-3-[(1-methylpyrrolidin-2-yl)methyl]-1H-indole
@<TRIPOS>ATOM
      1 C1         -1.6841    9.0297    1.5032 C.3       1 <0>        -0.0368
      2 C2         -3.0315    7.4227    2.7405 C.3       1 <0>        -0.0068
      3 C3         -3.1188    5.8837    2.8256 C.3       1 <0>        -0.1503
      4 C4         -1.9302    5.3679    1.9884 C.3       1 <0>        -0.1424
      5 C5         -1.2248    6.6387    1.4679 C.3       1 <0>         0.0298
      6 H1         -0.4009    6.9130    2.1268 H         1 <0>         0.1384
      7 C6         -0.7160    6.4203    0.0416 C.3       1 <0>        -0.0465
      8 C7          0.3684    5.3738    0.0498 C.2       1 <0>        -0.2067
      9 C8          1.6886    5.5931    0.1542 C.2       1 <0>         0.0924
     10 N1          2.3630    4.4032    0.1252 N.pl3     1 <0>        -0.5867
     11 H2          3.3263    4.3069    0.1857 H         1 <0>         0.4229
     12 C9          1.4688    3.3611   -0.0020 C.ar      1 <0>         0.0611
     13 C10         0.1812    3.9246   -0.0546 C.ar      1 <0>        -0.0557
     14 C11        -0.9373    3.0988   -0.1842 C.ar      1 <0>        -0.1291
     15 C12        -0.7694    1.7306   -0.2647 C.ar      1 <0>         0.1169
     16 C13         0.5062    1.1756   -0.2070 C.ar      1 <0>        -0.1757
     17 C14         1.6164    1.9805   -0.0796 C.ar      1 <0>        -0.0788
     18 O1         -1.8546    0.9217   -0.3958 O.3       1 <0>        -0.3181
     19 C15        -1.6107   -0.4845   -0.4680 C.3       1 <0>         0.0252
     20 H3         -1.1449    9.1994    0.5712 H         1 <0>         0.1237
     21 H4         -2.4730    9.7745    1.6074 H         1 <0>         0.1231
     22 H5         -0.9935    9.1119    2.3425 H         1 <0>         0.1172
     23 H6         -4.0294    7.8574    2.6826 H         1 <0>         0.1356
     24 H7         -2.4935    7.8210    3.6007 H         1 <0>         0.1301
     25 H8         -4.0603    5.5339    2.4020 H         1 <0>         0.0986
     26 H9         -3.0234    5.5557    3.8607 H         1 <0>         0.1076
     27 H10        -2.2883    4.7650    1.1539 H         1 <0>         0.1023
     28 H11        -1.2509    4.7859    2.6111 H         1 <0>         0.1072
     29 H12        -0.3151    7.3559   -0.3484 H         1 <0>         0.0904
     30 H13        -1.5387    6.0861   -0.5904 H         1 <0>         0.0922
     31 H14         2.1501    6.5651    0.2473 H         1 <0>         0.1729
     32 H15        -1.9275    3.5279   -0.2249 H         1 <0>         0.1272
     33 H16         0.6264    0.1040   -0.2672 H         1 <0>         0.1372
     34 H17         2.6014    1.5396   -0.0395 H         1 <0>         0.1291
     35 H18        -1.1085   -0.8133    0.4418 H         1 <0>         0.0575
     36 H19        -2.5585   -1.0128   -0.5712 H         1 <0>         0.1042
     37 H20        -0.9790   -0.6999   -1.3298 H         1 <0>         0.0581
     38 N2         -2.2807    7.6568    1.5093 N.4       1 <0>        -0.3963
     39 H21        -2.8996    7.5547    0.6964 H         1 <0>         0.4288
@<TRIPOS>BOND
     1    1   20 1
     2    1   21 1
     3    1   22 1
     4    1   38 1
     5    2    3 1
     6    2   23 1
     7    2   24 1
     8    2   38 1
     9    3    4 1
    10    3   25 1
    11    3   26 1
    12    4    5 1
    13    4   27 1
    14    4   28 1
    15    5    6 1
    16    5    7 1
    17    5   38 1
    18    7    8 1
    19    7   29 1
    20    7   30 1
    21    8   13 1
    22    8    9 2
    23    9   10 1
    24    9   31 1
    25   10   11 1
    26   10   12 1
    27   12   17 ar
    28   12   13 ar
    29   13   14 ar
    30   14   15 ar
    31   14   32 1
    32   15   16 ar
    33   15   18 1
    34   16   17 ar
    35   16   33 1
    36   17   34 1
    37   18   19 1
    38   19   35 1
    39   19   36 1
    40   19   37 1
    41   38   39 1
@<TRIPOS>MOLECULE
ZINC03779247
   39    41     0     0     0
SMALL
USER_CHARGES
5-methoxy-3-[(1-methylpyrrolidin-2-yl)methyl]-1H-indole
@<TRIPOS>ATOM
      1 C1         -0.0127    1.0858    0.0080 C.3       1 <0>        -0.0468
      2 C2         -0.0154    1.0869    2.4338 C.3       1 <0>        -0.0141
      3 C3          0.3473    2.3336    3.2677 C.3       1 <0>        -0.1410
      4 C4         -0.6531    3.4018    2.7526 C.3       1 <0>        -0.1410
      5 C5         -0.7548    3.0366    1.2506 C.3       1 <0>         0.0313
      6 H1          0.0848    3.4601    0.6994 H         1 <0>         0.1399
      7 C6         -2.0800    3.5343    0.6700 C.3       1 <0>        -0.0538
      8 C7         -2.1382    3.2084   -0.8002 C.2       1 <0>        -0.2329
      9 C8         -1.7983    4.0222   -1.8122 C.2       1 <0>         0.1039
     10 N1         -1.9828    3.3827   -3.0074 N.pl3     1 <0>        -0.5849
     11 H2         -1.8055    3.7688   -3.8794 H         1 <0>         0.4255
     12 C9         -2.4588    2.1072   -2.7874 C.ar      1 <0>         0.0637
     13 C10        -2.5704    1.9414   -1.3952 C.ar      1 <0>        -0.0724
     14 C11        -3.0413    0.7357   -0.8714 C.ar      1 <0>        -0.1531
     15 C12        -3.3818   -0.2930   -1.7272 C.ar      1 <0>         0.1281
     16 C13        -3.2638   -0.1281   -3.1046 C.ar      1 <0>        -0.1762
     17 C14        -2.8073    1.0592   -3.6324 C.ar      1 <0>        -0.0694
     18 O1         -3.8347   -1.4718   -1.2226 O.3       1 <0>        -0.3174
     19 C15        -4.1698   -2.4941   -2.1632 C.3       1 <0>         0.0239
     20 H3          0.0021   -0.0041    0.0020 H         1 <0>         0.1175
     21 H4          1.0099    1.4631    0.0003 H         1 <0>         0.1169
     22 H5         -0.5399    1.4469   -0.8751 H         1 <0>         0.1301
     23 H6         -0.6800    0.4389    3.0053 H         1 <0>         0.1277
     24 H7          0.8895    0.5431    2.1626 H         1 <0>         0.1310
     25 H8          0.1954    2.1441    4.3303 H         1 <0>         0.1117
     26 H9          1.3745    2.6420    3.0731 H         1 <0>         0.0978
     27 H10        -1.6201    3.3008    3.2453 H         1 <0>         0.0996
     28 H11        -0.2530    4.4071    2.8844 H         1 <0>         0.1164
     29 H12        -2.9080    3.0455    1.1836 H         1 <0>         0.0923
     30 H13        -2.1540    4.6132    0.8063 H         1 <0>         0.1172
     31 H14        -1.4337    5.0326   -1.6996 H         1 <0>         0.1787
     32 H15        -3.1336    0.6067    0.1969 H         1 <0>         0.1190
     33 H16        -3.5332   -0.9388   -3.7654 H         1 <0>         0.1404
     34 H17        -2.7197    1.1762   -4.7025 H         1 <0>         0.1327
     35 H18        -4.5164   -3.3792   -1.6297 H         1 <0>         0.1067
     36 H19        -4.9594   -2.1356   -2.8235 H         1 <0>         0.0605
     37 H20        -3.2894   -2.7473   -2.7537 H         1 <0>         0.0592
     38 N2         -0.7151    1.5608    1.2286 N.4       1 <0>        -0.3921
     39 H21        -1.6745    1.1951    1.2270 H         1 <0>         0.4233
@<TRIPOS>BOND
     1    1   20 1
     2    1   21 1
     3    1   22 1
     4    1   38 1
     5    2    3 1
     6    2   23 1
     7    2   24 1
     8    2   38 1
     9    3    4 1
    10    3   25 1
    11    3   26 1
    12    4    5 1
    13    4   27 1
    14    4   28 1
    15    5    6 1
    16    5    7 1
    17    5   38 1
    18    7    8 1
    19    7   29 1
    20    7   30 1
    21    8   13 1
    22    8    9 2
    23    9   10 1
    24    9   31 1
    25   10   11 1
    26   10   12 1
    27   12   17 ar
    28   12   13 ar
    29   13   14 ar
    30   14   15 ar
    31   14   32 1
    32   15   16 ar
    33   15   18 1
    34   16   17 ar
    35   16   33 1
    36   17   34 1
    37   18   19 1
    38   19   35 1
    39   19   36 1
    40   19   37 1
    41   38   39 1
@<TRIPOS>MOLECULE
ZINC01548097
   59    62     0     0     0
SMALL
USER_CHARGES
1-[4-[3-[4-(6-fluorobenzo[d]isoxazol-3-yl)-1-piperidyl]propoxy]-3-methoxy-phenyl]ethanone
@<TRIPOS>ATOM
      1 C1          5.4534   19.1223    1.8869 C.3       1 <0>        -0.1922
      2 C2          4.3501   18.7399    2.8395 C.2       1 <0>         0.3932
      3 O1          4.0275   19.4980    3.7297 O.2       1 <0>        -0.4508
      4 C3          3.6653   17.4493    2.6899 C.ar      1 <0>        -0.1605
      5 C4          4.0360   16.5727    1.6630 C.ar      1 <0>        -0.0670
      6 C5          3.3928   15.3632    1.5254 C.ar      1 <0>        -0.1853
      7 C6          2.3755   15.0095    2.4028 C.ar      1 <0>         0.1243
      8 C7          1.9965   15.8797    3.4249 C.ar      1 <0>         0.0954
      9 C8          2.6401   17.0916    3.5742 C.ar      1 <0>        -0.1155
     10 O2          0.9963   15.5315    4.2781 O.3       1 <0>        -0.3070
     11 C9          0.6601   16.4707    5.3013 C.3       1 <0>         0.0217
     12 O3          1.7447   13.8158    2.2616 O.3       1 <0>        -0.2975
     13 C10         2.1786   12.9754    1.1904 C.3       1 <0>         0.0594
     14 C11         1.3580   11.6841    1.1907 C.3       1 <0>        -0.1527
     15 C12         1.8225   10.7843    0.0437 C.3       1 <0>        -0.0007
     16 C13         1.2834    8.7626   -1.1738 C.3       1 <0>         0.0027
     17 C14         0.3423    7.5563   -1.2082 C.3       1 <0>        -0.1449
     18 C15         0.5821    6.6925    0.0332 C.3       1 <0>        -0.0235
     19 C16         0.3647    7.5425    1.2881 C.3       1 <0>        -0.1441
     20 C17         1.3040    8.7501    1.2493 C.3       1 <0>        -0.0044
     21 C18        -0.3830    5.5351    0.0354 C.2       1 <0>         0.1306
     22 C19        -0.0312    4.1126    0.0244 C.ar      1 <0>        -0.2138
     23 C20         1.1811    3.4182    0.0091 C.ar      1 <0>        -0.0102
     24 C21         1.1816    2.0526    0.0018 C.ar      1 <0>        -0.1747
     25 C22        -0.0162    1.3468    0.0094 C.ar      1 <0>         0.1754
     26 C23        -1.2242    2.0150    0.0188 C.ar      1 <0>        -0.1636
     27 C24        -1.2442    3.4039    0.0322 C.ar      1 <0>         0.1189
     28 O4         -2.2366    4.3165    0.0466 O.3       1 <0>        -0.0742
     29 N1         -1.6781    5.6150    0.0482 N.2       1 <0>        -0.2747
     30 F1          0.0021   -0.0041    0.0020 F         1 <0>        -0.1150
     31 H1          5.0645   19.6089    1.1046 H         1 <0>         0.0900
     32 H2          6.1673   19.7681    2.3983 H         1 <0>         0.0928
     33 H3          5.9614   18.2228    1.5394 H         1 <0>         0.0866
     34 H4          4.8261   16.8453    0.9790 H         1 <0>         0.1431
     35 H5          3.6796   14.6878    0.7329 H         1 <0>         0.1405
     36 H6          2.3502   17.7645    4.3677 H         1 <0>         0.1507
     37 H7         -0.1505   16.0700    5.9101 H         1 <0>         0.1071
     38 H8          1.5320   16.6506    5.9301 H         1 <0>         0.0600
     39 H9          0.3422   17.4077    4.8442 H         1 <0>         0.0600
     40 H10         3.2338   12.7354    1.3213 H         1 <0>         0.0747
     41 H11         2.0390   13.4944    0.2421 H         1 <0>         0.0748
     42 H12         0.3028   11.9241    1.0598 H         1 <0>         0.1006
     43 H13         1.4976   11.1651    2.1390 H         1 <0>         0.1001
     44 H14         2.8777   10.5443    0.1746 H         1 <0>         0.1370
     45 H15         1.6829   11.3033   -0.9046 H         1 <0>         0.1353
     46 H16         2.3172    8.4170   -1.1787 H         1 <0>         0.1364
     47 H17         1.1053    9.3872   -2.0491 H         1 <0>         0.1367
     48 H18         0.5379    6.9676   -2.1045 H         1 <0>         0.1205
     49 H19        -0.6917    7.9008   -1.2176 H         1 <0>         0.0993
     50 H20         1.6044    6.3144    0.0219 H         1 <0>         0.1178
     51 H21        -0.6688    7.8874    1.3195 H         1 <0>         0.0992
     52 H22         0.5762    6.9440    2.1742 H         1 <0>         0.1203
     53 H23         2.3377    8.4046    1.2331 H         1 <0>         0.1369
     54 H24         1.1407    9.3656    2.1340 H         1 <0>         0.1376
     55 H25         2.1154    3.9600    0.0035 H         1 <0>         0.1452
     56 H26         2.1193    1.5169   -0.0097 H         1 <0>         0.1544
     57 H27        -2.1505    1.4597    0.0202 H         1 <0>         0.1585
     58 N2          1.0059    9.5530    0.0442 N.4       1 <0>        -0.3961
     59 H28         0.0123    9.8119    0.0539 H         1 <0>         0.4307
@<TRIPOS>BOND
     1    1    2 1
     2    1   31 1
     3    1   32 1
     4    1   33 1
     5    2    3 2
     6    2    4 1
     7    4    9 ar
     8    4    5 ar
     9    5    6 ar
    10    5   34 1
    11    6    7 ar
    12    6   35 1
    13    7    8 ar
    14    7   12 1
    15    8    9 ar
    16    8   10 1
    17    9   36 1
    18   10   11 1
    19   11   37 1
    20   11   38 1
    21   11   39 1
    22   12   13 1
    23   13   14 1
    24   13   40 1
    25   13   41 1
    26   14   15 1
    27   14   42 1
    28   14   43 1
    29   15   44 1
    30   15   45 1
    31   15   58 1
    32   16   17 1
    33   16   46 1
    34   16   47 1
    35   16   58 1
    36   17   18 1
    37   17   48 1
    38   17   49 1
    39   18   19 1
    40   18   21 1
    41   18   50 1
    42   19   20 1
    43   19   51 1
    44   19   52 1
    45   20   53 1
    46   20   54 1
    47   20   58 1
    48   21   29 2
    49   21   22 1
    50   22   27 ar
    51   22   23 ar
    52   23   24 ar
    53   23   55 1
    54   24   25 ar
    55   24   56 1
    56   25   26 ar
    57   25   30 1
    58   26   27 ar
    59   26   57 1
    60   27   28 1
    61   28   29 1
    62   58   59 1
@<TRIPOS>MOLECULE
ZINC03991231
   61    64     0     0     0
SMALL
USER_CHARGES

@<TRIPOS>ATOM
      1 C1          2.8242    0.5672    1.3995 C.3       1 <0>        -0.1823
      2 C2          2.4894    1.0428   -0.0156 C.3       1 <0>         0.1428
      3 H1          3.2763    1.7079   -0.3711 H         1 <0>         0.1094
      4 C3          1.1761    1.7818    0.0004 C.ar      1 <0>        -0.1006
      5 C4         -0.0126    1.0758    0.0080 C.ar      1 <0>        -0.1111
      6 C5         -1.2199    1.7491    0.0173 C.ar      1 <0>        -0.1645
      7 C6         -1.2404    3.1346    0.0298 C.ar      1 <0>         0.0901
      8 C7         -0.0440    3.8452    0.0218 C.ar      1 <0>         0.1113
      9 C8          1.1627    3.1641    0.0070 C.ar      1 <0>        -0.1622
     10 O1         -0.0590    5.2050    0.0287 O.3       1 <0>        -0.3080
     11 C9          1.2070    5.8678    0.0202 C.3       1 <0>         0.0232
     12 O2         -2.4272    3.7985    0.0443 O.3       1 <0>        -0.3020
     13 C10        -3.6150    3.0040    0.0519 C.3       1 <0>         0.0612
     14 C11        -4.8408    3.9194    0.0679 C.3       1 <0>        -0.1536
     15 C12        -6.1125    3.0687    0.0760 C.3       1 <0>        -0.0004
     16 C13        -7.1485    5.0330   -0.8876 C.3       1 <0>        -0.0092
     17 C14        -8.3198    6.0073   -0.7432 C.3       1 <0>        -0.1436
     18 C15        -9.6339    5.2556   -0.9724 C.3       1 <0>        -0.0237
     19 C16        -9.7334    4.1008    0.0282 C.3       1 <0>        -0.1447
     20 C17        -8.5211    3.1818   -0.1386 C.3       1 <0>         0.0030
     21 C18       -10.7947    6.1957   -0.7735 C.2       1 <0>         0.1310
     22 C19       -11.8112    6.5417   -1.7707 C.ar      1 <0>        -0.2138
     23 C20       -12.0299    6.1628   -3.0977 C.ar      1 <0>        -0.0101
     24 C21       -13.0950    6.6734   -3.7831 C.ar      1 <0>        -0.1747
     25 C22       -13.9656    7.5671   -3.1697 C.ar      1 <0>         0.1753
     26 C23       -13.7665    7.9532   -1.8594 C.ar      1 <0>        -0.1637
     27 C24       -12.6879    7.4448   -1.1467 C.ar      1 <0>         0.1188
     28 O3        -12.2403    7.6265    0.1121 O.3       1 <0>        -0.0744
     29 N1        -11.0810    6.8433    0.3139 N.2       1 <0>        -0.2749
     30 F1        -15.0150    8.0621   -3.8619 F         1 <0>        -0.1151
     31 O4          2.3902   -0.0859   -0.8864 O.3       1 <0>        -0.5526
     32 H2          2.0373   -0.0980    1.7550 H         1 <0>         0.0610
     33 H3          3.7741    0.0327    1.3879 H         1 <0>         0.0728
     34 H4          2.8999    1.4281    2.0638 H         1 <0>         0.0688
     35 H5          0.0021   -0.0041    0.0020 H         1 <0>         0.1284
     36 H6         -2.1471    1.1953    0.0191 H         1 <0>         0.1342
     37 H7          2.0926    3.7132    0.0011 H         1 <0>         0.1408
     38 H8          1.0523    6.9467    0.0271 H         1 <0>         0.1049
     39 H9          1.7755    5.5766    0.9035 H         1 <0>         0.0584
     40 H10         1.7588    5.5856   -0.8764 H         1 <0>         0.0588
     41 H11        -3.6398    2.3791   -0.8409 H         1 <0>         0.0715
     42 H12        -3.6228    2.3707    0.9390 H         1 <0>         0.0713
     43 H13        -4.8160    4.5443    0.9606 H         1 <0>         0.0998
     44 H14        -4.8329    4.5526   -0.8193 H         1 <0>         0.1021
     45 H15        -6.1373    2.4438   -0.8167 H         1 <0>         0.1362
     46 H16        -6.1203    2.4354    0.9631 H         1 <0>         0.1344
     47 H17        -6.2121    5.5622   -0.7109 H         1 <0>         0.1413
     48 H18        -7.1452    4.6158   -1.8946 H         1 <0>         0.1370
     49 H19        -8.2232    6.8044   -1.4804 H         1 <0>         0.1200
     50 H20        -8.3158    6.4360    0.2590 H         1 <0>         0.0991
     51 H21        -9.6551    4.8603   -1.9880 H         1 <0>         0.1177
     52 H22       -10.6468    3.5358   -0.1578 H         1 <0>         0.1203
     53 H23        -9.7518    4.4984    1.0430 H         1 <0>         0.0992
     54 H24        -8.5115    2.7732   -1.1490 H         1 <0>         0.1361
     55 H25        -8.5818    2.3665    0.5823 H         1 <0>         0.1368
     56 H26       -11.3576    5.4690   -3.5805 H         1 <0>         0.1452
     57 H27       -13.2626    6.3802   -4.8089 H         1 <0>         0.1544
     58 H28       -14.4468    8.6484   -1.3900 H         1 <0>         0.1585
     59 H29         1.7081   -0.7217   -0.6302 H         1 <0>         0.3741
     60 N2         -7.2904    3.9596    0.1188 N.4       1 <0>        -0.3954
     61 H30        -7.3537    4.3840    1.0517 H         1 <0>         0.4311
@<TRIPOS>BOND
     1    1    2 1
     2    1   32 1
     3    1   33 1
     4    1   34 1
     5    2    3 1
     6    2    4 1
     7    2   31 1
     8    4    9 ar
     9    4    5 ar
    10    5    6 ar
    11    5   35 1
    12    6    7 ar
    13    6   36 1
    14    7    8 ar
    15    7   12 1
    16    8    9 ar
    17    8   10 1
    18    9   37 1
    19   10   11 1
    20   11   38 1
    21   11   39 1
    22   11   40 1
    23   12   13 1
    24   13   14 1
    25   13   41 1
    26   13   42 1
    27   14   15 1
    28   14   43 1
    29   14   44 1
    30   15   45 1
    31   15   46 1
    32   15   60 1
    33   16   17 1
    34   16   47 1
    35   16   48 1
    36   16   60 1
    37   17   18 1
    38   17   49 1
    39   17   50 1
    40   18   19 1
    41   18   21 1
    42   18   51 1
    43   19   20 1
    44   19   52 1
    45   19   53 1
    46   20   54 1
    47   20   55 1
    48   20   60 1
    49   21   29 2
    50   21   22 1
    51   22   27 ar
    52   22   23 ar
    53   23   24 ar
    54   23   56 1
    55   24   25 ar
    56   24   57 1
    57   25   26 ar
    58   25   30 1
    59   26   27 ar
    60   26   58 1
    61   27   28 1
    62   28   29 1
    63   31   59 1
    64   60   61 1
@<TRIPOS>MOLECULE
ZINC03991232
   61    64     0     0     0
SMALL
USER_CHARGES

@<TRIPOS>ATOM
      1 C1          3.7121   19.8053    1.9254 C.3       1 <0>        -0.1821
      2 C2          4.3665   18.7713    2.8438 C.3       1 <0>         0.1428
      3 H1          4.2907   19.1049    3.8788 H         1 <0>         0.1100
      4 C3          3.6641   17.4469    2.6902 C.ar      1 <0>        -0.1004
      5 C4          4.0334   16.5839    1.6752 C.ar      1 <0>        -0.1113
      6 C5          3.3957   15.3656    1.5333 C.ar      1 <0>        -0.1644
      7 C6          2.3767   15.0116    2.4030 C.ar      1 <0>         0.0898
      8 C7          2.0052   15.8801    3.4249 C.ar      1 <0>         0.1115
      9 C8          2.6521   17.0974    3.5648 C.ar      1 <0>        -0.1629
     10 O1          1.0092   15.5349    4.2842 O.3       1 <0>        -0.3079
     11 C9          0.6813   16.4756    5.3087 C.3       1 <0>         0.0232
     12 O2          1.7447   13.8158    2.2616 O.3       1 <0>        -0.3019
     13 C10         2.1786   12.9754    1.1904 C.3       1 <0>         0.0617
     14 C11         1.3580   11.6841    1.1907 C.3       1 <0>        -0.1520
     15 C12         1.8225   10.7843    0.0437 C.3       1 <0>        -0.0007
     16 C13         1.2834    8.7626   -1.1738 C.3       1 <0>         0.0026
     17 C14         0.3423    7.5563   -1.2082 C.3       1 <0>        -0.1448
     18 C15         0.5821    6.6925    0.0332 C.3       1 <0>        -0.0236
     19 C16         0.3647    7.5425    1.2881 C.3       1 <0>        -0.1439
     20 C17         1.3040    8.7501    1.2493 C.3       1 <0>        -0.0044
     21 C18        -0.3830    5.5351    0.0354 C.2       1 <0>         0.1308
     22 C19        -0.0312    4.1126    0.0244 C.ar      1 <0>        -0.2137
     23 C20         1.1811    3.4182    0.0091 C.ar      1 <0>        -0.0102
     24 C21         1.1816    2.0526    0.0018 C.ar      1 <0>        -0.1747
     25 C22        -0.0162    1.3468    0.0094 C.ar      1 <0>         0.1753
     26 C23        -1.2242    2.0150    0.0188 C.ar      1 <0>        -0.1636
     27 C24        -1.2442    3.4039    0.0322 C.ar      1 <0>         0.1188
     28 O3         -2.2366    4.3165    0.0466 O.3       1 <0>        -0.0743
     29 N1         -1.6781    5.6150    0.0482 N.2       1 <0>        -0.2747
     30 F1          0.0021   -0.0041    0.0020 F         1 <0>        -0.1151
     31 O4          5.7433   18.6241    2.4906 O.3       1 <0>        -0.5527
     32 H2          2.6619   19.9176    2.1949 H         1 <0>         0.0688
     33 H3          4.2202   20.7632    2.0365 H         1 <0>         0.0729
     34 H4          3.7880   19.4717    0.8905 H         1 <0>         0.0610
     35 H5          4.8247   16.8604    0.9942 H         1 <0>         0.1286
     36 H6          3.6889   14.6915    0.7422 H         1 <0>         0.1342
     37 H7          2.3655   17.7734    4.3569 H         1 <0>         0.1408
     38 H8          0.3631   17.4131    4.8529 H         1 <0>         0.0583
     39 H9         -0.1266   16.0774    5.9225 H         1 <0>         0.1049
     40 H10         1.5574   16.6538    5.9323 H         1 <0>         0.0588
     41 H11         3.2338   12.7354    1.3213 H         1 <0>         0.0715
     42 H12         2.0390   13.4944    0.2421 H         1 <0>         0.0715
     43 H13         0.3028   11.9241    1.0598 H         1 <0>         0.0997
     44 H14         1.4976   11.1651    2.1390 H         1 <0>         0.0994
     45 H15         2.8777   10.5443    0.1746 H         1 <0>         0.1367
     46 H16         1.6829   11.3033   -0.9046 H         1 <0>         0.1349
     47 H17         2.3172    8.4170   -1.1787 H         1 <0>         0.1363
     48 H18         1.1053    9.3872   -2.0491 H         1 <0>         0.1365
     49 H19         0.5379    6.9676   -2.1045 H         1 <0>         0.1204
     50 H20        -0.6917    7.9008   -1.2176 H         1 <0>         0.0992
     51 H21         1.6044    6.3144    0.0219 H         1 <0>         0.1178
     52 H22        -0.6688    7.8874    1.3195 H         1 <0>         0.0991
     53 H23         0.5762    6.9440    2.1742 H         1 <0>         0.1203
     54 H24         2.3377    8.4046    1.2331 H         1 <0>         0.1368
     55 H25         1.1407    9.3656    2.1340 H         1 <0>         0.1376
     56 H26         2.1154    3.9600    0.0035 H         1 <0>         0.1452
     57 H27         2.1193    1.5169   -0.0097 H         1 <0>         0.1544
     58 H28        -2.1505    1.4597    0.0202 H         1 <0>         0.1585
     59 H29         5.8866   18.3289    1.5809 H         1 <0>         0.3741
     60 N2          1.0059    9.5530    0.0442 N.4       1 <0>        -0.3961
     61 H30         0.0123    9.8119    0.0539 H         1 <0>         0.4305
@<TRIPOS>BOND
     1    1    2 1
     2    1   32 1
     3    1   33 1
     4    1   34 1
     5    2    3 1
     6    2    4 1
     7    2   31 1
     8    4    9 ar
     9    4    5 ar
    10    5    6 ar
    11    5   35 1
    12    6    7 ar
    13    6   36 1
    14    7    8 ar
    15    7   12 1
    16    8    9 ar
    17    8   10 1
    18    9   37 1
    19   10   11 1
    20   11   38 1
    21   11   39 1
    22   11   40 1
    23   12   13 1
    24   13   14 1
    25   13   41 1
    26   13   42 1
    27   14   15 1
    28   14   43 1
    29   14   44 1
    30   15   45 1
    31   15   46 1
    32   15   60 1
    33   16   17 1
    34   16   47 1
    35   16   48 1
    36   16   60 1
    37   17   18 1
    38   17   49 1
    39   17   50 1
    40   18   19 1
    41   18   21 1
    42   18   51 1
    43   19   20 1
    44   19   52 1
    45   19   53 1
    46   20   54 1
    47   20   55 1
    48   20   60 1
    49   21   29 2
    50   21   22 1
    51   22   27 ar
    52   22   23 ar
    53   23   24 ar
    54   23   56 1
    55   24   25 ar
    56   24   57 1
    57   25   26 ar
    58   25   30 1
    59   26   27 ar
    60   26   58 1
    61   27   28 1
    62   28   29 1
    63   31   59 1
    64   60   61 1
@<TRIPOS>MOLECULE
ZINC00346678
   33    34     0     0     0
SMALL
USER_CHARGES
(4-fluorophenyl)-(1-methyl-4-piperidyl)methanone
@<TRIPOS>ATOM
      1 C1         -7.9069    2.4938    1.0097 C.3       1 <0>        -0.0424
      2 C2         -6.2448    1.6017   -0.5075 C.3       1 <0>         0.0001
      3 C3         -4.9034    0.8682   -0.5762 C.3       1 <0>        -0.1410
      4 C4         -3.8113    1.7538    0.0300 C.3       1 <0>        -0.1360
      5 C5         -4.1896    2.1047    1.4716 C.3       1 <0>        -0.1412
      6 C6         -5.5524    2.8010    1.4811 C.3       1 <0>         0.0007
      7 C7         -2.4989    1.0131    0.0198 C.2       1 <0>         0.4060
      8 O1         -2.4871   -0.1996    0.0135 O.2       1 <0>        -0.4332
      9 C8         -1.2330    1.7606    0.0174 C.ar      1 <0>        -0.1968
     10 C9         -0.0126    1.0758    0.0080 C.ar      1 <0>        -0.0239
     11 C10         1.1699    1.7822    0.0005 C.ar      1 <0>        -0.1628
     12 C11         1.1529    3.1693    0.0071 C.ar      1 <0>         0.1465
     13 C12        -0.0534    3.8542    0.0218 C.ar      1 <0>        -0.1661
     14 C13        -1.2430    3.1599    0.0299 C.ar      1 <0>        -0.0465
     15 F1          2.3162    3.8562   -0.0012 F         1 <0>        -0.1242
     16 H1         -8.6436    1.7839    0.6335 H         1 <0>         0.1230
     17 H2         -8.1168    2.7148    2.0562 H         1 <0>         0.1229
     18 H3         -7.9578    3.4134    0.4268 H         1 <0>         0.1235
     19 H4         -6.1824    2.5270   -1.0803 H         1 <0>         0.1324
     20 H5         -7.0271    0.9681   -0.9254 H         1 <0>         0.1344
     21 H6         -4.6602    0.6511   -1.6163 H         1 <0>         0.1167
     22 H7         -4.9688   -0.0642   -0.0155 H         1 <0>         0.1013
     23 H8         -3.7251    2.5922   -0.5082 H         1 <0>         0.1045
     24 H9         -4.2439    1.1926    2.0659 H         1 <0>         0.0973
     25 H10        -3.4367    2.7704    1.8937 H         1 <0>         0.1203
     26 H11        -5.4933    3.7207    0.8990 H         1 <0>         0.1337
     27 H12        -5.8317    3.0383    2.5076 H         1 <0>         0.1354
     28 H13         0.0021   -0.0041    0.0020 H         1 <0>         0.1473
     29 H14         2.1124    1.2551   -0.0110 H         1 <0>         0.1494
     30 H15        -0.0598    4.9342    0.0273 H         1 <0>         0.1474
     31 H16        -2.1815    3.6943    0.0414 H         1 <0>         0.1383
     32 N1         -6.5634    1.8876    0.9077 N.4       1 <0>        -0.3981
     33 H17        -6.5540    1.0070    1.4356 H         1 <0>         0.4308
@<TRIPOS>BOND
     1    1   16 1
     2    1   17 1
     3    1   18 1
     4    1   32 1
     5    2    3 1
     6    2   19 1
     7    2   20 1
     8    2   32 1
     9    3    4 1
    10    3   21 1
    11    3   22 1
    12    4    5 1
    13    4    7 1
    14    4   23 1
    15    5    6 1
    16    5   24 1
    17    5   25 1
    18    6   26 1
    19    6   27 1
    20    6   32 1
    21    7    8 2
    22    7    9 1
    23    9   14 ar
    24    9   10 ar
    25   10   11 ar
    26   10   28 1
    27   11   12 ar
    28   11   29 1
    29   12   13 ar
    30   12   15 1
    31   13   14 ar
    32   13   30 1
    33   14   31 1
    34   32   33 1
@<TRIPOS>MOLECULE
ZINC00141452
   30    31     0     0     0
SMALL
USER_CHARGES
(4-fluorophenyl)-(4-piperidyl)methanone
@<TRIPOS>ATOM
      1 C1          0.5790    3.6753    3.8012 C.ar      1 <0>        -0.0460
      2 C2          1.2449    3.9390    4.9778 C.ar      1 <0>        -0.1663
      3 C3          0.5460    4.3904    6.0878 C.ar      1 <0>         0.1468
      4 C4         -0.8258    4.5849    6.0194 C.ar      1 <0>        -0.1629
      5 C5         -1.5031    4.3300    4.8473 C.ar      1 <0>        -0.0238
      6 C6         -0.8040    3.8744    3.7239 C.ar      1 <0>        -0.1976
      7 C7         -1.5204    3.6004    2.4696 C.2       1 <0>         0.4059
      8 O1         -2.7197    3.7692    2.4070 O.2       1 <0>        -0.4334
      9 C8         -0.7644    3.1099    1.2618 C.3       1 <0>        -0.1368
     10 C9         -0.7286    1.5791    1.2674 C.3       1 <0>        -0.1410
     11 C10        -0.0127    1.0858    0.0080 C.3       1 <0>         0.0003
     12 C11        -0.7289    3.0396   -1.2338 C.3       1 <0>        -0.0007
     13 C12        -1.4660    3.5913   -0.0113 C.3       1 <0>        -0.1413
     14 F1          1.2042    4.6414    7.2406 F         1 <0>        -0.1240
     15 H1          1.1236    3.3196    2.9390 H         1 <0>         0.1386
     16 H2          2.3129    3.7896    5.0376 H         1 <0>         0.1475
     17 H3         -1.3640    4.9365    6.8872 H         1 <0>         0.1495
     18 H4         -2.5712    4.4811    4.7956 H         1 <0>         0.1473
     19 H5          0.1694    3.4670    1.2854 H         1 <0>         0.1038
     20 H6         -1.7471    1.1912    1.2827 H         1 <0>         0.0980
     21 H7         -0.1928    1.2311    2.1505 H         1 <0>         0.1199
     22 H8          0.0021   -0.0041    0.0020 H         1 <0>         0.1385
     23 H9          1.0099    1.4629    0.0003 H         1 <0>         0.1336
     24 H10         0.2971    3.4074   -1.2358 H         1 <0>         0.1323
     25 H11        -1.2345    3.3688   -2.1416 H         1 <0>         0.1376
     26 H12        -1.4570    4.6808   -0.0419 H         1 <0>         0.1164
     27 H13        -2.4961    3.2350   -0.0160 H         1 <0>         0.1020
     28 N1         -0.7276    1.5649   -1.1903 N.4       1 <0>        -0.5180
     29 H14        -1.6967    1.2265   -1.1639 H         1 <0>         0.4346
     30 H15        -0.2612    1.2022   -2.0300 H         1 <0>         0.4389
@<TRIPOS>BOND
     1    1    6 ar
     2    1    2 ar
     3    1   15 1
     4    2    3 ar
     5    2   16 1
     6    3    4 ar
     7    3   14 1
     8    4    5 ar
     9    4   17 1
    10    5    6 ar
    11    5   18 1
    12    6    7 1
    13    7    8 2
    14    7    9 1
    15    9   13 1
    16    9   10 1
    17    9   19 1
    18   10   11 1
    19   10   20 1
    20   10   21 1
    21   11   22 1
    22   11   23 1
    23   11   28 1
    24   12   13 1
    25   12   24 1
    26   12   25 1
    27   12   28 1
    28   13   26 1
    29   13   27 1
    30   28   29 1
    31   28   30 1
@<TRIPOS>MOLECULE
ZINC27617674
   40    43     0     0     0
SMALL
USER_CHARGES
6-(4-methylpiperazin-1-yl)pyrido[4,3-b][1,4]benzothiazepine
@<TRIPOS>ATOM
      1 C1          7.6299    6.3420   -1.6026 C.3       1 <0>         0.0221
      2 N1          6.4469    6.1282   -0.7583 N.3       1 <0>        -0.5422
      3 C2          5.2505    5.8939   -1.5778 C.3       1 <0>         0.0383
      4 C3          4.0146    5.8566   -0.6727 C.3       1 <0>         0.1231
      5 N2          4.2439    4.8664    0.3905 N.pl3     1 <0>        -0.5943
      6 C4          5.4875    4.9581    1.1704 C.3       1 <0>         0.1091
      7 C5          6.6681    5.0272    0.1888 C.3       1 <0>         0.0389
      8 C6          3.3166    3.8835    0.6524 C.2       1 <0>         0.5231
      9 N3          2.3467    3.8219   -0.1654 N.2       1 <0>        -0.6061
     10 C7          1.2634    3.0088   -0.2004 C.ar      1 <0>         0.1628
     11 C8          0.0007    3.5525   -0.4504 C.ar      1 <0>         0.0965
     12 N4         -1.0683    2.7818   -0.4983 N.ar      1 <0>        -0.4530
     13 C9         -1.0061    1.4761   -0.3218 C.ar      1 <0>         0.0698
     14 C10         0.2030    0.8540   -0.0613 C.ar      1 <0>        -0.1015
     15 C11         1.3541    1.6244   -0.0000 C.ar      1 <0>        -0.1486
     16 S1          2.9132    0.8745    0.3292 S.3       1 <0>        -0.0116
     17 C12         3.4389    1.6691    1.8133 C.ar      1 <0>        -0.0905
     18 C13         3.5934    3.0621    1.8326 C.ar      1 <0>        -0.0919
     19 C14         4.0232    3.6760    3.0138 C.ar      1 <0>        -0.0863
     20 C15         4.2842    2.9169    4.1355 C.ar      1 <0>        -0.1056
     21 C16         4.1242    1.5429    4.1068 C.ar      1 <0>        -0.0934
     22 C17         3.7009    0.9189    2.9467 C.ar      1 <0>        -0.0768
     23 H1          7.4373    7.1700   -2.3007 H         1 <0>         0.0721
     24 H2          7.8450    5.4253   -2.1713 H         1 <0>         0.0265
     25 H3          8.4932    6.5908   -0.9679 H         1 <0>         0.0716
     26 H4          5.1443    6.7060   -2.3121 H         1 <0>         0.0892
     27 H5          5.3495    4.9335   -2.1050 H         1 <0>         0.0396
     28 H6          3.8535    6.8510   -0.2309 H         1 <0>         0.0738
     29 H7          3.1335    5.5722   -1.2667 H         1 <0>         0.1086
     30 H8          5.4626    5.8632    1.7951 H         1 <0>         0.0810
     31 H9          5.5831    4.0710    1.8138 H         1 <0>         0.0972
     32 H10         6.7447    4.0787   -0.3630 H         1 <0>         0.0405
     33 H11         7.6003    5.2039    0.7453 H         1 <0>         0.0902
     34 H12        -0.1010    4.6164   -0.6060 H         1 <0>         0.1632
     35 H13        -1.9091    0.8862   -0.3767 H         1 <0>         0.1635
     36 H14         0.2495   -0.2147    0.0873 H         1 <0>         0.1446
     37 H15         4.1514    4.7478    3.0475 H         1 <0>         0.1381
     38 H16         4.6164    3.3988    5.0432 H         1 <0>         0.1377
     39 H17         4.3295    0.9572    4.9906 H         1 <0>         0.1385
     40 H18         3.5754   -0.1536    2.9254 H         1 <0>         0.1419
@<TRIPOS>BOND
     1    1    2 1
     2    1   23 1
     3    1   24 1
     4    1   25 1
     5    2    7 1
     6    2    3 1
     7    3    4 1
     8    3   26 1
     9    3   27 1
    10    4    5 1
    11    4   28 1
    12    4   29 1
    13    5    6 1
    14    5    8 1
    15    6    7 1
    16    6   30 1
    17    6   31 1
    18    7   32 1
    19    7   33 1
    20    8   18 1
    21    8    9 2
    22    9   10 1
    23   10   15 ar
    24   10   11 ar
    25   11   12 ar
    26   11   34 1
    27   12   13 ar
    28   13   14 ar
    29   13   35 1
    30   14   15 ar
    31   14   36 1
    32   15   16 1
    33   16   17 1
    34   17   22 ar
    35   17   18 ar
    36   18   19 ar
    37   19   20 ar
    38   19   37 1
    39   20   21 ar
    40   20   38 1
    41   21   22 ar
    42   21   39 1
    43   22   40 1
@<TRIPOS>MOLECULE
ZINC11632569
   35    36     0     0     0
SMALL
USER_CHARGES
1-(2,5-dimethoxyphenyl)piperazine
@<TRIPOS>ATOM
      1 C1         -3.6155    2.9977    0.1033 C.3       1 <0>         0.0245
      2 O1         -2.4303    3.7960    0.0979 O.3       1 <0>        -0.3157
      3 C2         -1.2419    3.1365    0.0574 C.ar      1 <0>         0.1208
      4 C3         -1.2198    1.7502    0.0172 C.ar      1 <0>        -0.1717
      5 C4         -0.0130    1.0762   -0.0188 C.ar      1 <0>        -0.1444
      6 C5          1.1771    1.7841   -0.0264 C.ar      1 <0>         0.0934
      7 C6          1.1583    3.1765    0.0081 C.ar      1 <0>         0.0904
      8 C7         -0.0534    3.8503    0.0499 C.ar      1 <0>        -0.1616
      9 N1          2.3597    3.8943    0.0009 N.pl3     1 <0>        -0.4748
     10 C8          2.1145    5.3295   -0.1985 C.3       1 <0>         0.0174
     11 C9          3.4534    6.0665   -0.2796 C.3       1 <0>         0.0024
     12 C10         4.4596    4.3966    1.1548 C.3       1 <0>         0.0027
     13 C11         3.1207    3.6595    1.2359 C.3       1 <0>         0.0252
     14 O2          2.3642    1.1199   -0.0680 O.3       1 <0>        -0.3119
     15 C12         2.3082   -0.3075   -0.1022 C.3       1 <0>         0.0228
     16 H1         -4.4906    3.6468    0.1371 H         1 <0>         0.1068
     17 H2         -3.6484    2.3902   -0.8011 H         1 <0>         0.0597
     18 H3         -3.6115    2.3473    0.9779 H         1 <0>         0.0590
     19 H4         -2.1468    1.1960    0.0183 H         1 <0>         0.1385
     20 H5          0.0014   -0.0034   -0.0455 H         1 <0>         0.1408
     21 H6         -0.0710    4.9298    0.0763 H         1 <0>         0.1415
     22 H7          1.5606    5.4784   -1.1254 H         1 <0>         0.1290
     23 H8          1.5350    5.7191    0.6384 H         1 <0>         0.0713
     24 H9          3.2737    7.1350   -0.3985 H         1 <0>         0.1409
     25 H10         4.0215    5.6958   -1.1329 H         1 <0>         0.1404
     26 H11         5.0135    4.2476    2.0817 H         1 <0>         0.1399
     27 H12         5.0393    4.0067    0.3181 H         1 <0>         0.1409
     28 H13         2.5527    4.0302    2.0892 H         1 <0>         0.0656
     29 H14         3.3001    2.5910    1.3550 H         1 <0>         0.1335
     30 H15         1.7618   -0.6286   -0.9890 H         1 <0>         0.0593
     31 H16         3.3205   -0.7103   -0.1335 H         1 <0>         0.1048
     32 H17         1.7994   -0.6726    0.7900 H         1 <0>         0.0572
     33 N2          4.2176    5.8389    0.9615 N.4       1 <0>        -0.5191
     34 H18         3.6840    6.2030    1.7597 H         1 <0>         0.4308
     35 H19         5.1180    6.3284    0.8998 H         1 <0>         0.4392
@<TRIPOS>BOND
     1    1    2 1
     2    1   16 1
     3    1   17 1
     4    1   18 1
     5    2    3 1
     6    3    8 ar
     7    3    4 ar
     8    4    5 ar
     9    4   19 1
    10    5    6 ar
    11    5   20 1
    12    6    7 ar
    13    6   14 1
    14    7    8 ar
    15    7    9 1
    16    8   21 1
    17    9   13 1
    18    9   10 1
    19   10   11 1
    20   10   22 1
    21   10   23 1
    22   11   24 1
    23   11   25 1
    24   11   33 1
    25   12   13 1
    26   12   26 1
    27   12   27 1
    28   12   33 1
    29   13   28 1
    30   13   29 1
    31   14   15 1
    32   15   30 1
    33   15   31 1
    34   15   32 1
    35   33   34 1
    36   33   35 1
@<TRIPOS>MOLECULE
ZINC27714862
   38    39     0     0     0
SMALL
USER_CHARGES
1-(2,5-dimethoxy-4-methyl-phenyl)piperazine
@<TRIPOS>ATOM
      1 C1         -2.0173    2.4476    3.4994 C.3       1 <0>        -0.1135
      2 C2         -2.6835    1.5748    2.4672 C.ar      1 <0>        -0.0744
      3 C3         -4.0076    1.2073    2.6248 C.ar      1 <0>        -0.1509
      4 C4         -4.6223    0.4057    1.6783 C.ar      1 <0>         0.1001
      5 C5         -3.9061   -0.0313    0.5658 C.ar      1 <0>         0.0810
      6 C6         -2.5803    0.3427    0.4073 C.ar      1 <0>        -0.2119
      7 C7         -1.9678    1.1414    1.3614 C.ar      1 <0>         0.1161
      8 O1         -0.6662    1.5041    1.2097 O.3       1 <0>        -0.3062
      9 C8          0.0105    1.0218    0.0472 C.3       1 <0>         0.0235
     10 N1         -4.5252   -0.8418   -0.3925 N.pl3     1 <0>        -0.4742
     11 C9         -3.6812   -0.9833   -1.5872 C.3       1 <0>         0.0169
     12 C10        -4.4256   -1.8084   -2.6396 C.3       1 <0>         0.0034
     13 N2         -4.7633   -3.1238   -2.0780 N.4       1 <0>        -0.5384
     14 C11        -5.6072   -2.9823   -0.8833 C.3       1 <0>         0.0015
     15 C12        -4.8628   -2.1572    0.1691 C.3       1 <0>         0.0233
     16 O2         -5.9250    0.0442    1.8345 O.3       1 <0>        -0.3117
     17 C13        -6.5973    0.5281    2.9989 C.3       1 <0>         0.0190
     18 H1         -2.7369    2.6881    4.2958 H         1 <0>         0.0691
     19 H2         -1.6712    3.3777    3.0249 H         1 <0>         0.0775
     20 H3         -1.1575    1.9141    3.9309 H         1 <0>         0.0767
     21 H4         -4.5623    1.5458    3.4873 H         1 <0>         0.1442
     22 H5         -2.0239    0.0089   -0.4561 H         1 <0>         0.1386
     23 H6          1.0481    1.3869    0.0490 H         1 <0>         0.1085
     24 H7         -0.5046    1.3854   -0.8542 H         1 <0>         0.0551
     25 H8          0.0089   -0.0782    0.0519 H         1 <0>         0.0523
     26 H9         -3.4528    0.0125   -1.9948 H         1 <0>         0.1253
     27 H10        -2.7444   -1.4922   -1.3162 H         1 <0>         0.0663
     28 H11        -5.3483   -1.2850   -2.9305 H         1 <0>         0.1381
     29 H12        -3.7843   -1.9397   -3.5236 H         1 <0>         0.1402
     30 H13        -5.3092   -3.7139   -2.8289 H         1 <0>         0.4576
     31 H14        -6.5440   -2.4734   -1.1543 H         1 <0>         0.1381
     32 H15        -5.8356   -3.9781   -0.4756 H         1 <0>         0.1400
     33 H16        -3.9395   -2.6795    0.4602 H         1 <0>         0.0631
     34 H17        -5.5036   -2.0249    1.0533 H         1 <0>         0.1329
     35 H18        -7.6354    0.1642    3.0007 H         1 <0>         0.1060
     36 H19        -6.5944    1.6281    2.9934 H         1 <0>         0.0607
     37 H20        -6.0797    0.1645    3.8988 H         1 <0>         0.0586
     38 H21        -3.8394   -3.6512   -1.7981 H         1 <0>         0.4472
@<TRIPOS>BOND
     1    1    2 1
     2    1   18 1
     3    1   19 1
     4    1   20 1
     5    2    7 ar
     6    2    3 ar
     7    3    4 ar
     8    3   21 1
     9    4    5 ar
    10    4   16 1
    11    5    6 ar
    12    5   10 1
    13    6    7 ar
    14    6   22 1
    15    7    8 1
    16    8    9 1
    17    9   23 1
    18    9   24 1
    19    9   25 1
    20   10   15 1
    21   10   11 1
    22   11   12 1
    23   11   26 1
    24   11   27 1
    25   12   13 1
    26   12   28 1
    27   12   29 1
    28   13   14 1
    29   13   30 1
    30   13   38 1
    31   14   15 1
    32   14   31 1
    33   14   32 1
    34   15   33 1
    35   15   34 1
    36   16   17 1
    37   17   35 1
    38   17   36 1
    39   17   37 1
@<TRIPOS>MOLECULE
ZINC31502170
   52    55     0     0     0
SMALL
USER_CHARGES
4-[4-(4-furo[3,2-c]pyridin-4-ylpiperazin-1-yl)butyl]morpholine-3,5-dione
@<TRIPOS>ATOM
      1 C1        -10.2631    7.9708    3.7407 C.ar      1 <0>        -0.1612
      2 C2        -10.0970    6.6916    4.1921 C.ar      1 <0>         0.1368
      3 N1         -8.9194    6.0890    4.1607 N.ar      1 <0>        -0.5230
      4 C3         -7.8345    6.6934    3.7016 C.ar      1 <0>         0.3506
      5 C4         -7.9199    8.0048    3.2206 C.ar      1 <0>        -0.1893
      6 C5         -9.1621    8.6628    3.2388 C.ar      1 <0>         0.1083
      7 O1         -8.9726    9.8918    2.7297 O.3       1 <0>        -0.1803
      8 C6         -7.6852   10.0735    2.3818 C.2       1 <0>         0.0257
      9 C7         -6.9752    8.9680    2.6492 C.2       1 <0>        -0.2037
     10 N2         -6.6174    6.0265    3.6923 N.pl3     1 <0>        -0.4725
     11 C8         -6.7562    4.6695    4.2392 C.3       1 <0>         0.0365
     12 C9         -5.3817    3.9979    4.2853 C.3       1 <0>        -0.0023
     13 N3         -4.8118    3.9611    2.9313 N.4       1 <0>        -0.4027
     14 C10        -4.6729    5.3180    2.3843 C.3       1 <0>        -0.0027
     15 C11        -6.0474    5.9896    2.3383 C.3       1 <0>         0.0233
     16 C12        -3.5235    3.2551    2.9214 C.3       1 <0>        -0.0046
     17 C13        -3.0831    3.0179    1.4755 C.3       1 <0>        -0.1450
     18 C14        -1.7414    2.2827    1.4652 C.3       1 <0>        -0.1307
     19 C15        -1.3009    2.0454    0.0193 C.3       1 <0>         0.0891
     20 N4         -0.0162    1.3414    0.0094 N.am      1 <0>        -0.5700
     21 C16         1.1277    2.0500    0.0023 C.2       1 <0>         0.4965
     22 O2          1.0859    3.2616   -0.0052 O.2       1 <0>        -0.4843
     23 C17         2.4606    1.3466    0.0036 C.3       1 <0>         0.0353
     24 O3          2.3148    0.0642   -0.6152 O.3       1 <0>        -0.3481
     25 C18         1.3123   -0.7490    0.0033 C.3       1 <0>         0.0352
     26 C19         0.0021   -0.0041    0.0020 C.2       1 <0>         0.4967
     27 O4         -1.0416   -0.6207   -0.0053 O.2       1 <0>        -0.4836
     28 H1        -11.2355    8.4397    3.7722 H         1 <0>         0.1524
     29 H2        -10.9510    6.1564    4.5804 H         1 <0>         0.1764
     30 H3         -7.2827   10.9778    1.9498 H         1 <0>         0.2181
     31 H4         -5.9194    8.8180    2.4784 H         1 <0>         0.1636
     32 H5         -7.1727    4.7247    5.2558 H         1 <0>         0.1348
     33 H6         -7.4307    4.0830    3.5980 H         1 <0>         0.0786
     34 H7         -4.7163    4.5697    4.9489 H         1 <0>         0.1363
     35 H8         -5.4875    2.9719    4.6677 H         1 <0>         0.1423
     36 H9         -3.9984    5.9045    3.0254 H         1 <0>         0.1392
     37 H10        -4.2565    5.2627    1.3677 H         1 <0>         0.1430
     38 H11        -6.7138    5.4181    1.6754 H         1 <0>         0.0733
     39 H12        -5.9425    7.0159    1.9565 H         1 <0>         0.1337
     40 H13        -2.7679    3.8637    3.4397 H         1 <0>         0.1300
     41 H14        -3.6311    2.2885    3.4352 H         1 <0>         0.1343
     42 H15        -3.8387    2.4093    0.9572 H         1 <0>         0.0930
     43 H16        -2.9755    3.9846    0.9617 H         1 <0>         0.0913
     44 H17        -0.9858    2.8914    1.9835 H         1 <0>         0.0801
     45 H18        -1.8490    1.3161    1.9791 H         1 <0>         0.0807
     46 H19        -2.0565    1.4368   -0.4990 H         1 <0>         0.1013
     47 H20        -1.1933    3.0120   -0.4946 H         1 <0>         0.1010
     48 H21         3.1924    1.9467   -0.5571 H         1 <0>         0.1538
     49 H22         2.8073    1.2199    1.0398 H         1 <0>         0.1094
     50 H23         1.2041   -1.6884   -0.5587 H         1 <0>         0.1539
     51 H24         1.6092   -0.9731    1.0385 H         1 <0>         0.1095
     52 H25        -5.5064    3.4039    2.2855 H         1 <0>         0.4401
@<TRIPOS>BOND
     1    1    6 ar
     2    1    2 ar
     3    1   28 1
     4    2    3 ar
     5    2   29 1
     6    3    4 ar
     7    4    5 ar
     8    4   10 1
     9    5    9 1
    10    5    6 ar
    11    6    7 1
    12    7    8 1
    13    8    9 2
    14    8   30 1
    15    9   31 1
    16   10   15 1
    17   10   11 1
    18   11   12 1
    19   11   32 1
    20   11   33 1
    21   12   13 1
    22   12   34 1
    23   12   35 1
    24   13   14 1
    25   13   16 1
    26   13   52 1
    27   14   15 1
    28   14   36 1
    29   14   37 1
    30   15   38 1
    31   15   39 1
    32   16   17 1
    33   16   40 1
    34   16   41 1
    35   17   18 1
    36   17   42 1
    37   17   43 1
    38   18   19 1
    39   18   44 1
    40   18   45 1
    41   19   20 1
    42   19   46 1
    43   19   47 1
    44   20   26 am
    45   20   21 am
    46   21   22 2
    47   21   23 1
    48   23   24 1
    49   23   48 1
    50   23   49 1
    51   24   25 1
    52   25   26 1
    53   25   50 1
    54   25   51 1
    55   26   27 2
@<TRIPOS>MOLECULE
ZINC31502170
   51    54     0     0     0
SMALL
USER_CHARGES
4-[4-(4-furo[3,2-c]pyridin-4-ylpiperazin-1-yl)butyl]morpholine-3,5-dione
@<TRIPOS>ATOM
      1 C1        -10.2631    7.9708    3.7407 C.ar      1 <0>        -0.1875
      2 C2        -10.0970    6.6916    4.1921 C.ar      1 <0>         0.1417
      3 N1         -8.9194    6.0890    4.1607 N.ar      1 <0>        -0.5307
      4 C3         -7.8345    6.6934    3.7016 C.ar      1 <0>         0.3750
      5 C4         -7.9199    8.0048    3.2206 C.ar      1 <0>        -0.2000
      6 C5         -9.1621    8.6628    3.2388 C.ar      1 <0>         0.1074
      7 O1         -8.9726    9.8918    2.7297 O.3       1 <0>        -0.1869
      8 C6         -7.6852   10.0735    2.3818 C.2       1 <0>        -0.0002
      9 C7         -6.9752    8.9680    2.6492 C.2       1 <0>        -0.1846
     10 N2         -6.6174    6.0265    3.6923 N.pl3     1 <0>        -0.4738
     11 C8         -6.7562    4.6695    4.2392 C.3       1 <0>         0.0678
     12 C9         -5.3817    3.9979    4.2853 C.3       1 <0>         0.0520
     13 N3         -4.8118    3.9611    2.9313 N.3       1 <0>        -0.5394
     14 C10        -4.6729    5.3180    2.3843 C.3       1 <0>         0.0524
     15 C11        -6.0474    5.9896    2.3383 C.3       1 <0>         0.0575
     16 C12        -3.5235    3.2551    2.9214 C.3       1 <0>         0.0570
     17 C13        -3.0831    3.0179    1.4755 C.3       1 <0>        -0.1126
     18 C14        -1.7414    2.2827    1.4652 C.3       1 <0>        -0.1293
     19 C15        -1.3009    2.0454    0.0193 C.3       1 <0>         0.0907
     20 N4         -0.0162    1.3414    0.0094 N.am      1 <0>        -0.5675
     21 C16         1.1277    2.0500    0.0023 C.2       1 <0>         0.4932
     22 O2          1.0859    3.2616   -0.0052 O.2       1 <0>        -0.4840
     23 C17         2.4606    1.3466    0.0036 C.3       1 <0>         0.0368
     24 O3          2.3148    0.0642   -0.6152 O.3       1 <0>        -0.3522
     25 C18         1.3123   -0.7490    0.0033 C.3       1 <0>         0.0367
     26 C19         0.0021   -0.0041    0.0020 C.2       1 <0>         0.4932
     27 O4         -1.0416   -0.6207   -0.0053 O.2       1 <0>        -0.4821
     28 H1        -11.2355    8.4397    3.7722 H         1 <0>         0.1437
     29 H2        -10.9510    6.1564    4.5804 H         1 <0>         0.1689
     30 H3         -7.2827   10.9778    1.9498 H         1 <0>         0.2129
     31 H4         -5.9194    8.8180    2.4784 H         1 <0>         0.1625
     32 H5         -7.1727    4.7247    5.2558 H         1 <0>         0.0932
     33 H6         -7.4307    4.0830    3.5980 H         1 <0>         0.0634
     34 H7         -4.7163    4.5697    4.9489 H         1 <0>         0.0437
     35 H8         -5.4875    2.9719    4.6677 H         1 <0>         0.0876
     36 H9         -3.9984    5.9045    3.0254 H         1 <0>         0.0465
     37 H10        -4.2565    5.2627    1.3677 H         1 <0>         0.0907
     38 H11        -6.7138    5.4181    1.6754 H         1 <0>         0.0573
     39 H12        -5.9425    7.0159    1.9565 H         1 <0>         0.0934
     40 H13        -2.7679    3.8637    3.4397 H         1 <0>         0.0363
     41 H14        -3.6311    2.2885    3.4352 H         1 <0>         0.0778
     42 H15        -3.8387    2.4093    0.9572 H         1 <0>         0.0773
     43 H16        -2.9755    3.9846    0.9617 H         1 <0>         0.0671
     44 H17        -0.9858    2.8914    1.9835 H         1 <0>         0.0668
     45 H18        -1.8490    1.3161    1.9791 H         1 <0>         0.0693
     46 H19        -2.0565    1.4368   -0.4990 H         1 <0>         0.0988
     47 H20        -1.1933    3.0120   -0.4946 H         1 <0>         0.0975
     48 H21         3.1924    1.9467   -0.5571 H         1 <0>         0.1504
     49 H22         2.8073    1.2199    1.0398 H         1 <0>         0.1065
     50 H23         1.2041   -1.6884   -0.5587 H         1 <0>         0.1506
     51 H24         1.6092   -0.9731    1.0385 H         1 <0>         0.1067
@<TRIPOS>BOND
     1    1    6 ar
     2    1    2 ar
     3    1   28 1
     4    2    3 ar
     5    2   29 1
     6    3    4 ar
     7    4    5 ar
     8    4   10 1
     9    5    9 1
    10    5    6 ar
    11    6    7 1
    12    7    8 1
    13    8    9 2
    14    8   30 1
    15    9   31 1
    16   10   15 1
    17   10   11 1
    18   11   12 1
    19   11   32 1
    20   11   33 1
    21   12   13 1
    22   12   34 1
    23   12   35 1
    24   13   14 1
    25   13   16 1
    26   14   15 1
    27   14   36 1
    28   14   37 1
    29   15   38 1
    30   15   39 1
    31   16   17 1
    32   16   40 1
    33   16   41 1
    34   17   18 1
    35   17   42 1
    36   17   43 1
    37   18   19 1
    38   18   44 1
    39   18   45 1
    40   19   20 1
    41   19   46 1
    42   19   47 1
    43   20   26 am
    44   20   21 am
    45   21   22 2
    46   21   23 1
    47   23   24 1
    48   23   48 1
    49   23   49 1
    50   24   25 1
    51   25   26 1
    52   25   50 1
    53   25   51 1
    54   26   27 2
@<TRIPOS>MOLECULE
ZINC13450381
   28    28     0     0     0
SMALL
USER_CHARGES
2-(2-methoxy-4-methyl-phenyl)ethanamine
@<TRIPOS>ATOM
      1 C1          2.0659   -0.3417    5.9501 C.3       1 <0>        -0.1278
      2 C2          1.3392    0.1615    4.7296 C.ar      1 <0>        -0.0250
      3 C3          0.2589   -0.5424    4.2296 C.ar      1 <0>        -0.1537
      4 C4         -0.4099   -0.0834    3.1101 C.ar      1 <0>        -0.0662
      5 C5          0.0000    1.0800    2.4877 C.ar      1 <0>        -0.1513
      6 C6          1.0865    1.7851    2.9841 C.ar      1 <0>         0.1414
      7 C7          1.7529    1.3251    4.1110 C.ar      1 <0>        -0.2067
      8 O1          1.4951    2.9267    2.3704 O.3       1 <0>        -0.3236
      9 C8          2.6209    3.6004    2.9366 C.3       1 <0>         0.0237
     10 C9         -0.7288    1.5792    1.2668 C.3       1 <0>        -0.0911
     11 C10        -0.0127    1.0858    0.0080 C.3       1 <0>        -0.0011
     12 H1          2.8734   -1.0067    5.6437 H         1 <0>         0.0805
     13 H2          2.4800    0.5031    6.5004 H         1 <0>         0.0724
     14 H3          1.3700   -0.8855    6.5889 H         1 <0>         0.0759
     15 H4         -0.0626   -1.4524    4.7143 H         1 <0>         0.1316
     16 H5         -1.2532   -0.6349    2.7216 H         1 <0>         0.1324
     17 H6          2.5968    1.8743    4.5016 H         1 <0>         0.1345
     18 H7          2.3949    3.8852    3.9642 H         1 <0>         0.0618
     19 H8          3.4852    2.9364    2.9253 H         1 <0>         0.0606
     20 H9          2.8414    4.4937    2.3522 H         1 <0>         0.1059
     21 H10        -0.7436    2.6691    1.2728 H         1 <0>         0.0969
     22 H11        -1.7514    1.2020    1.2746 H         1 <0>         0.0932
     23 H12         0.0021   -0.0041    0.0020 H         1 <0>         0.1313
     24 H13         1.0099    1.4631    0.0003 H         1 <0>         0.1350
     25 H14        -0.8068    2.5779   -1.1674 H         1 <0>         0.4374
     26 H15        -0.2694    1.2597   -2.0273 H         1 <0>         0.4397
     27 N1         -0.7456    1.5611   -1.1787 N.4       1 <0>        -0.6464
     28 H16        -1.6942    1.1683   -1.1693 H         1 <0>         0.4386
@<TRIPOS>BOND
     1    1    2 1
     2    1   12 1
     3    1   13 1
     4    1   14 1
     5    2    7 ar
     6    2    3 ar
     7    3    4 ar
     8    3   15 1
     9    4    5 ar
    10    4   16 1
    11    5    6 ar
    12    5   10 1
    13    6    7 ar
    14    6    8 1
    15    7   17 1
    16    8    9 1
    17    9   18 1
    18    9   19 1
    19    9   20 1
    20   10   11 1
    21   10   21 1
    22   10   22 1
    23   11   23 1
    24   11   24 1
    25   11   27 1
    26   25   27 1
    27   26   27 1
    28   27   28 1
@<TRIPOS>MOLECULE
ZINC01604329
   28    28     0     0     0
SMALL
USER_CHARGES
(2R)-1-(3-methoxyphenyl)propan-2-amine
@<TRIPOS>ATOM
      1 C1         -0.8757    3.0517   -1.0224 C.3       1 <0>        -0.1856
      2 C2         -0.7955    1.5269   -1.1198 C.3       1 <0>         0.0371
      3 H1         -0.3144    1.2475   -2.0571 H         1 <0>         0.1445
      4 C3         -2.2069    0.9381   -1.0756 C.3       1 <0>        -0.1014
      5 C4         -2.1370   -0.5513   -1.2945 C.ar      1 <0>        -0.0866
      6 C5         -1.9976   -1.4026   -0.2137 C.ar      1 <0>        -0.1846
      7 C6         -1.9331   -2.7694   -0.4111 C.ar      1 <0>        -0.0642
      8 C7         -2.0087   -3.2882   -1.6894 C.ar      1 <0>        -0.1989
      9 C8         -2.1490   -2.4364   -2.7752 C.ar      1 <0>         0.1460
     10 C9         -2.2178   -1.0653   -2.5740 C.ar      1 <0>        -0.1427
     11 O1         -2.2240   -2.9443   -4.0335 O.3       1 <0>        -0.3120
     12 C10        -2.1518   -4.3654   -4.1649 C.3       1 <0>         0.0224
     13 H2         -1.3568    3.3311   -0.0851 H         1 <0>         0.0832
     14 H3          0.1298    3.4712   -1.0539 H         1 <0>         0.0846
     15 H4         -1.4574    3.4391   -1.8590 H         1 <0>         0.1077
     16 H5         -2.6553    1.1417   -0.1032 H         1 <0>         0.1009
     17 H6         -2.8147    1.3921   -1.8582 H         1 <0>         0.1220
     18 H7         -1.9387   -0.9991    0.7864 H         1 <0>         0.1238
     19 H8         -1.8239   -3.4322    0.4346 H         1 <0>         0.1346
     20 H9         -1.9590   -4.3561   -1.8431 H         1 <0>         0.1373
     21 H10        -2.3311   -0.4003   -3.4174 H         1 <0>         0.1378
     22 H11        -1.2030   -4.7198   -3.7621 H         1 <0>         0.0608
     23 H12        -2.9738   -4.8234   -3.6147 H         1 <0>         0.0619
     24 H13        -2.2236   -4.6371   -5.2180 H         1 <0>         0.1099
     25 H14         0.0021   -0.0041    0.0020 H         1 <0>         0.4352
     26 H15         0.9253    1.3792    0.0006 H         1 <0>         0.4379
     27 N1         -0.0252    1.0139    0.0269 N.4       1 <0>        -0.6475
     28 H16        -0.4761    1.3157    0.8986 H         1 <0>         0.4357
@<TRIPOS>BOND
     1    1    2 1
     2    1   13 1
     3    1   14 1
     4    1   15 1
     5    2    3 1
     6    2    4 1
     7    2   27 1
     8    4    5 1
     9    4   16 1
    10    4   17 1
    11    5   10 ar
    12    5    6 ar
    13    6    7 ar
    14    6   18 1
    15    7    8 ar
    16    7   19 1
    17    8    9 ar
    18    8   20 1
    19    9   10 ar
    20    9   11 1
    21   10   21 1
    22   11   12 1
    23   12   22 1
    24   12   23 1
    25   12   24 1
    26   25   27 1
    27   26   27 1
    28   27   28 1
@<TRIPOS>MOLECULE
ZINC06021022
   28    28     0     0     0
SMALL
USER_CHARGES
(2S)-1-(3-methoxyphenyl)propan-2-amine
@<TRIPOS>ATOM
      1 C1         -2.6359    1.1447    7.7295 C.3       1 <0>        -0.1856
      2 C2         -1.8895    0.6327    6.4960 C.3       1 <0>         0.0370
      3 H1         -2.5989    0.4651    5.6856 H         1 <0>         0.1414
      4 C3         -0.8530    1.6703    6.0599 C.3       1 <0>        -0.0980
      5 C4         -0.2037    1.2227    4.7758 C.ar      1 <0>        -0.0866
      6 C5          0.9361    0.4405    4.8140 C.ar      1 <0>        -0.1823
      7 C6          1.5344    0.0287    3.6377 C.ar      1 <0>        -0.0650
      8 C7          0.9908    0.3924    2.4206 C.ar      1 <0>        -0.1990
      9 C8         -0.1488    1.1821    2.3796 C.ar      1 <0>         0.1454
     10 C9         -0.7471    1.5945    3.5616 C.ar      1 <0>        -0.1433
     11 O1         -0.6816    1.5467    1.1837 O.3       1 <0>        -0.3122
     12 C10        -0.0127    1.0858    0.0080 C.3       1 <0>         0.0224
     13 H2         -3.1387    2.0810    7.4873 H         1 <0>         0.1077
     14 H3         -3.3743    0.4055    8.0402 H         1 <0>         0.0843
     15 H4         -1.9264    1.3123    8.5399 H         1 <0>         0.0834
     16 H5         -0.0933    1.7728    6.8348 H         1 <0>         0.1007
     17 H6         -1.3441    2.6307    5.9033 H         1 <0>         0.1221
     18 H7          1.3597    0.1511    5.7644 H         1 <0>         0.1235
     19 H8          2.4246   -0.5819    3.6702 H         1 <0>         0.1342
     20 H9          1.4559    0.0664    1.5020 H         1 <0>         0.1371
     21 H10        -1.6373    2.2054    3.5323 H         1 <0>         0.1375
     22 H11         0.0021   -0.0041    0.0020 H         1 <0>         0.0607
     23 H12         1.0099    1.4631    0.0003 H         1 <0>         0.0618
     24 H13        -0.5399    1.4469   -0.8751 H         1 <0>         0.1098
     25 H14        -0.7649   -1.0209    6.0070 H         1 <0>         0.4361
     26 H15        -0.5484   -0.5000    7.5715 H         1 <0>         0.4337
     27 N1         -1.2317   -0.6429    6.8297 N.4       1 <0>        -0.6470
     28 H16        -1.9396   -1.3137    7.1510 H         1 <0>         0.4401
@<TRIPOS>BOND
     1    1    2 1
     2    1   13 1
     3    1   14 1
     4    1   15 1
     5    2    3 1
     6    2    4 1
     7    2   27 1
     8    4    5 1
     9    4   16 1
    10    4   17 1
    11    5   10 ar
    12    5    6 ar
    13    6    7 ar
    14    6   18 1
    15    7    8 ar
    16    7   19 1
    17    8    9 ar
    18    8   20 1
    19    9   10 ar
    20    9   11 1
    21   10   21 1
    22   11   12 1
    23   12   22 1
    24   12   23 1
    25   12   24 1
    26   25   27 1
    27   26   27 1
    28   27   28 1
@<TRIPOS>MOLECULE
ZINC03632919
   36    36     0     0     0
SMALL
USER_CHARGES
N-methyl-1-(4-propylphenyl)-propan-2-amine
@<TRIPOS>ATOM
      1 C1          2.0585   -8.2697   -2.2665 C.3       1 <0>        -0.1567
      2 C2          1.9279   -6.7461   -2.3193 C.3       1 <0>        -0.1184
      3 C3          1.2128   -6.2516   -1.0604 C.3       1 <0>        -0.0916
      4 C4          1.0842   -4.7510   -1.1124 C.ar      1 <0>        -0.0607
      5 C5         -0.0293   -4.1724   -1.6921 C.ar      1 <0>        -0.1056
      6 C6         -0.1477   -2.7959   -1.7390 C.ar      1 <0>        -0.1417
      7 C7          0.8473   -1.9981   -1.2057 C.ar      1 <0>        -0.1327
      8 C8          1.9633   -2.5766   -0.6306 C.ar      1 <0>        -0.1006
      9 C9          2.0796   -3.9532   -0.5799 C.ar      1 <0>        -0.1042
     10 C10         0.7182   -0.4975   -1.2568 C.3       1 <0>        -0.1007
     11 C11         0.0021   -0.0041    0.0020 C.3       1 <0>         0.0321
     12 H1          0.5293   -0.3651    0.8851 H         1 <0>         0.1392
     13 C12        -0.0187    1.5258    0.0104 C.3       1 <0>        -0.1820
     14 C13        -1.8983   -0.5900    1.3833 C.3       1 <0>        -0.0442
     15 H2          2.6342   -8.5547   -1.3860 H         1 <0>         0.0571
     16 H3          1.0663   -8.7177   -2.2126 H         1 <0>         0.0567
     17 H4          2.5679   -8.6220   -3.1634 H         1 <0>         0.0600
     18 H5          1.3522   -6.4611   -3.1999 H         1 <0>         0.0634
     19 H6          2.9201   -6.2981   -2.3733 H         1 <0>         0.0641
     20 H7          1.7886   -6.5367   -0.1798 H         1 <0>         0.0784
     21 H8          0.2206   -6.6997   -1.0064 H         1 <0>         0.0776
     22 H9         -0.8069   -4.7958   -2.1082 H         1 <0>         0.1310
     23 H10        -1.0176   -2.3439   -2.1920 H         1 <0>         0.1218
     24 H11         2.7427   -1.9532   -0.2179 H         1 <0>         0.1296
     25 H12         2.9494   -4.4052   -0.1266 H         1 <0>         0.1316
     26 H13         0.1430   -0.2121   -2.1375 H         1 <0>         0.0971
     27 H14         1.7103   -0.0491   -1.3098 H         1 <0>         0.1199
     28 H15         1.0039    1.9031    0.0027 H         1 <0>         0.1072
     29 H16        -0.5459    1.8868   -0.8726 H         1 <0>         0.0832
     30 H17        -0.5289    1.8773    0.9072 H         1 <0>         0.0823
     31 H18        -1.2736   -1.2612    1.9727 H         1 <0>         0.1219
     32 H19        -1.8888    0.4032    1.8324 H         1 <0>         0.1236
     33 H20        -2.9199   -0.9693    1.3621 H         1 <0>         0.1250
     34 N1         -1.3816   -0.5153    0.0036 N.4       1 <0>        -0.5228
     35 H21        -1.3969   -1.4527   -0.4150 H         1 <0>         0.4283
     36 H22        -1.9762    0.1152   -0.5470 H         1 <0>         0.4309
@<TRIPOS>BOND
     1    1    2 1
     2    1   15 1
     3    1   16 1
     4    1   17 1
     5    2    3 1
     6    2   18 1
     7    2   19 1
     8    3    4 1
     9    3   20 1
    10    3   21 1
    11    4    9 ar
    12    4    5 ar
    13    5    6 ar
    14    5   22 1
    15    6    7 ar
    16    6   23 1
    17    7    8 ar
    18    7   10 1
    19    8    9 ar
    20    8   24 1
    21    9   25 1
    22   10   11 1
    23   10   26 1
    24   10   27 1
    25   11   12 1
    26   11   13 1
    27   11   34 1
    28   13   28 1
    29   13   29 1
    30   13   30 1
    31   14   31 1
    32   14   32 1
    33   14   33 1
    34   14   34 1
    35   34   35 1
    36   34   36 1
@<TRIPOS>MOLECULE
ZINC03632921
   36    36     0     0     0
SMALL
USER_CHARGES
N-methyl-1-(4-propylphenyl)-propan-2-amine
@<TRIPOS>ATOM
      1 C1         -7.1982    3.3568    6.9837 C.3       1 <0>        -0.1567
      2 C2         -6.4455    2.7629    5.7914 C.3       1 <0>        -0.1184
      3 C3         -5.0096    3.2910    5.7802 C.3       1 <0>        -0.0916
      4 C4         -4.2683    2.7061    4.6058 C.ar      1 <0>        -0.0606
      5 C5         -4.2735    3.3620    3.3890 C.ar      1 <0>        -0.1043
      6 C6         -3.5927    2.8258    2.3119 C.ar      1 <0>        -0.1006
      7 C7         -2.9064    1.6341    2.4518 C.ar      1 <0>        -0.1329
      8 C8         -2.9056    0.9756    3.6672 C.ar      1 <0>        -0.1414
      9 C9         -3.5827    1.5139    4.7455 C.ar      1 <0>        -0.1059
     10 C10        -2.1642    1.0497    1.2777 C.3       1 <0>        -0.1007
     11 C11        -0.7288    1.5792    1.2668 C.3       1 <0>         0.0321
     12 H1         -0.7436    2.6691    1.2728 H         1 <0>         0.1392
     13 C12        -0.0127    1.0858    0.0080 C.3       1 <0>        -0.1820
     14 C13         1.0896    1.9895    2.8120 C.3       1 <0>        -0.0441
     15 H2         -6.6982    3.0694    7.9087 H         1 <0>         0.0567
     16 H3         -7.2114    4.4435    6.9003 H         1 <0>         0.0571
     17 H4         -8.2211    2.9805    6.9917 H         1 <0>         0.0600
     18 H5         -6.9455    3.0502    4.8664 H         1 <0>         0.0641
     19 H6         -6.4323    1.6761    5.8748 H         1 <0>         0.0634
     20 H7         -4.5096    3.0037    6.7052 H         1 <0>         0.0776
     21 H8         -5.0229    4.3778    5.6968 H         1 <0>         0.0784
     22 H9         -4.8091    4.2934    3.2798 H         1 <0>         0.1316
     23 H10        -3.5968    3.3382    1.3612 H         1 <0>         0.1295
     24 H11        -2.3730    0.0422    3.7754 H         1 <0>         0.1219
     25 H12        -3.5784    1.0016    5.6963 H         1 <0>         0.1310
     26 H13        -2.6643    1.3363    0.3526 H         1 <0>         0.1199
     27 H14        -2.1499   -0.0370    1.3613 H         1 <0>         0.0971
     28 H15         0.0021   -0.0041    0.0020 H         1 <0>         0.0832
     29 H16         1.0099    1.4631    0.0003 H         1 <0>         0.0823
     30 H17        -0.5399    1.4469   -0.8751 H         1 <0>         0.1072
     31 H18         1.7940    2.0430    1.9820 H         1 <0>         0.1236
     32 H19         0.6983    2.9851    3.0213 H         1 <0>         0.1219
     33 H20         1.5985    1.6058    3.6963 H         1 <0>         0.1250
     34 N1         -0.0210    1.0837    2.4623 N.4       1 <0>        -0.5227
     35 H21         0.3535    0.1471    2.2703 H         1 <0>         0.4309
     36 H22        -0.6786    1.0346    3.2492 H         1 <0>         0.4283
@<TRIPOS>BOND
     1    1    2 1
     2    1   15 1
     3    1   16 1
     4    1   17 1
     5    2    3 1
     6    2   18 1
     7    2   19 1
     8    3    4 1
     9    3   20 1
    10    3   21 1
    11    4    9 ar
    12    4    5 ar
    13    5    6 ar
    14    5   22 1
    15    6    7 ar
    16    6   23 1
    17    7    8 ar
    18    7   10 1
    19    8    9 ar
    20    8   24 1
    21    9   25 1
    22   10   11 1
    23   10   26 1
    24   10   27 1
    25   11   12 1
    26   11   13 1
    27   11   34 1
    28   13   28 1
    29   13   29 1
    30   13   30 1
    31   14   31 1
    32   14   32 1
    33   14   33 1
    34   14   34 1
    35   34   35 1
    36   34   36 1
@<TRIPOS>MOLECULE
ZINC13450403
   25    25     0     0     0
SMALL
USER_CHARGES
2-(4-bromo-2-methoxy-phenyl)ethanamine
@<TRIPOS>ATOM
      1 C1          2.6204    3.6011    2.9362 C.3       1 <0>         0.0204
      2 O1          1.4946    2.9271    2.3703 O.3       1 <0>        -0.3180
      3 C2          1.0866    1.7853    2.9840 C.ar      1 <0>         0.1447
      4 C3          1.7531    1.3258    4.1107 C.ar      1 <0>        -0.1781
      5 C4          1.3393    0.1614    4.7298 C.ar      1 <0>        -0.0395
      6 C5          0.2581   -0.5425    4.2296 C.ar      1 <0>        -0.1238
      7 C6         -0.4101   -0.0835    3.1100 C.ar      1 <0>        -0.0634
      8 C7          0.0000    1.0800    2.4877 C.ar      1 <0>        -0.1298
      9 C8         -0.7288    1.5792    1.2668 C.3       1 <0>        -0.0947
     10 C9         -0.0127    1.0858    0.0080 C.3       1 <0>        -0.0013
     11 Br1         2.2509   -0.4696    6.2617 Br        1 <0>        -0.0231
     12 H1          2.8405    4.4945    2.3519 H         1 <0>         0.1096
     13 H2          2.3947    3.8856    3.9639 H         1 <0>         0.0642
     14 H3          3.4849    2.9373    2.9245 H         1 <0>         0.0630
     15 H4          2.5972    1.8749    4.5009 H         1 <0>         0.1452
     16 H5         -0.0641   -1.4522    4.7146 H         1 <0>         0.1429
     17 H6         -1.2532   -0.6350    2.7210 H         1 <0>         0.1429
     18 H7         -0.7436    2.6691    1.2728 H         1 <0>         0.1008
     19 H8         -1.7514    1.2020    1.2746 H         1 <0>         0.0974
     20 H9          0.0021   -0.0041    0.0020 H         1 <0>         0.1327
     21 H10         1.0099    1.4631    0.0003 H         1 <0>         0.1362
     22 H11        -0.8068    2.5779   -1.1674 H         1 <0>         0.4379
     23 H12        -0.2694    1.2597   -2.0273 H         1 <0>         0.4409
     24 N1         -0.7456    1.5611   -1.1787 N.4       1 <0>        -0.6462
     25 H13        -1.6942    1.1683   -1.1693 H         1 <0>         0.4392
@<TRIPOS>BOND
     1    1    2 1
     2    1   12 1
     3    1   13 1
     4    1   14 1
     5    2    3 1
     6    3    8 ar
     7    3    4 ar
     8    4    5 ar
     9    4   15 1
    10    5    6 ar
    11    5   11 1
    12    6    7 ar
    13    6   16 1
    14    7    8 ar
    15    7   17 1
    16    8    9 1
    17    9   10 1
    18    9   18 1
    19    9   19 1
    20   10   20 1
    21   10   21 1
    22   10   24 1
    23   22   24 1
    24   23   24 1
    25   24   25 1
@<TRIPOS>MOLECULE
ZINC01587881
   28    28     0     0     0
SMALL
USER_CHARGES
(2S)-1-(2-methoxyphenyl)propan-2-amine
@<TRIPOS>ATOM
      1 C1         -1.3443    4.7748    4.0762 C.3       1 <0>        -0.1837
      2 C2         -2.1252    3.9050    3.0890 C.3       1 <0>         0.0372
      3 H1         -1.7104    4.0288    2.0887 H         1 <0>         0.1399
      4 C3         -2.0184    2.4372    3.5074 C.3       1 <0>        -0.0861
      5 C4         -2.6828    1.5695    2.4697 C.ar      1 <0>        -0.1660
      6 C5         -3.9993    1.1828    2.6318 C.ar      1 <0>        -0.0974
      7 C6         -4.6075    0.3818    1.6833 C.ar      1 <0>        -0.1475
      8 C7         -3.9022   -0.0291    0.5669 C.ar      1 <0>        -0.0627
      9 C8         -2.5877    0.3594    0.3975 C.ar      1 <0>        -0.1986
     10 C9         -1.9749    1.1630    1.3482 C.ar      1 <0>         0.1415
     11 O1         -0.6816    1.5467    1.1837 O.3       1 <0>        -0.3173
     12 C10        -0.0127    1.0858    0.0080 C.3       1 <0>         0.0224
     13 H2         -0.2971    4.4725    4.0772 H         1 <0>         0.1071
     14 H3         -1.4204    5.8205    3.7782 H         1 <0>         0.0827
     15 H4         -1.7592    4.6510    5.0766 H         1 <0>         0.0824
     16 H5         -2.5123    2.2966    4.4688 H         1 <0>         0.0959
     17 H6         -0.9679    2.1597    3.5945 H         1 <0>         0.1212
     18 H7         -4.5523    1.5027    3.5026 H         1 <0>         0.1302
     19 H8         -5.6352    0.0766    1.8142 H         1 <0>         0.1333
     20 H9         -4.3797   -0.6546   -0.1728 H         1 <0>         0.1346
     21 H10        -2.0371    0.0377   -0.4742 H         1 <0>         0.1370
     22 H11         0.0021   -0.0041    0.0020 H         1 <0>         0.0628
     23 H12         1.0099    1.4631    0.0003 H         1 <0>         0.1090
     24 H13        -0.5399    1.4469   -0.8751 H         1 <0>         0.0610
     25 H14        -4.0612    3.7965    2.3971 H         1 <0>         0.4350
     26 H15        -3.9443    4.2068    4.0046 H         1 <0>         0.4331
     27 N1         -3.5341    4.3367    3.0813 N.4       1 <0>        -0.6462
     28 H16        -3.5809    5.3313    2.8308 H         1 <0>         0.4392
@<TRIPOS>BOND
     1    1    2 1
     2    1   13 1
     3    1   14 1
     4    1   15 1
     5    2    3 1
     6    2    4 1
     7    2   27 1
     8    4    5 1
     9    4   16 1
    10    4   17 1
    11    5   10 ar
    12    5    6 ar
    13    6    7 ar
    14    6   18 1
    15    7    8 ar
    16    7   19 1
    17    8    9 ar
    18    8   20 1
    19    9   10 ar
    20    9   21 1
    21   10   11 1
    22   11   12 1
    23   12   22 1
    24   12   23 1
    25   12   24 1
    26   25   27 1
    27   26   27 1
    28   27   28 1
@<TRIPOS>MOLECULE
ZINC04957092
   28    28     0     0     0
SMALL
USER_CHARGES
(2R)-1-(2-methoxyphenyl)propan-2-amine
@<TRIPOS>ATOM
      1 C1         -1.5142    1.2363    5.6143 C.3       1 <0>        -0.1847
      2 C2         -0.9044    2.0786    4.4920 C.3       1 <0>         0.0382
      3 H1         -0.4523    2.9755    4.9155 H         1 <0>         0.1412
      4 C3         -1.9999    2.4786    3.5017 C.3       1 <0>        -0.0920
      5 C4         -1.4245    3.4085    2.4647 C.ar      1 <0>        -0.1539
      6 C5         -1.5309    4.7764    2.6275 C.ar      1 <0>        -0.0684
      7 C6         -1.0029    5.6299    1.6768 C.ar      1 <0>        -0.1388
      8 C7         -0.3668    5.1173    0.5610 C.ar      1 <0>        -0.0661
      9 C8         -0.2533    3.7506    0.3962 C.ar      1 <0>        -0.1929
     10 C9         -0.7874    2.8918    1.3462 C.ar      1 <0>         0.1011
     11 O1         -0.6816    1.5467    1.1837 O.3       1 <0>        -0.3444
     12 C10        -0.0127    1.0858    0.0080 C.3       1 <0>         0.0183
     13 H2         -1.9662    0.3394    5.1909 H         1 <0>         0.0827
     14 H3         -0.7337    0.9514    6.3199 H         1 <0>         0.0834
     15 H4         -2.2770    1.8181    6.1318 H         1 <0>         0.1067
     16 H5         -2.8054    2.9832    4.0352 H         1 <0>         0.1185
     17 H6         -2.3910    1.5864    3.0127 H         1 <0>         0.1006
     18 H7         -2.0272    5.1791    3.4981 H         1 <0>         0.1381
     19 H8         -1.0870    6.6989    1.8059 H         1 <0>         0.1355
     20 H9          0.0452    5.7862   -0.1801 H         1 <0>         0.1357
     21 H10         0.2475    3.3508   -0.4731 H         1 <0>         0.1372
     22 H11         0.0021   -0.0041    0.0020 H         1 <0>         0.1110
     23 H12         1.0099    1.4631    0.0003 H         1 <0>         0.0638
     24 H13        -0.5399    1.4469   -0.8751 H         1 <0>         0.0687
     25 H14         0.4965    1.8053    3.0083 H         1 <0>         0.4320
     26 H15         0.8591    1.0182    4.4278 H         1 <0>         0.4333
     27 N1          0.1098    1.2748    3.7872 N.4       1 <0>        -0.6420
     28 H16        -0.3289    0.4199    3.4252 H         1 <0>         0.4374
@<TRIPOS>BOND
     1    1    2 1
     2    1   13 1
     3    1   14 1
     4    1   15 1
     5    2    3 1
     6    2    4 1
     7    2   27 1
     8    4    5 1
     9    4   16 1
    10    4   17 1
    11    5   10 ar
    12    5    6 ar
    13    6    7 ar
    14    6   18 1
    15    7    8 ar
    16    7   19 1
    17    8    9 ar
    18    8   20 1
    19    9   10 ar
    20    9   21 1
    21   10   11 1
    22   11   12 1
    23   12   22 1
    24   12   23 1
    25   12   24 1
    26   25   27 1
    27   26   27 1
    28   27   28 1
@<TRIPOS>MOLECULE
ZINC06070636
   31    31     0     0     0
SMALL
USER_CHARGES
1-(2-methoxy-4-methyl-phenyl)propan-2-amine
@<TRIPOS>ATOM
      1 C1          1.1509    3.5958    0.0104 C.3       1 <0>        -0.1293
      2 C2          1.1706    2.0890    0.0021 C.ar      1 <0>        -0.0271
      3 C3          2.3774    1.4139   -0.0135 C.ar      1 <0>        -0.1434
      4 C4          2.3989    0.0317   -0.0207 C.ar      1 <0>        -0.0633
      5 C5          1.2139   -0.6788   -0.0132 C.ar      1 <0>        -0.1620
      6 C6          0.0021   -0.0041    0.0020 C.ar      1 <0>         0.1093
      7 C7         -0.0167    1.3833    0.0096 C.ar      1 <0>        -0.1979
      8 O1         -1.1648   -0.7006    0.0099 O.3       1 <0>        -0.3428
      9 C8         -2.3744    0.0601    0.0260 C.3       1 <0>         0.0189
     10 C9          1.2380   -2.1856   -0.0220 C.3       1 <0>        -0.0872
     11 C10         1.1070   -2.6894   -1.4607 C.3       1 <0>         0.0382
     12 H1          1.8858   -2.2386   -2.0759 H         1 <0>         0.1380
     13 C11         1.2563   -4.2119   -1.4836 C.3       1 <0>        -0.1846
     14 H2          1.1560    3.9536    1.0400 H         1 <0>         0.0828
     15 H3          2.0311    3.9736   -0.5099 H         1 <0>         0.0770
     16 H4          0.2514    3.9502   -0.4930 H         1 <0>         0.0727
     17 H5          3.3047    1.9675   -0.0201 H         1 <0>         0.1343
     18 H6          3.3426   -0.4933   -0.0325 H         1 <0>         0.1377
     19 H7         -0.9590    1.9110    0.0170 H         1 <0>         0.1363
     20 H8         -2.3995    0.6837    0.9196 H         1 <0>         0.0677
     21 H9         -2.4172    0.6932   -0.8603 H         1 <0>         0.0629
     22 H10        -3.2290   -0.6164    0.0308 H         1 <0>         0.1103
     23 H11         2.1791   -2.5364    0.4015 H         1 <0>         0.1179
     24 H12         0.4076   -2.5658    0.5731 H         1 <0>         0.0997
     25 H13         0.4775   -4.6626   -0.8685 H         1 <0>         0.0827
     26 H14         1.1630   -4.5708   -2.5086 H         1 <0>         0.0828
     27 H15         2.2348   -4.4870   -1.0900 H         1 <0>         0.1065
     28 H16        -0.9513   -2.7246   -1.4377 H         1 <0>         0.4356
     29 H17        -0.3104   -1.3160   -2.0467 H         1 <0>         0.4323
     30 N1         -0.2104   -2.3292   -2.0141 N.4       1 <0>        -0.6415
     31 H18        -0.2904   -2.7046   -2.9665 H         1 <0>         0.4355
@<TRIPOS>BOND
     1    1    2 1
     2    1   14 1
     3    1   15 1
     4    1   16 1
     5    2    7 ar
     6    2    3 ar
     7    3    4 ar
     8    3   17 1
     9    4    5 ar
    10    4   18 1
    11    5    6 ar
    12    5   10 1
    13    6    7 ar
    14    6    8 1
    15    7   19 1
    16    8    9 1
    17    9   20 1
    18    9   21 1
    19    9   22 1
    20   10   11 1
    21   10   23 1
    22   10   24 1
    23   11   12 1
    24   11   13 1
    25   11   30 1
    26   13   25 1
    27   13   26 1
    28   13   27 1
    29   28   30 1
    30   29   30 1
    31   30   31 1
@<TRIPOS>MOLECULE
ZINC06070637
   31    31     0     0     0
SMALL
USER_CHARGES
1-(2-methoxy-4-methyl-phenyl)propan-2-amine
@<TRIPOS>ATOM
      1 C1          1.2293   -2.1840   -0.0214 C.3       1 <0>        -0.1295
      2 C2          1.2081   -0.6771   -0.0131 C.ar      1 <0>        -0.0237
      3 C3          2.3962    0.0305   -0.0211 C.ar      1 <0>        -0.1511
      4 C4          2.3801    1.4128   -0.0135 C.ar      1 <0>        -0.0914
      5 C5          1.1763    2.0908    0.0021 C.ar      1 <0>        -0.1741
      6 C6         -0.0167    1.3833    0.0096 C.ar      1 <0>         0.1473
      7 C7          0.0021   -0.0041    0.0020 C.ar      1 <0>        -0.2030
      8 O1         -1.2021    2.0479    0.0189 O.3       1 <0>        -0.3169
      9 C8         -2.3907    1.2546    0.0202 C.3       1 <0>         0.0226
     10 C9          1.1596    3.5977    0.0098 C.3       1 <0>        -0.0847
     11 C10         1.0416    4.0990    1.4505 C.3       1 <0>         0.0371
     12 H1          0.1653    3.6522    1.9201 H         1 <0>         0.1396
     13 C11         0.8992    5.6224    1.4504 C.3       1 <0>        -0.1836
     14 H2          1.2246   -2.5417   -1.0510 H         1 <0>         0.0827
     15 H3          2.1291   -2.5375    0.4820 H         1 <0>         0.0760
     16 H4          0.3494   -2.5626    0.4988 H         1 <0>         0.0732
     17 H5          3.3381   -0.4976   -0.0337 H         1 <0>         0.1326
     18 H6          3.3093    1.9633   -0.0198 H         1 <0>         0.1303
     19 H7         -0.9255   -0.5572    0.0075 H         1 <0>         0.1364
     20 H8         -2.4034    0.6207    0.9068 H         1 <0>         0.0606
     21 H9         -3.2634    1.9076    0.0279 H         1 <0>         0.1088
     22 H10        -2.4118    0.6303   -0.8731 H         1 <0>         0.0625
     23 H11         2.0827    3.9736   -0.4313 H         1 <0>         0.0952
     24 H12         0.3083    3.9546   -0.5699 H         1 <0>         0.1205
     25 H13         0.0054    5.9037    0.8935 H         1 <0>         0.1069
     26 H14         0.8151    5.9795    2.4768 H         1 <0>         0.0824
     27 H15         1.7755    6.0692    0.9808 H         1 <0>         0.0823
     28 H16         2.3280    2.7167    2.2707 H         1 <0>         0.4351
     29 H17         3.0728    4.1221    1.7852 H         1 <0>         0.4329
     30 N1          2.2409    3.7305    2.2235 N.4       1 <0>        -0.6461
     31 H18         2.1565    4.1042    3.1760 H         1 <0>         0.4390
@<TRIPOS>BOND
     1    1    2 1
     2    1   14 1
     3    1   15 1
     4    1   16 1
     5    2    7 ar
     6    2    3 ar
     7    3    4 ar
     8    3   17 1
     9    4    5 ar
    10    4   18 1
    11    5    6 ar
    12    5   10 1
    13    6    7 ar
    14    6    8 1
    15    7   19 1
    16    8    9 1
    17    9   20 1
    18    9   21 1
    19    9   22 1
    20   10   11 1
    21   10   23 1
    22   10   24 1
    23   11   12 1
    24   11   13 1
    25   11   30 1
    26   13   25 1
    27   13   26 1
    28   13   27 1
    29   28   30 1
    30   29   30 1
    31   30   31 1
@<TRIPOS>MOLECULE
ZINC13450372
   33    33     0     0     0
SMALL
USER_CHARGES
(2R)-1-(4-propylphenyl)propan-2-amine
@<TRIPOS>ATOM
      1 C1         -4.7053    6.4395    5.0668 C.3       1 <0>        -0.1568
      2 C2         -3.9202    6.0502    3.8126 C.3       1 <0>        -0.1184
      3 C3         -3.8404    4.5254    3.7138 C.3       1 <0>        -0.0920
      4 C4         -3.0671    4.1420    2.4785 C.ar      1 <0>        -0.0596
      5 C5         -1.6961    3.9783    2.5443 C.ar      1 <0>        -0.1078
      6 C6         -0.9869    3.6257    1.4113 C.ar      1 <0>        -0.1387
      7 C7         -1.6488    3.4362    0.2127 C.ar      1 <0>        -0.1366
      8 C8         -3.0192    3.6049    0.1457 C.ar      1 <0>        -0.1002
      9 C9         -3.7289    3.9534    1.2796 C.ar      1 <0>        -0.1055
     10 C10        -0.8757    3.0517   -1.0224 C.3       1 <0>        -0.1003
     11 C11        -0.7955    1.5269   -1.1198 C.3       1 <0>         0.0369
     12 H1         -1.8010    1.1074   -1.0883 H         1 <0>         0.1401
     13 C12        -0.1202    1.1347   -2.4355 C.3       1 <0>        -0.1823
     14 H2         -5.7121    6.0260    5.0083 H         1 <0>         0.0572
     15 H3         -4.2009    6.0442    5.9485 H         1 <0>         0.0567
     16 H4         -4.7622    7.5257    5.1372 H         1 <0>         0.0600
     17 H5         -2.9134    6.4637    3.8712 H         1 <0>         0.0633
     18 H6         -4.4247    6.4455    2.9310 H         1 <0>         0.0640
     19 H7         -4.8472    4.1119    3.6552 H         1 <0>         0.0785
     20 H8         -3.3359    4.1301    4.5955 H         1 <0>         0.0778
     21 H9         -1.1790    4.1257    3.4810 H         1 <0>         0.1306
     22 H10         0.0843    3.4978    1.4628 H         1 <0>         0.1217
     23 H11        -3.5358    3.4612   -0.7918 H         1 <0>         0.1294
     24 H12        -4.8002    4.0809    1.2283 H         1 <0>         0.1314
     25 H13         0.1310    3.4655   -0.9645 H         1 <0>         0.0972
     26 H14        -1.3804    3.4460   -1.9044 H         1 <0>         0.1191
     27 H15        -0.0630    0.0484   -2.5049 H         1 <0>         0.0838
     28 H16        -0.7018    1.5221   -3.2720 H         1 <0>         0.1074
     29 H17         0.8853    1.5542   -2.4670 H         1 <0>         0.0827
     30 H18         0.0021   -0.0041    0.0020 H         1 <0>         0.4376
     31 H19         0.9253    1.3792    0.0006 H         1 <0>         0.4334
     32 N1         -0.0252    1.0139    0.0269 N.4       1 <0>        -0.6477
     33 H20        -0.4761    1.3157    0.8986 H         1 <0>         0.4370
@<TRIPOS>BOND
     1    1    2 1
     2    1   14 1
     3    1   15 1
     4    1   16 1
     5    2    3 1
     6    2   17 1
     7    2   18 1
     8    3    4 1
     9    3   19 1
    10    3   20 1
    11    4    9 ar
    12    4    5 ar
    13    5    6 ar
    14    5   21 1
    15    6    7 ar
    16    6   22 1
    17    7    8 ar
    18    7   10 1
    19    8    9 ar
    20    8   23 1
    21    9   24 1
    22   10   11 1
    23   10   25 1
    24   10   26 1
    25   11   12 1
    26   11   13 1
    27   11   32 1
    28   13   27 1
    29   13   28 1
    30   13   29 1
    31   30   32 1
    32   31   32 1
    33   32   33 1
@<TRIPOS>MOLECULE
ZINC13450376
   33    33     0     0     0
SMALL
USER_CHARGES
(2S)-1-(4-propylphenyl)propan-2-amine
@<TRIPOS>ATOM
      1 C1          0.4035   -6.5279   -4.4928 C.3       1 <0>        -0.1568
      2 C2          0.4353   -5.0061   -4.3383 C.3       1 <0>        -0.1183
      3 C3         -0.2388   -4.6129   -3.0223 C.3       1 <0>        -0.0918
      4 C4         -0.2075   -3.1140   -2.8700 C.ar      1 <0>        -0.0598
      5 C5         -1.2465   -2.3472   -3.3635 C.ar      1 <0>        -0.1065
      6 C6         -1.2182   -0.9723   -3.2230 C.ar      1 <0>        -0.1009
      7 C7         -0.1511   -0.3642   -2.5887 C.ar      1 <0>        -0.1360
      8 C8          0.8905   -1.1305   -2.0999 C.ar      1 <0>        -0.1351
      9 C9          0.8601   -2.5057   -2.2365 C.ar      1 <0>        -0.1091
     10 C10        -0.1202    1.1347   -2.4355 C.3       1 <0>        -0.0967
     11 C11        -0.7955    1.5269   -1.1198 C.3       1 <0>         0.0370
     12 H1         -1.8010    1.1074   -1.0883 H         1 <0>         0.1401
     13 C12        -0.8757    3.0517   -1.0224 C.3       1 <0>        -0.1858
     14 H2         -0.6311   -6.8711   -4.4979 H         1 <0>         0.0572
     15 H3          0.8838   -6.8080   -5.4304 H         1 <0>         0.0600
     16 H4          0.9351   -6.9889   -3.6604 H         1 <0>         0.0567
     17 H5         -0.0963   -4.5451   -5.1707 H         1 <0>         0.0640
     18 H6          1.4699   -4.6629   -4.3332 H         1 <0>         0.0633
     19 H7          0.2928   -5.0739   -2.1898 H         1 <0>         0.0775
     20 H8         -1.2734   -4.9561   -3.0273 H         1 <0>         0.0782
     21 H9         -2.0805   -2.8224   -3.8584 H         1 <0>         0.1309
     22 H10        -2.0299   -0.3733   -3.6085 H         1 <0>         0.1288
     23 H11         1.7263   -0.6550   -1.6082 H         1 <0>         0.1210
     24 H12         1.6717   -3.1048   -1.8507 H         1 <0>         0.1299
     25 H13        -0.6513    1.5960   -3.2681 H         1 <0>         0.1191
     26 H14         0.9143    1.4781   -2.4294 H         1 <0>         0.0967
     27 H15         0.1298    3.4712   -1.0539 H         1 <0>         0.0830
     28 H16        -1.4574    3.4391   -1.8590 H         1 <0>         0.1071
     29 H17        -1.3568    3.3311   -0.0851 H         1 <0>         0.0838
     30 H18         0.0021   -0.0041    0.0020 H         1 <0>         0.4357
     31 H19         0.9253    1.3792    0.0006 H         1 <0>         0.4335
     32 N1         -0.0252    1.0139    0.0269 N.4       1 <0>        -0.6468
     33 H20        -0.4761    1.3157    0.8986 H         1 <0>         0.4399
@<TRIPOS>BOND
     1    1    2 1
     2    1   14 1
     3    1   15 1
     4    1   16 1
     5    2    3 1
     6    2   17 1
     7    2   18 1
     8    3    4 1
     9    3   19 1
    10    3   20 1
    11    4    9 ar
    12    4    5 ar
    13    5    6 ar
    14    5   21 1
    15    6    7 ar
    16    6   22 1
    17    7    8 ar
    18    7   10 1
    19    8    9 ar
    20    8   23 1
    21    9   24 1
    22   10   11 1
    23   10   25 1
    24   10   26 1
    25   11   12 1
    26   11   13 1
    27   11   32 1
    28   13   27 1
    29   13   28 1
    30   13   29 1
    31   30   32 1
    32   31   32 1
    33   32   33 1
@<TRIPOS>MOLECULE
ZINC02539058
   47    48     0     0     0
SMALL
USER_CHARGES
N-[2-(5-methoxy-1H-indol-3-yl)ethyl]-N-propyl-propan-1-amine
@<TRIPOS>ATOM
      1 C1          6.5995   -0.4888   -4.4511 C.3       1 <0>        -0.1556
      2 C2          6.3779   -0.0768   -2.9944 C.3       1 <0>        -0.1513
      3 C3          6.8447    1.3666   -2.7959 C.3       1 <0>        -0.0091
      4 C4          7.5879    2.8832   -1.0608 C.3       1 <0>        -0.0121
      5 C5          9.0594    2.4654   -1.0908 C.3       1 <0>        -0.1514
      6 C6          9.9402    3.6781   -0.7832 C.3       1 <0>        -0.1558
      7 C7          5.3463    1.9703   -0.9922 C.3       1 <0>        -0.0055
      8 C8          5.2479    2.0915    0.5298 C.3       1 <0>        -0.0587
      9 C9          3.8150    2.3451    0.9219 C.2       1 <0>        -0.2096
     10 C10         3.2487    3.5413    1.1466 C.2       1 <0>         0.0934
     11 N1          1.9323    3.3788    1.4816 N.pl3     1 <0>        -0.5866
     12 H1          1.3168    4.0993    1.6889 H         1 <0>         0.4230
     13 C11         1.6109    2.0377    1.4805 C.ar      1 <0>         0.0615
     14 C12         2.7766    1.3330    1.1299 C.ar      1 <0>        -0.0588
     15 C13         2.7515   -0.0607    1.0478 C.ar      1 <0>        -0.1282
     16 C14         1.5780   -0.7385    1.3126 C.ar      1 <0>         0.1166
     17 C15         0.4257   -0.0380    1.6589 C.ar      1 <0>        -0.1753
     18 C16         0.4390    1.3366    1.7429 C.ar      1 <0>        -0.0792
     19 O1          1.5475   -2.0958    1.2342 O.3       1 <0>        -0.3182
     20 C17         0.3015   -2.7344    1.5200 C.3       1 <0>         0.0252
     21 H2          6.2670   -1.5171   -4.5925 H         1 <0>         0.0767
     22 H3          6.0297    0.1706   -5.1058 H         1 <0>         0.0663
     23 H4          7.6597   -0.4133   -4.6928 H         1 <0>         0.0661
     24 H5          6.9477   -0.7362   -2.3396 H         1 <0>         0.0847
     25 H6          5.3177   -0.1524   -2.7527 H         1 <0>         0.0865
     26 H7          6.2166    2.0357   -3.3840 H         1 <0>         0.1300
     27 H8          7.8807    1.4614   -3.1210 H         1 <0>         0.1290
     28 H9          7.4175    3.6668   -1.7991 H         1 <0>         0.1301
     29 H10         7.3367    3.2580   -0.0686 H         1 <0>         0.1312
     30 H11         9.2327    1.6915   -0.3431 H         1 <0>         0.0858
     31 H12         9.3070    2.0779   -2.0790 H         1 <0>         0.0842
     32 H13        10.9886    3.3805   -0.8045 H         1 <0>         0.0764
     33 H14         9.7669    4.4520   -1.5309 H         1 <0>         0.0662
     34 H15         9.6926    4.0656    0.2050 H         1 <0>         0.0670
     35 H16         4.7247    1.1418   -1.3317 H         1 <0>         0.1300
     36 H17         5.0018    2.8958   -1.4535 H         1 <0>         0.1300
     37 H18         5.8695    2.9200    0.8693 H         1 <0>         0.0900
     38 H19         5.5924    1.1660    0.9910 H         1 <0>         0.0910
     39 H20         3.7569    4.4914    1.0731 H         1 <0>         0.1734
     40 H21         3.6444   -0.6052    0.7786 H         1 <0>         0.1266
     41 H22        -0.4870   -0.5777    1.8641 H         1 <0>         0.1374
     42 H23        -0.4617    1.8702    2.0081 H         1 <0>         0.1294
     43 H24         0.4154   -3.8139    1.4215 H         1 <0>         0.1042
     44 H25        -0.0056   -2.4928    2.5375 H         1 <0>         0.0581
     45 H26        -0.4558   -2.3835    0.8189 H         1 <0>         0.0574
     46 N2          6.7526    1.7008   -1.3590 N.4       1 <0>        -0.3976
     47 H27         7.0939    0.9040   -0.8087 H         1 <0>         0.4253
@<TRIPOS>BOND
     1    1    2 1
     2    1   21 1
     3    1   22 1
     4    1   23 1
     5    2    3 1
     6    2   24 1
     7    2   25 1
     8    3   26 1
     9    3   27 1
    10    3   46 1
    11    4    5 1
    12    4   28 1
    13    4   29 1
    14    4   46 1
    15    5    6 1
    16    5   30 1
    17    5   31 1
    18    6   32 1
    19    6   33 1
    20    6   34 1
    21    7    8 1
    22    7   35 1
    23    7   36 1
    24    7   46 1
    25    8    9 1
    26    8   37 1
    27    8   38 1
    28    9   14 1
    29    9   10 2
    30   10   11 1
    31   10   39 1
    32   11   12 1
    33   11   13 1
    34   13   18 ar
    35   13   14 ar
    36   14   15 ar
    37   15   16 ar
    38   15   40 1
    39   16   17 ar
    40   16   19 1
    41   17   18 ar
    42   17   41 1
    43   18   42 1
    44   19   20 1
    45   20   43 1
    46   20   44 1
    47   20   45 1
    48   46   47 1
@<TRIPOS>MOLECULE
ZINC03775140
   62    64     0     0     0
SMALL
USER_CHARGES

@<TRIPOS>ATOM
      1 C1         -0.0173    1.4248    0.0099 C.3       1 <0>         0.0171
      2 O1          0.0021   -0.0041    0.0020 O.3       1 <0>        -0.2760
      3 C2          0.6048   -0.6061   -1.0540 C.ar      1 <0>         0.2490
      4 C3          1.1714    0.1577   -2.0595 C.ar      1 <0>        -0.2968
      5 C4          1.7875   -0.4643   -3.1379 C.ar      1 <0>         0.3045
      6 C5          1.8368   -1.8562   -3.2112 C.ar      1 <0>        -0.1599
      7 C6          1.2804   -2.6188   -2.2247 C.ar      1 <0>         0.0104
      8 C7          0.6619   -2.0064   -1.1291 C.ar      1 <0>        -0.2378
      9 C8          0.0677   -2.8282   -0.0619 C.2       1 <0>         0.5777
     10 O2         -0.4739   -2.2937    0.8871 O.2       1 <0>        -0.5075
     11 N1          0.1238   -4.1727   -0.1363 N.am      1 <0>        -0.7330
     12 C9         -0.4675   -4.9905    0.9257 C.3       1 <0>         0.1404
     13 H1         -1.3642   -4.5012    1.3060 H         1 <0>         0.1248
     14 C10         0.5437   -5.1622    2.0629 C.3       1 <0>        -0.1546
     15 C11         1.7671   -5.9184    1.5404 C.3       1 <0>        -0.0167
     16 N2          1.3566   -7.2378    1.0453 N.4       1 <0>        -0.3759
     17 C12         0.4423   -7.0806   -0.0921 C.3       1 <0>        -0.0388
     18 C13        -0.8339   -6.3685    0.3670 C.3       1 <0>         0.0659
     19 H2         -1.3203   -6.9585    1.1438 H         1 <0>         0.1015
     20 O3         -1.7219   -6.2131   -0.7418 O.3       1 <0>        -0.3502
     21 C14        -2.6322   -7.3011   -0.9143 C.3       1 <0>         0.0179
     22 C15         2.5438   -7.9895    0.6171 C.3       1 <0>        -0.0062
     23 C16         3.4343   -8.2703    1.8292 C.3       1 <0>        -0.1507
     24 C17         4.6708   -9.0533    1.3832 C.3       1 <0>         0.0614
     25 O4          5.5024   -9.3155    2.5152 O.3       1 <0>        -0.3099
     26 C18         6.6507  -10.0076    2.2904 C.ar      1 <0>         0.1104
     27 C19         6.9722  -10.4203    1.0058 C.ar      1 <0>        -0.1786
     28 C20         8.1394  -11.1237    0.7787 C.ar      1 <0>        -0.1136
     29 C21         8.9878  -11.4170    1.8328 C.ar      1 <0>         0.0730
     30 C22         8.6679  -11.0061    3.1156 C.ar      1 <0>        -0.1109
     31 C23         7.5046  -10.2969    3.3445 C.ar      1 <0>        -0.1156
     32 F1         10.1287  -12.1053    1.6094 F         1 <0>        -0.1339
     33 Cl1         2.6089   -2.6229   -4.5639 Cl        1 <0>        -0.0623
     34 N3          2.3569    0.3038   -4.1485 N.pl3     1 <0>        -0.8495
     35 H3          1.0053    1.8021    0.0021 H         1 <0>         0.0609
     36 H4         -0.5445    1.7859   -0.8732 H         1 <0>         0.0614
     37 H5         -0.5275    1.7763    0.9067 H         1 <0>         0.1085
     38 H6          1.1342    1.2357   -2.0059 H         1 <0>         0.1464
     39 H7          1.3215   -3.6961   -2.2880 H         1 <0>         0.1333
     40 H8          0.5557   -4.5989   -0.8931 H         1 <0>         0.3942
     41 H9          0.8503   -4.1821    2.4284 H         1 <0>         0.1283
     42 H10         0.0859   -5.7273    2.8748 H         1 <0>         0.1026
     43 H11         2.2242   -5.3523    0.7288 H         1 <0>         0.1317
     44 H12         2.4891   -6.0421    2.3475 H         1 <0>         0.1399
     45 H13         0.9276   -6.4898   -0.8690 H         1 <0>         0.1341
     46 H14         0.1862   -8.0624   -0.4903 H         1 <0>         0.1380
     47 H15        -2.0715   -8.2215   -1.0778 H         1 <0>         0.0481
     48 H16        -3.2481   -7.4047   -0.0210 H         1 <0>         0.0566
     49 H17        -3.2712   -7.1071   -1.7758 H         1 <0>         0.1042
     50 H18         2.2339   -8.9329    0.1676 H         1 <0>         0.1368
     51 H19         3.1003   -7.4039   -0.1147 H         1 <0>         0.1356
     52 H20         3.7442   -7.3269    2.2786 H         1 <0>         0.1012
     53 H21         2.8778   -8.8559    2.5610 H         1 <0>         0.1013
     54 H22         4.3608   -9.9967    0.9337 H         1 <0>         0.0740
     55 H23         5.2272   -8.4676    0.6514 H         1 <0>         0.0740
     56 H24         6.3103  -10.1922    0.1835 H         1 <0>         0.1353
     57 H25         8.3900  -11.4451   -0.2214 H         1 <0>         0.1422
     58 H26         9.3304  -11.2359    3.9370 H         1 <0>         0.1482
     59 H27         7.2577   -9.9722    4.3445 H         1 <0>         0.1439
     60 H28         2.3233    1.2719   -4.0992 H         1 <0>         0.4097
     61 H29         2.7876   -0.1289   -4.9023 H         1 <0>         0.4089
     62 H30         0.8896   -7.7426    1.7837 H         1 <0>         0.4252
@<TRIPOS>BOND
     1    1    2 1
     2    1   35 1
     3    1   36 1
     4    1   37 1
     5    2    3 1
     6    3    8 ar
     7    3    4 ar
     8    4    5 ar
     9    4   38 1
    10    5    6 ar
    11    5   34 1
    12    6    7 ar
    13    6   33 1
    14    7    8 ar
    15    7   39 1
    16    8    9 1
    17    9   10 2
    18    9   11 am
    19   11   12 1
    20   11   40 1
    21   12   13 1
    22   12   18 1
    23   12   14 1
    24   14   15 1
    25   14   41 1
    26   14   42 1
    27   15   16 1
    28   15   43 1
    29   15   44 1
    30   16   17 1
    31   16   22 1
    32   16   62 1
    33   17   18 1
    34   17   45 1
    35   17   46 1
    36   18   19 1
    37   18   20 1
    38   20   21 1
    39   21   47 1
    40   21   48 1
    41   21   49 1
    42   22   23 1
    43   22   50 1
    44   22   51 1
    45   23   24 1
    46   23   52 1
    47   23   53 1
    48   24   25 1
    49   24   54 1
    50   24   55 1
    51   25   26 1
    52   26   31 ar
    53   26   27 ar
    54   27   28 ar
    55   27   56 1
    56   28   29 ar
    57   28   57 1
    58   29   30 ar
    59   29   32 1
    60   30   31 ar
    61   30   58 1
    62   31   59 1
    63   34   60 1
    64   34   61 1
@<TRIPOS>MOLECULE
ZINC03830564
   62    64     0     0     0
SMALL
USER_CHARGES

@<TRIPOS>ATOM
      1 C1         -0.0173    1.4248    0.0099 C.3       1 <0>         0.0173
      2 O1          0.0021   -0.0041    0.0020 O.3       1 <0>        -0.2768
      3 C2          0.6048   -0.6061   -1.0540 C.ar      1 <0>         0.2482
      4 C3          1.1714    0.1577   -2.0595 C.ar      1 <0>        -0.2974
      5 C4          1.7875   -0.4643   -3.1379 C.ar      1 <0>         0.3044
      6 C5          1.8368   -1.8562   -3.2112 C.ar      1 <0>        -0.1594
      7 C6          1.2804   -2.6188   -2.2247 C.ar      1 <0>         0.0124
      8 C7          0.6619   -2.0064   -1.1291 C.ar      1 <0>        -0.2376
      9 C8          0.0677   -2.8282   -0.0619 C.2       1 <0>         0.5803
     10 O2         -0.4739   -2.2937    0.8871 O.2       1 <0>        -0.5144
     11 N1          0.1238   -4.1727   -0.1363 N.am      1 <0>        -0.7279
     12 C9         -0.4675   -4.9905    0.9257 C.3       1 <0>         0.1426
     13 H1         -0.3382   -4.4904    1.8855 H         1 <0>         0.1147
     14 C10        -1.9606   -5.1884    0.6484 C.3       1 <0>        -0.1574
     15 C11        -2.5547   -6.1082    1.7173 C.3       1 <0>        -0.0121
     16 N2         -1.8729   -7.4076    1.6837 N.4       1 <0>        -0.3780
     17 C12        -0.4544   -7.2346    2.0193 C.3       1 <0>        -0.0308
     18 C13         0.2219   -6.3574    0.9634 C.3       1 <0>         0.0634
     19 H2          0.1375   -6.8346   -0.0130 H         1 <0>         0.0897
     20 O3          1.6015   -6.1871    1.2946 O.3       1 <0>        -0.3498
     21 C14         2.4612   -7.1803    0.7321 C.3       1 <0>         0.0175
     22 C15        -2.4981   -8.3123    2.6576 C.3       1 <0>        -0.0056
     23 C16        -3.9400   -8.5999    2.2341 C.3       1 <0>        -0.1510
     24 C17        -4.5912   -9.5422    3.2484 C.3       1 <0>         0.0612
     25 O4         -5.9378   -9.8107    2.8528 O.3       1 <0>        -0.3101
     26 C18        -6.6627  -10.6375    3.6523 C.ar      1 <0>         0.1103
     27 C19        -6.0908  -11.1740    4.7964 C.ar      1 <0>        -0.1786
     28 C20        -6.8286  -12.0140    5.6079 C.ar      1 <0>        -0.1136
     29 C21        -8.1381  -12.3209    5.2793 C.ar      1 <0>         0.0729
     30 C22        -8.7100  -11.7865    4.1373 C.ar      1 <0>        -0.1110
     31 C23        -7.9767  -10.9409    3.3276 C.ar      1 <0>        -0.1157
     32 F1         -8.8583  -13.1429    6.0736 F         1 <0>        -0.1339
     33 Cl1         2.6089   -2.6229   -4.5639 Cl        1 <0>        -0.0612
     34 N3          2.3569    0.3038   -4.1485 N.pl3     1 <0>        -0.8498
     35 H3          1.0053    1.8021    0.0021 H         1 <0>         0.0610
     36 H4         -0.5445    1.7859   -0.8732 H         1 <0>         0.0608
     37 H5         -0.5275    1.7763    0.9067 H         1 <0>         0.1075
     38 H6          1.1342    1.2357   -2.0059 H         1 <0>         0.1460
     39 H7          1.3215   -3.6961   -2.2880 H         1 <0>         0.1366
     40 H8          0.5557   -4.5989   -0.8931 H         1 <0>         0.4011
     41 H9         -2.4669   -4.2235    0.6762 H         1 <0>         0.1280
     42 H10        -2.0914   -5.6407   -0.3346 H         1 <0>         0.0936
     43 H11        -2.4236   -5.6548    2.6998 H         1 <0>         0.1373
     44 H12        -3.6177   -6.2510    1.5230 H         1 <0>         0.1408
     45 H13        -0.3681   -6.7573    2.9954 H         1 <0>         0.1434
     46 H14         0.0331   -8.2090    2.0480 H         1 <0>         0.1370
     47 H15         2.1631   -8.1650    1.0923 H         1 <0>         0.0484
     48 H16         2.3857   -7.1529   -0.3549 H         1 <0>         0.0550
     49 H17         3.4905   -6.9808    1.0300 H         1 <0>         0.1046
     50 H18        -1.9380   -9.2465    2.6975 H         1 <0>         0.1365
     51 H19        -2.4951   -7.8445    3.6421 H         1 <0>         0.1371
     52 H20        -4.5001   -7.6657    2.1942 H         1 <0>         0.1015
     53 H21        -3.9430   -9.0676    1.2495 H         1 <0>         0.1005
     54 H22        -4.0310  -10.4764    3.2882 H         1 <0>         0.0740
     55 H23        -4.5881   -9.0744    4.2329 H         1 <0>         0.0745
     56 H24        -5.0691  -10.9353    5.0526 H         1 <0>         0.1356
     57 H25        -6.3836  -12.4318    6.4989 H         1 <0>         0.1423
     58 H26        -9.7315  -12.0270    3.8820 H         1 <0>         0.1482
     59 H27        -8.4246  -10.5203    2.4394 H         1 <0>         0.1438
     60 H28         2.3233    1.2719   -4.0992 H         1 <0>         0.4092
     61 H29         2.7876   -0.1289   -4.9023 H         1 <0>         0.4089
     62 H30        -1.9528   -7.8044    0.7595 H         1 <0>         0.4239
@<TRIPOS>BOND
     1    1    2 1
     2    1   35 1
     3    1   36 1
     4    1   37 1
     5    2    3 1
     6    3    8 ar
     7    3    4 ar
     8    4    5 ar
     9    4   38 1
    10    5    6 ar
    11    5   34 1
    12    6    7 ar
    13    6   33 1
    14    7    8 ar
    15    7   39 1
    16    8    9 1
    17    9   10 2
    18    9   11 am
    19   11   12 1
    20   11   40 1
    21   12   13 1
    22   12   18 1
    23   12   14 1
    24   14   15 1
    25   14   41 1
    26   14   42 1
    27   15   16 1
    28   15   43 1
    29   15   44 1
    30   16   17 1
    31   16   22 1
    32   16   62 1
    33   17   18 1
    34   17   45 1
    35   17   46 1
    36   18   19 1
    37   18   20 1
    38   20   21 1
    39   21   47 1
    40   21   48 1
    41   21   49 1
    42   22   23 1
    43   22   50 1
    44   22   51 1
    45   23   24 1
    46   23   52 1
    47   23   53 1
    48   24   25 1
    49   24   54 1
    50   24   55 1
    51   25   26 1
    52   26   31 ar
    53   26   27 ar
    54   27   28 ar
    55   27   56 1
    56   28   29 ar
    57   28   57 1
    58   29   30 ar
    59   29   32 1
    60   30   31 ar
    61   30   58 1
    62   31   59 1
    63   34   60 1
    64   34   61 1
@<TRIPOS>MOLECULE
ZINC29485479
   40    43     0     0     0
SMALL
USER_CHARGES
8-fluoro-2-[2-(4-pyridyl)ethyl]-1,3,4,5-tetrahydropyrido[4,3-b]indole
@<TRIPOS>ATOM
      1 C1         -8.3053    8.5845   -4.9693 C.ar      1 <0>        -0.1383
      2 C2         -8.7314    8.0812   -3.7524 C.ar      1 <0>        -0.0970
      3 C3         -7.8567    7.2367   -3.0736 C.ar      1 <0>         0.0801
      4 C4         -6.5864    6.9168   -3.6199 C.ar      1 <0>        -0.0722
      5 C5         -6.1749    7.4363   -4.8513 C.ar      1 <0>        -0.1062
      6 C6         -7.0646    8.2725   -5.5049 C.ar      1 <0>         0.0699
      7 F1         -6.7136    8.7998   -6.6982 F         1 <0>        -0.1455
      8 C7         -5.9535    6.0328   -2.6658 C.2       1 <0>        -0.1803
      9 C8         -6.8221    5.8644   -1.6427 C.2       1 <0>         0.1048
     10 N1         -7.9620    6.5824   -1.8777 N.pl3     1 <0>        -0.5926
     11 H1         -8.8742    6.6871   -1.2719 H         1 <0>         0.4440
     12 C9         -6.5179    4.9934   -0.4458 C.3       1 <0>        -0.0534
     13 C10        -5.3314    4.0898   -0.8053 C.3       1 <0>         0.0536
     14 N2         -4.2487    4.9031   -1.3763 N.3       1 <0>        -0.5357
     15 C11        -4.5949    5.3828   -2.7248 C.3       1 <0>         0.1327
     16 C12        -2.9826    4.1583   -1.3915 C.3       1 <0>         0.0617
     17 C13        -2.5298    3.8929    0.0457 C.3       1 <0>        -0.0818
     18 C14        -1.2309    3.1289    0.0302 C.ar      1 <0>        -0.0376
     19 C15        -1.2232    1.7424    0.0174 C.ar      1 <0>        -0.1719
     20 C16        -0.0126    1.0758    0.0080 C.ar      1 <0>         0.1004
     21 N3          1.1248    1.7431    0.0007 N.ar      1 <0>        -0.4890
     22 C17         1.1555    3.0614    0.0075 C.ar      1 <0>         0.1008
     23 C18        -0.0153    3.7957    0.0221 C.ar      1 <0>        -0.1691
     24 H2         -8.9609    9.2426   -5.5202 H         1 <0>         0.1342
     25 H3         -9.7002    8.3329   -3.3468 H         1 <0>         0.1378
     26 H4         -5.2095    7.1972   -5.2723 H         1 <0>         0.1402
     27 H5         -6.2637    5.6291    0.4151 H         1 <0>         0.0918
     28 H6         -7.4001    4.3828   -0.2029 H         1 <0>         0.0834
     29 H7         -4.9690    3.5826    0.1010 H         1 <0>         0.0897
     30 H8         -5.6525    3.3388   -1.5422 H         1 <0>         0.0432
     31 H9         -4.6230    4.5379   -3.4286 H         1 <0>         0.0454
     32 H10        -3.8509    6.1184   -3.0645 H         1 <0>         0.0873
     33 H11        -3.1268    3.2007   -1.9133 H         1 <0>         0.0396
     34 H12        -2.2160    4.7490   -1.9143 H         1 <0>         0.0818
     35 H13        -2.3857    4.8505    0.5675 H         1 <0>         0.0891
     36 H14        -3.2964    3.3022    0.5685 H         1 <0>         0.0791
     37 H15        -2.1514    1.1904    0.0184 H         1 <0>         0.1329
     38 H16         0.0021   -0.0041    0.0020 H         1 <0>         0.1554
     39 H17         2.1065    3.5732    0.0011 H         1 <0>         0.1561
     40 H18         0.0163    4.8752    0.0269 H         1 <0>         0.1359
@<TRIPOS>BOND
     1    1    6 ar
     2    1    2 ar
     3    1   24 1
     4    2    3 ar
     5    2   25 1
     6    3   10 1
     7    3    4 ar
     8    4    5 ar
     9    4    8 1
    10    5    6 ar
    11    5   26 1
    12    6    7 1
    13    8   15 1
    14    8    9 2
    15    9   10 1
    16    9   12 1
    17   10   11 1
    18   12   13 1
    19   12   27 1
    20   12   28 1
    21   13   14 1
    22   13   29 1
    23   13   30 1
    24   14   15 1
    25   14   16 1
    26   15   31 1
    27   15   32 1
    28   16   17 1
    29   16   33 1
    30   16   34 1
    31   17   18 1
    32   17   35 1
    33   17   36 1
    34   18   23 ar
    35   18   19 ar
    36   19   20 ar
    37   19   37 1
    38   20   21 ar
    39   20   38 1
    40   21   22 ar
    41   22   23 ar
    42   22   39 1
    43   23   40 1
@<TRIPOS>MOLECULE
ZINC29485479
   41    44     0     0     0
SMALL
USER_CHARGES
8-fluoro-2-[2-(4-pyridyl)ethyl]-1,3,4,5-tetrahydropyrido[4,3-b]indole
@<TRIPOS>ATOM
      1 C1         -8.3053    8.5845   -4.9693 C.ar      1 <0>        -0.1360
      2 C2         -8.7314    8.0812   -3.7524 C.ar      1 <0>        -0.0939
      3 C3         -7.8567    7.2367   -3.0736 C.ar      1 <0>         0.0803
      4 C4         -6.5864    6.9168   -3.6199 C.ar      1 <0>        -0.0724
      5 C5         -6.1749    7.4363   -4.8513 C.ar      1 <0>        -0.1102
      6 C6         -7.0646    8.2725   -5.5049 C.ar      1 <0>         0.0752
      7 F1         -6.7136    8.7998   -6.6982 F         1 <0>        -0.1432
      8 C7         -5.9535    6.0328   -2.6658 C.2       1 <0>        -0.1874
      9 C8         -6.8221    5.8644   -1.6427 C.2       1 <0>         0.1049
     10 N1         -7.9620    6.5824   -1.8777 N.pl3     1 <0>        -0.5914
     11 H1         -8.8742    6.6871   -1.2719 H         1 <0>         0.4467
     12 C9         -6.5179    4.9934   -0.4458 C.3       1 <0>        -0.0549
     13 C10        -5.3314    4.0898   -0.8053 C.3       1 <0>         0.0541
     14 N2         -4.2487    4.9031   -1.3763 N.3       1 <0>        -0.5346
     15 C11        -4.5949    5.3828   -2.7248 C.3       1 <0>         0.1360
     16 C12        -2.9826    4.1583   -1.3915 C.3       1 <0>         0.0601
     17 C13        -2.5298    3.8929    0.0457 C.3       1 <0>        -0.1082
     18 C14        -1.2309    3.1289    0.0302 C.ar      1 <0>         0.0464
     19 C15        -1.2232    1.7424    0.0174 C.ar      1 <0>        -0.1321
     20 C16        -0.0126    1.0758    0.0080 C.ar      1 <0>         0.1383
     21 N3          1.1248    1.7431    0.0007 N.ar      1 <0>        -0.4671
     22 C17         1.1555    3.0614    0.0075 C.ar      1 <0>         0.1358
     23 C18        -0.0153    3.7957    0.0221 C.ar      1 <0>        -0.1292
     24 H2         -8.9609    9.2426   -5.5202 H         1 <0>         0.1370
     25 H3         -9.7002    8.3329   -3.3468 H         1 <0>         0.1401
     26 H4         -5.2095    7.1972   -5.2723 H         1 <0>         0.1394
     27 H5         -6.2637    5.6291    0.4151 H         1 <0>         0.0928
     28 H6         -7.4001    4.3828   -0.2029 H         1 <0>         0.0866
     29 H7         -4.9690    3.5826    0.1010 H         1 <0>         0.0866
     30 H8         -5.6525    3.3388   -1.5422 H         1 <0>         0.0472
     31 H9         -4.6230    4.5379   -3.4286 H         1 <0>         0.0472
     32 H10        -3.8509    6.1184   -3.0645 H         1 <0>         0.0889
     33 H11        -3.1268    3.2007   -1.9133 H         1 <0>         0.0440
     34 H12        -2.2160    4.7490   -1.9143 H         1 <0>         0.0865
     35 H13        -2.3857    4.8505    0.5675 H         1 <0>         0.1124
     36 H14        -3.2964    3.3022    0.5685 H         1 <0>         0.1020
     37 H15        -2.1514    1.1904    0.0184 H         1 <0>         0.1815
     38 H16         0.0021   -0.0041    0.0020 H         1 <0>         0.2074
     39 H17         2.1065    3.5732    0.0011 H         1 <0>         0.2083
     40 H18         0.0163    4.8752    0.0269 H         1 <0>         0.1841
     41 H19         2.0812    1.1998   -0.0114 H         1 <0>         0.4908
@<TRIPOS>BOND
     1    1    6 ar
     2    1    2 ar
     3    1   24 1
     4    2    3 ar
     5    2   25 1
     6    3   10 1
     7    3    4 ar
     8    4    5 ar
     9    4    8 1
    10    5    6 ar
    11    5   26 1
    12    6    7 1
    13    8   15 1
    14    8    9 2
    15    9   10 1
    16    9   12 1
    17   10   11 1
    18   12   13 1
    19   12   27 1
    20   12   28 1
    21   13   14 1
    22   13   29 1
    23   13   30 1
    24   14   15 1
    25   14   16 1
    26   15   31 1
    27   15   32 1
    28   16   17 1
    29   16   33 1
    30   16   34 1
    31   17   18 1
    32   17   35 1
    33   17   36 1
    34   18   23 ar
    35   18   19 ar
    36   19   20 ar
    37   19   37 1
    38   20   21 ar
    39   20   38 1
    40   21   22 ar
    41   21   41 1
    42   22   23 ar
    43   22   39 1
    44   23   40 1
@<TRIPOS>MOLECULE
ZINC28100426
   57    60     0     0     0
SMALL
USER_CHARGES
1-[3-(5-methoxy-3,4-dihydronaphthalen-1-yl)propyl]-4-(2-pyridyl)piperazine
@<TRIPOS>ATOM
      1 C1         -9.3751   -3.6605    8.9662 C.3       1 <0>         0.0216
      2 O1         -9.5217   -3.2251    7.6131 O.3       1 <0>        -0.3124
      3 C2         -8.4737   -3.4467    6.7766 C.ar      1 <0>         0.1378
      4 C3         -7.3258   -4.0709    7.2489 C.ar      1 <0>        -0.2034
      5 C4         -6.2567   -4.2991    6.4029 C.ar      1 <0>        -0.0817
      6 C5         -6.3208   -3.9080    5.0796 C.ar      1 <0>        -0.1537
      7 C6         -7.4715   -3.2851    4.5982 C.ar      1 <0>        -0.0128
      8 C7         -8.5472   -3.0510    5.4537 C.ar      1 <0>        -0.1069
      9 C8         -9.7807   -2.3726    4.9196 C.3       1 <0>        -0.0755
     10 C9         -9.3883   -1.3387    3.8660 C.3       1 <0>        -0.0980
     11 C10        -8.4673   -1.9440    2.8436 C.2       1 <0>        -0.1163
     12 C11        -7.5639   -2.8503    3.1885 C.2       1 <0>        -0.1072
     13 C12        -6.6423   -3.4374    2.1506 C.3       1 <0>        -0.0713
     14 C13        -5.3239   -2.6612    2.1417 C.3       1 <0>        -0.1504
     15 C14        -4.3883   -3.2573    1.0880 C.3       1 <0>        -0.0073
     16 N1         -3.1224   -2.5120    1.0794 N.4       1 <0>        -0.4020
     17 C15        -2.2928   -2.8964   -0.0710 C.3       1 <0>        -0.0021
     18 C16        -0.9536   -2.1587   -0.0000 C.3       1 <0>         0.0380
     19 N2         -1.1957   -0.7092    0.0101 N.pl3     1 <0>        -0.4771
     20 C17        -2.0254   -0.3249    1.1606 C.3       1 <0>         0.0280
     21 C18        -3.3645   -1.0626    1.0896 C.3       1 <0>        -0.0061
     22 C19         0.0021   -0.0041    0.0020 C.ar      1 <0>         0.2893
     23 C20        -0.0168    1.3872    0.0097 C.ar      1 <0>        -0.1766
     24 C21         1.1824    2.0761    0.0019 C.ar      1 <0>        -0.0496
     25 C22         2.3650    1.3480   -0.0128 C.ar      1 <0>        -0.1792
     26 C23         2.3098   -0.0311   -0.0202 C.ar      1 <0>         0.1282
     27 N3          1.1508   -0.6622   -0.0125 N.ar      1 <0>        -0.5178
     28 H1        -10.2892   -3.4214    9.5294 H         1 <0>         0.1070
     29 H2         -8.5169   -3.1479    9.4254 H         1 <0>         0.0583
     30 H3         -9.2063   -4.7473    8.9854 H         1 <0>         0.0590
     31 H4         -7.2687   -4.3798    8.2822 H         1 <0>         0.1310
     32 H5         -5.3681   -4.7852    6.7779 H         1 <0>         0.1260
     33 H6         -5.4846   -4.0878    4.4201 H         1 <0>         0.1190
     34 H7        -10.4434   -3.1228    4.4635 H         1 <0>         0.0787
     35 H8        -10.3084   -1.8697    5.7434 H         1 <0>         0.0877
     36 H9        -10.2922   -0.9725    3.3572 H         1 <0>         0.0839
     37 H10        -8.8746   -0.4963    4.3523 H         1 <0>         0.0802
     38 H11        -8.5520   -1.6233    1.7948 H         1 <0>         0.1210
     39 H12        -6.4449   -4.4926    2.3904 H         1 <0>         0.0839
     40 H13        -7.1149   -3.3688    1.1597 H         1 <0>         0.0835
     41 H14        -5.5213   -1.6060    1.9019 H         1 <0>         0.0915
     42 H15        -4.8513   -2.7298    3.1326 H         1 <0>         0.0906
     43 H16        -4.1909   -4.3125    1.3278 H         1 <0>         0.1341
     44 H17        -4.8609   -3.1887    0.0971 H         1 <0>         0.1297
     45 H18        -2.1162   -3.9819   -0.0493 H         1 <0>         0.1411
     46 H19        -2.8115   -2.6279   -1.0031 H         1 <0>         0.1356
     47 H20        -0.4232   -2.4493    0.9188 H         1 <0>         0.0756
     48 H21        -0.3424   -2.4233   -0.8754 H         1 <0>         0.1323
     49 H22        -1.5067   -0.5935    2.0927 H         1 <0>         0.0713
     50 H23        -2.2021    0.7606    1.1390 H         1 <0>         0.1296
     51 H24        -3.8955   -0.7731    0.1708 H         1 <0>         0.1387
     52 H25        -3.9762   -0.7992    1.9650 H         1 <0>         0.1454
     53 H26        -0.9551    1.9218    0.0170 H         1 <0>         0.1384
     54 H27         1.1988    3.1559    0.0072 H         1 <0>         0.1440
     55 H28         3.3181    1.8558   -0.0188 H         1 <0>         0.1436
     56 H29         3.2270   -0.6012   -0.0320 H         1 <0>         0.1645
     57 H30        -2.5727   -2.7710    1.9963 H         1 <0>         0.4396
@<TRIPOS>BOND
     1    1    2 1
     2    1   28 1
     3    1   29 1
     4    1   30 1
     5    2    3 1
     6    3    8 ar
     7    3    4 ar
     8    4    5 ar
     9    4   31 1
    10    5    6 ar
    11    5   32 1
    12    6    7 ar
    13    6   33 1
    14    7   12 1
    15    7    8 ar
    16    8    9 1
    17    9   10 1
    18    9   34 1
    19    9   35 1
    20   10   11 1
    21   10   36 1
    22   10   37 1
    23   11   12 2
    24   11   38 1
    25   12   13 1
    26   13   14 1
    27   13   39 1
    28   13   40 1
    29   14   15 1
    30   14   41 1
    31   14   42 1
    32   15   16 1
    33   15   43 1
    34   15   44 1
    35   16   21 1
    36   16   17 1
    37   16   57 1
    38   17   18 1
    39   17   45 1
    40   17   46 1
    41   18   19 1
    42   18   47 1
    43   18   48 1
    44   19   20 1
    45   19   22 1
    46   20   21 1
    47   20   49 1
    48   20   50 1
    49   21   51 1
    50   21   52 1
    51   22   27 ar
    52   22   23 ar
    53   23   24 ar
    54   23   53 1
    55   24   25 ar
    56   24   54 1
    57   25   26 ar
    58   25   55 1
    59   26   27 ar
    60   26   56 1
@<TRIPOS>MOLECULE
ZINC28100426
   57    60     0     0     0
SMALL
USER_CHARGES
1-[3-(5-methoxy-3,4-dihydronaphthalen-1-yl)propyl]-4-(2-pyridyl)piperazine
@<TRIPOS>ATOM
      1 C1         -9.3751   -3.6605    8.9662 C.3       1 <0>         0.0228
      2 O1         -9.5217   -3.2251    7.6131 O.3       1 <0>        -0.3138
      3 C2         -8.4737   -3.4467    6.7766 C.ar      1 <0>         0.1327
      4 C3         -7.3258   -4.0709    7.2489 C.ar      1 <0>        -0.2054
      5 C4         -6.2567   -4.2991    6.4029 C.ar      1 <0>        -0.0837
      6 C5         -6.3208   -3.9080    5.0796 C.ar      1 <0>        -0.1465
      7 C6         -7.4715   -3.2851    4.5982 C.ar      1 <0>        -0.0103
      8 C7         -8.5472   -3.0510    5.4537 C.ar      1 <0>        -0.1082
      9 C8         -9.7807   -2.3726    4.9196 C.3       1 <0>        -0.0735
     10 C9         -9.3883   -1.3387    3.8660 C.3       1 <0>        -0.0941
     11 C10        -8.4673   -1.9440    2.8436 C.2       1 <0>        -0.1321
     12 C11        -7.5639   -2.8503    3.1885 C.2       1 <0>        -0.0948
     13 C12        -6.6423   -3.4374    2.1506 C.3       1 <0>        -0.0767
     14 C13        -5.3239   -2.6612    2.1417 C.3       1 <0>        -0.1210
     15 C14        -4.3883   -3.2573    1.0880 C.3       1 <0>         0.0532
     16 N1         -3.1224   -2.5120    1.0794 N.3       1 <0>        -0.5399
     17 C15        -2.2928   -2.8964   -0.0710 C.3       1 <0>         0.0547
     18 C16        -0.9536   -2.1587   -0.0000 C.3       1 <0>         0.0188
     19 N2         -1.1957   -0.7092    0.0101 N.pl3     1 <0>        -0.4725
     20 C17        -2.0254   -0.3249    1.1606 C.3       1 <0>         0.0542
     21 C18        -3.3645   -1.0626    1.0896 C.3       1 <0>         0.0404
     22 C19         0.0021   -0.0041    0.0020 C.ar      1 <0>         0.3616
     23 C20        -0.0168    1.3872    0.0097 C.ar      1 <0>        -0.1500
     24 C21         1.1824    2.0761    0.0019 C.ar      1 <0>         0.0216
     25 C22         2.3650    1.3480   -0.0128 C.ar      1 <0>        -0.1504
     26 C23         2.3098   -0.0311   -0.0202 C.ar      1 <0>         0.1411
     27 N3          1.1508   -0.6622   -0.0125 N.ar      1 <0>        -0.5075
     28 H1        -10.2892   -3.4214    9.5294 H         1 <0>         0.1046
     29 H2         -8.5169   -3.1479    9.4254 H         1 <0>         0.0568
     30 H3         -9.2063   -4.7473    8.9854 H         1 <0>         0.0576
     31 H4         -7.2687   -4.3798    8.2822 H         1 <0>         0.1288
     32 H5         -5.3681   -4.7852    6.7779 H         1 <0>         0.1250
     33 H6         -5.4846   -4.0878    4.4201 H         1 <0>         0.1254
     34 H7        -10.4434   -3.1228    4.4635 H         1 <0>         0.0770
     35 H8        -10.3084   -1.8697    5.7434 H         1 <0>         0.0852
     36 H9        -10.2922   -0.9725    3.3572 H         1 <0>         0.0803
     37 H10        -8.8746   -0.4963    4.3523 H         1 <0>         0.0767
     38 H11        -8.5520   -1.6233    1.7948 H         1 <0>         0.1183
     39 H12        -6.4449   -4.4926    2.3904 H         1 <0>         0.0761
     40 H13        -7.1149   -3.3688    1.1597 H         1 <0>         0.0736
     41 H14        -5.5213   -1.6060    1.9019 H         1 <0>         0.0678
     42 H15        -4.8513   -2.7298    3.1326 H         1 <0>         0.0784
     43 H16        -4.1909   -4.3125    1.3278 H         1 <0>         0.0863
     44 H17        -4.8609   -3.1887    0.0971 H         1 <0>         0.0439
     45 H18        -2.1162   -3.9819   -0.0493 H         1 <0>         0.1032
     46 H19        -2.8115   -2.6279   -1.0031 H         1 <0>         0.0578
     47 H20        -0.4232   -2.4493    0.9188 H         1 <0>         0.0789
     48 H21        -0.3424   -2.4233   -0.8754 H         1 <0>         0.1000
     49 H22        -1.5067   -0.5935    2.0927 H         1 <0>         0.0778
     50 H23        -2.2021    0.7606    1.1390 H         1 <0>         0.1081
     51 H24        -3.8955   -0.7731    0.1708 H         1 <0>         0.0565
     52 H25        -3.9762   -0.7992    1.9650 H         1 <0>         0.1110
     53 H26        -0.9551    1.9218    0.0170 H         1 <0>         0.1815
     54 H27         1.1988    3.1559    0.0072 H         1 <0>         0.1768
     55 H28         3.3181    1.8558   -0.0188 H         1 <0>         0.1825
     56 H29         3.2270   -0.6012   -0.0320 H         1 <0>         0.2064
     57 H30         1.1544   -1.7622   -0.0184 H         1 <0>         0.4771
@<TRIPOS>BOND
     1    1    2 1
     2    1   28 1
     3    1   29 1
     4    1   30 1
     5    2    3 1
     6    3    8 ar
     7    3    4 ar
     8    4    5 ar
     9    4   31 1
    10    5    6 ar
    11    5   32 1
    12    6    7 ar
    13    6   33 1
    14    7   12 1
    15    7    8 ar
    16    8    9 1
    17    9   10 1
    18    9   34 1
    19    9   35 1
    20   10   11 1
    21   10   36 1
    22   10   37 1
    23   11   12 2
    24   11   38 1
    25   12   13 1
    26   13   14 1
    27   13   39 1
    28   13   40 1
    29   14   15 1
    30   14   41 1
    31   14   42 1
    32   15   16 1
    33   15   43 1
    34   15   44 1
    35   16   21 1
    36   16   17 1
    37   17   18 1
    38   17   45 1
    39   17   46 1
    40   18   19 1
    41   18   47 1
    42   18   48 1
    43   19   20 1
    44   19   22 1
    45   20   21 1
    46   20   49 1
    47   20   50 1
    48   21   51 1
    49   21   52 1
    50   22   27 ar
    51   22   23 ar
    52   23   24 ar
    53   23   53 1
    54   24   25 ar
    55   24   54 1
    56   25   26 ar
    57   25   55 1
    58   26   27 ar
    59   26   56 1
    60   27   57 1
@<TRIPOS>MOLECULE
ZINC01542568
   52    54     0     0     0
SMALL
USER_CHARGES

@<TRIPOS>ATOM
      1 C1         -0.0167    1.3781    0.0096 C.ar      1 <0>        -0.1173
      2 C2          1.1709    2.0855    0.0021 C.ar      1 <0>        -0.1159
      3 C3          2.3773    1.4107   -0.0130 C.ar      1 <0>        -0.1175
      4 C4          2.3960    0.0285   -0.0201 C.ar      1 <0>        -0.0953
      5 C5          1.2084   -0.6789   -0.0117 C.ar      1 <0>        -0.1176
      6 C6          0.0021   -0.0041    0.0020 C.ar      1 <0>        -0.1161
      7 C7          3.7112   -0.7071   -0.0376 C.3       1 <0>        -0.0783
      8 C8          4.1714   -0.9633    1.3989 C.3       1 <0>        -0.1115
      9 C9          5.5066   -1.7102    1.3812 C.3       1 <0>        -0.1504
     10 C10         5.9667   -1.9663    2.8177 C.3       1 <0>        -0.0100
     11 N1          7.2487   -2.6834    2.8007 N.4       1 <0>        -0.3854
     12 C11         7.0575   -4.0103    2.2028 C.3       1 <0>        -0.0092
     13 C12         8.4045   -4.7302    2.1084 C.3       1 <0>        -0.1367
     14 C13         8.9956   -4.8819    3.5130 C.3       1 <0>        -0.1479
     15 C14         9.1213   -3.4974    4.1555 C.3       1 <0>        -0.1370
     16 C15         7.7478   -2.8231    4.1740 C.3       1 <0>        -0.0030
     17 C16        10.3577   -5.5200    3.4204 C.2       1 <0>         0.4081
     18 O1         11.0447   -5.3427    2.4369 O.2       1 <0>        -0.4344
     19 C17        10.8536   -6.3574    4.5222 C.ar      1 <0>        -0.1964
     20 C18        10.0610   -6.5686    5.6560 C.ar      1 <0>        -0.0461
     21 C19        10.5316   -7.3543    6.6849 C.ar      1 <0>        -0.1663
     22 C20        11.7884   -7.9352    6.5991 C.ar      1 <0>         0.1461
     23 C21        12.5791   -7.7298    5.4781 C.ar      1 <0>        -0.1630
     24 C22        12.1179   -6.9514    4.4394 C.ar      1 <0>        -0.0243
     25 F1         12.2445   -8.7040    7.6121 F         1 <0>        -0.1245
     26 H1         -0.9591    1.9053    0.0259 H         1 <0>         0.1251
     27 H2          1.1563    3.1654    0.0076 H         1 <0>         0.1247
     28 H3          3.3051    1.9634   -0.0196 H         1 <0>         0.1203
     29 H4          1.2231   -1.7588   -0.0176 H         1 <0>         0.1201
     30 H5         -0.9258   -0.5567    0.0082 H         1 <0>         0.1246
     31 H6          3.5884   -1.6586   -0.5549 H         1 <0>         0.0753
     32 H7          4.4573   -0.1052   -0.5563 H         1 <0>         0.0757
     33 H8          4.2941   -0.0118    1.9163 H         1 <0>         0.0758
     34 H9          3.4252   -1.5652    1.9176 H         1 <0>         0.0755
     35 H10         5.3838   -2.6617    0.8639 H         1 <0>         0.0882
     36 H11         6.2527   -1.1082    0.8625 H         1 <0>         0.0883
     37 H12         6.0895   -1.0148    3.3350 H         1 <0>         0.1321
     38 H13         5.2206   -2.5682    3.3364 H         1 <0>         0.1305
     39 H14         6.3771   -4.5933    2.8234 H         1 <0>         0.1314
     40 H15         6.6338   -3.9008    1.2045 H         1 <0>         0.1369
     41 H16         8.2601   -5.7159    1.6659 H         1 <0>         0.1162
     42 H17         9.0857   -4.1481    1.4878 H         1 <0>         0.1009
     43 H18         8.3395   -5.5067    4.1191 H         1 <0>         0.1162
     44 H19         9.4893   -3.6018    5.1761 H         1 <0>         0.1201
     45 H20         9.8173   -2.8897    3.5773 H         1 <0>         0.0967
     46 H21         7.8336   -1.8373    4.6309 H         1 <0>         0.1364
     47 H22         7.0526   -3.4315    4.7526 H         1 <0>         0.1324
     48 H23         9.0826   -6.1164    5.7243 H         1 <0>         0.1390
     49 H24         9.9209   -7.5182    7.5605 H         1 <0>         0.1472
     50 H25        13.5567   -8.1849    5.4175 H         1 <0>         0.1491
     51 H26        12.7327   -6.7959    3.5652 H         1 <0>         0.1470
     52 H27         7.9169   -2.1628    2.2524 H         1 <0>         0.4242
@<TRIPOS>BOND
     1    1    6 ar
     2    1    2 ar
     3    1   26 1
     4    2    3 ar
     5    2   27 1
     6    3    4 ar
     7    3   28 1
     8    4    5 ar
     9    4    7 1
    10    5    6 ar
    11    5   29 1
    12    6   30 1
    13    7    8 1
    14    7   31 1
    15    7   32 1
    16    8    9 1
    17    8   33 1
    18    8   34 1
    19    9   10 1
    20    9   35 1
    21    9   36 1
    22   10   11 1
    23   10   37 1
    24   10   38 1
    25   11   16 1
    26   11   12 1
    27   11   52 1
    28   12   13 1
    29   12   39 1
    30   12   40 1
    31   13   14 1
    32   13   41 1
    33   13   42 1
    34   14   15 1
    35   14   17 1
    36   14   43 1
    37   15   16 1
    38   15   44 1
    39   15   45 1
    40   16   46 1
    41   16   47 1
    42   17   18 2
    43   17   19 1
    44   19   24 ar
    45   19   20 ar
    46   20   21 ar
    47   20   48 1
    48   21   22 ar
    49   21   49 1
    50   22   23 ar
    51   22   25 1
    52   23   24 ar
    53   23   50 1
    54   24   51 1
@<TRIPOS>MOLECULE
ZINC00403033
   27    28     0     0     0
SMALL
USER_CHARGES

@<TRIPOS>ATOM
      1 C1         -0.0187    1.5258    0.0104 C.3       1 <0>        -0.1848
      2 C2          0.0021   -0.0041    0.0020 C.3       1 <0>         0.0313
      3 H1         -1.0205   -0.3814    0.0098 H         1 <0>         0.1436
      4 C3          0.7182   -0.4975   -1.2568 C.3       1 <0>        -0.0952
      5 C4          0.6316   -2.0003   -1.3275 C.ar      1 <0>        -0.1205
      6 C5          1.6125   -2.7762   -0.7382 C.ar      1 <0>        -0.1307
      7 C6          1.5372   -4.1552   -0.8000 C.ar      1 <0>        -0.0927
      8 C7          0.4778   -4.7631   -1.4537 C.ar      1 <0>         0.0501
      9 C8         -0.5103   -3.9816   -2.0474 C.ar      1 <0>         0.0488
     10 C9         -0.4313   -2.6002   -1.9766 C.ar      1 <0>        -0.0909
     11 O1         -1.4337   -4.8072   -2.6208 O.3       1 <0>        -0.3023
     12 C10        -0.7894   -6.0906   -2.7257 C.3       1 <0>         0.2115
     13 O2          0.1733   -6.0784   -1.6551 O.3       1 <0>        -0.3015
     14 N1          0.7126   -0.4907    1.1921 N.4       1 <0>        -0.6389
     15 H2          1.0039    1.9031    0.0027 H         1 <0>         0.0840
     16 H3         -0.5459    1.8868   -0.8726 H         1 <0>         0.1083
     17 H4         -0.5289    1.8773    0.9072 H         1 <0>         0.0849
     18 H5          0.2444   -0.0644   -2.1377 H         1 <0>         0.1235
     19 H6          1.7648   -0.1951   -1.2215 H         1 <0>         0.1033
     20 H7          2.4395   -2.3040   -0.2288 H         1 <0>         0.1378
     21 H8          2.3049   -4.7588   -0.3387 H         1 <0>         0.1456
     22 H9         -1.1985   -1.9916   -2.4322 H         1 <0>         0.1431
     23 H10        -1.5114   -6.8945   -2.5825 H         1 <0>         0.1432
     24 H11        -0.2895   -6.1906   -3.6892 H         1 <0>         0.0958
     25 H12         0.2403   -0.1653    2.0223 H         1 <0>         0.4370
     26 H13         0.7262   -1.4996    1.1866 H         1 <0>         0.4334
     27 H14         1.6592   -0.1415    1.1850 H         1 <0>         0.4323
@<TRIPOS>BOND
     1    1    2 1
     2    1   15 1
     3    1   16 1
     4    1   17 1
     5    2    3 1
     6    2    4 1
     7    2   14 1
     8    4    5 1
     9    4   18 1
    10    4   19 1
    11    5   10 ar
    12    5    6 ar
    13    6    7 ar
    14    6   20 1
    15    7    8 ar
    16    7   21 1
    17    8   13 1
    18    8    9 ar
    19    9   10 ar
    20    9   11 1
    21   10   22 1
    22   11   12 1
    23   12   13 1
    24   12   23 1
    25   12   24 1
    26   14   25 1
    27   14   26 1
    28   14   27 1
