@<TRIPOS>MOLECULE
ZINC53166256
   43    46     0     0     0
SMALL
USER_CHARGES

@<TRIPOS>ATOM
      1 C1         -0.0645    1.4412   -0.3732 C.3       1 <0>         0.0245
      2 N1         -0.0216   -0.0161   -0.1927 N.3       1 <0>        -0.5427
      3 C2          0.3881   -0.6883   -1.4329 C.3       1 <0>         0.0399
      4 C3          0.2462   -2.2042   -1.2592 C.3       1 <0>         0.1270
      5 N2          0.9912   -2.6085   -0.0572 N.pl3     1 <0>        -0.5934
      6 C4          0.7333   -1.8856    1.1973 C.3       1 <0>         0.1156
      7 C5          0.8560   -0.3822    0.9269 C.3       1 <0>         0.0395
      8 C6          1.9059   -3.6360   -0.1053 C.2       1 <0>         0.5356
      9 N3          2.1874   -4.1476   -1.2567 N.2       1 <0>        -0.6206
     10 C7          2.9530   -5.2310   -1.5577 C.ar      1 <0>         0.1701
     11 C8          2.4830   -6.1190   -2.5335 C.ar      1 <0>        -0.1161
     12 C9          3.2327   -7.2189   -2.8990 C.ar      1 <0>        -0.1046
     13 C10         4.4585   -7.4578   -2.3086 C.ar      1 <0>        -0.1308
     14 C11         4.9338   -6.5952   -1.3330 C.ar      1 <0>        -0.1099
     15 C12         4.1849   -5.4996   -0.9492 C.ar      1 <0>         0.0928
     16 N4          4.6603   -4.6750    0.0974 N.pl3     1 <0>        -0.6675
     17 C13         3.8314   -4.5378    1.1992 C.2       1 <0>         0.0941
     18 C14         2.5165   -4.0886    1.1665 C.2       1 <0>        -0.2204
     19 C15         1.8382   -4.1107    2.4492 C.2       1 <0>        -0.0854
     20 C16         2.5687   -4.5058    3.5084 C.2       1 <0>        -0.1956
     21 S1          4.1544   -4.8614    2.8004 S.3       1 <0>         0.1912
     22 C17         2.1405   -4.6249    4.9484 C.3       1 <0>         0.1641
     23 O1          1.6299   -5.9381    5.1865 O.3       1 <0>        -0.5666
     24 H1          0.9395    1.8113   -0.5807 H         1 <0>         0.0253
     25 H2         -0.7212    1.6847   -1.2084 H         1 <0>         0.0709
     26 H3         -0.4436    1.9089    0.5355 H         1 <0>         0.0707
     27 H4         -0.2467   -0.3553   -2.2540 H         1 <0>         0.0875
     28 H5          1.4271   -0.4432   -1.6533 H         1 <0>         0.0376
     29 H6         -0.8063   -2.4623   -1.1417 H         1 <0>         0.0713
     30 H7          0.6556   -2.7127   -2.1321 H         1 <0>         0.1047
     31 H8         -0.2724   -2.1131    1.5509 H         1 <0>         0.0773
     32 H9          1.4647   -2.1834    1.9486 H         1 <0>         0.0976
     33 H10         1.8885   -0.1414    0.6736 H         1 <0>         0.0377
     34 H11         0.5606    0.1728    1.8173 H         1 <0>         0.0886
     35 H12         1.5267   -5.9420   -3.0033 H         1 <0>         0.1272
     36 H13         2.8583   -7.8974   -3.6513 H         1 <0>         0.1261
     37 H14         5.0449   -8.3146   -2.6060 H         1 <0>         0.1266
     38 H15         5.8924   -6.7804   -0.8713 H         1 <0>         0.1236
     39 H16         5.5203   -4.2292    0.0463 H         1 <0>         0.4183
     40 H17         0.8015   -3.8247    2.5488 H         1 <0>         0.1460
     41 H18         2.9969   -4.4447    5.5982 H         1 <0>         0.0639
     42 H19         1.3639   -3.8895    5.1585 H         1 <0>         0.0718
     43 H20         1.3347   -6.0866    6.0953 H         1 <0>         0.3866
@<TRIPOS>BOND
     1    1    2 1
     2    1   24 1
     3    1   25 1
     4    1   26 1
     5    2    7 1
     6    2    3 1
     7    3    4 1
     8    3   27 1
     9    3   28 1
    10    4    5 1
    11    4   29 1
    12    4   30 1
    13    5    6 1
    14    5    8 1
    15    6    7 1
    16    6   31 1
    17    6   32 1
    18    7   33 1
    19    7   34 1
    20    8   18 1
    21    8    9 2
    22    9   10 1
    23   10   15 ar
    24   10   11 ar
    25   11   12 ar
    26   11   35 1
    27   12   13 ar
    28   12   36 1
    29   13   14 ar
    30   13   37 1
    31   14   15 ar
    32   14   38 1
    33   15   16 1
    34   16   17 1
    35   16   39 1
    36   17   21 1
    37   17   18 2
    38   18   19 1
    39   19   20 2
    40   19   40 1
    41   20   21 1
    42   20   22 1
    43   22   23 1
    44   22   41 1
    45   22   42 1
    46   23   43 1
@<TRIPOS>MOLECULE
ZINC53166256
   44    47     0     0     0
SMALL
USER_CHARGES

@<TRIPOS>ATOM
      1 C1         -0.0503    1.4404   -0.3738 C.3       1 <0>        -0.0468
      2 N1         -0.0137   -0.0159   -0.1846 N.4       1 <0>        -0.3851
      3 C2          0.4926   -0.6538   -1.4064 C.3       1 <0>        -0.0215
      4 C3          0.4236   -2.1768   -1.2526 C.3       1 <0>         0.1009
      5 N2          1.1441   -2.5548   -0.0269 N.pl3     1 <0>        -0.6150
      6 C4          0.8123   -1.8460    1.2187 C.3       1 <0>         0.0891
      7 C5          0.8630   -0.3387    0.9482 C.3       1 <0>        -0.0221
      8 C6          2.1011   -3.5439   -0.0451 C.2       1 <0>         0.5271
      9 N3          2.4417   -4.0411   -1.1867 N.2       1 <0>        -0.5934
     10 C7          3.2607   -5.0916   -1.4627 C.ar      1 <0>         0.1438
     11 C8          2.8603   -5.9960   -2.4544 C.ar      1 <0>        -0.1034
     12 C9          3.6662   -7.0636   -2.7954 C.ar      1 <0>        -0.1053
     13 C10         4.8803   -7.2535   -2.1643 C.ar      1 <0>        -0.1121
     14 C11         5.2869   -6.3742   -1.1727 C.ar      1 <0>        -0.1118
     15 C12         4.4814   -5.3110   -0.8134 C.ar      1 <0>         0.1053
     16 N4          4.8874   -4.4699    0.2491 N.pl3     1 <0>        -0.6685
     17 C13         4.0171   -4.3690    1.3226 C.2       1 <0>         0.0970
     18 C14         2.6868   -3.9739    1.2462 C.2       1 <0>        -0.2330
     19 C15         1.9674   -4.0264    2.5054 C.2       1 <0>        -0.1010
     20 C16         2.6776   -4.3936    3.5882 C.2       1 <0>        -0.1858
     21 S1          4.2994   -4.6826    2.9336 S.3       1 <0>         0.2189
     22 C17         2.2067   -4.5331    5.0129 C.3       1 <0>         0.1600
     23 O1          1.7425   -5.8666    5.2328 O.3       1 <0>        -0.5661
     24 H1          0.9563    1.8058   -0.5769 H         1 <0>         0.1210
     25 H2         -0.7009    1.6813   -1.2145 H         1 <0>         0.1255
     26 H3         -0.4336    1.9146    0.5297 H         1 <0>         0.1251
     27 H4         -0.1168   -0.3464   -2.2563 H         1 <0>         0.1423
     28 H5          1.5267   -0.3518   -1.5724 H         1 <0>         0.1313
     29 H6         -0.6176   -2.4904   -1.1769 H         1 <0>         0.0891
     30 H7          0.8911   -2.6535   -2.1141 H         1 <0>         0.1420
     31 H8         -0.1896   -2.1263    1.5440 H         1 <0>         0.0942
     32 H9          1.5369   -2.1040    1.9911 H         1 <0>         0.1380
     33 H10         1.8859   -0.0462    0.7110 H         1 <0>         0.1319
     34 H11         0.5265    0.2010    1.8334 H         1 <0>         0.1434
     35 H12         1.9139   -5.8573   -2.9558 H         1 <0>         0.1292
     36 H13         3.3452   -7.7553   -3.5603 H         1 <0>         0.1323
     37 H14         5.5108   -8.0849   -2.4425 H         1 <0>         0.1334
     38 H15         6.2363   -6.5211   -0.6793 H         1 <0>         0.1295
     39 H16         5.7296   -3.9892    0.2272 H         1 <0>         0.4219
     40 H17         0.9172   -3.7832    2.5704 H         1 <0>         0.1434
     41 H18         3.0327   -4.3194    5.6912 H         1 <0>         0.0672
     42 H19         1.3940   -3.8304    5.1974 H         1 <0>         0.0714
     43 H20         1.4234   -6.0289    6.1311 H         1 <0>         0.3916
     44 H21        -0.9456   -0.3526    0.0063 H         1 <0>         0.4248
@<TRIPOS>BOND
     1    1    2 1
     2    1   24 1
     3    1   25 1
     4    1   26 1
     5    2    7 1
     6    2    3 1
     7    2   44 1
     8    3    4 1
     9    3   27 1
    10    3   28 1
    11    4    5 1
    12    4   29 1
    13    4   30 1
    14    5    6 1
    15    5    8 1
    16    6    7 1
    17    6   31 1
    18    6   32 1
    19    7   33 1
    20    7   34 1
    21    8   18 1
    22    8    9 2
    23    9   10 1
    24   10   15 ar
    25   10   11 ar
    26   11   12 ar
    27   11   35 1
    28   12   13 ar
    29   12   36 1
    30   13   14 ar
    31   13   37 1
    32   14   15 ar
    33   14   38 1
    34   15   16 1
    35   16   17 1
    36   16   39 1
    37   17   21 1
    38   17   18 2
    39   18   19 1
    40   19   20 2
    41   19   40 1
    42   20   21 1
    43   20   22 1
    44   22   23 1
    45   22   41 1
    46   22   42 1
    47   23   43 1
@<TRIPOS>MOLECULE
ZINC13757083
   34    36     0     0     0
SMALL
USER_CHARGES
(2R)-1-(8-bromo-2,3,6,7-tetrahydrofuro[2,3-f]benzofuran-4-yl)propan-2-amine
@<TRIPOS>ATOM
      1 C1          6.1686    2.5690   -0.1669 C.3       1 <0>        -0.1807
      2 C2          5.2106    1.3769   -0.1209 C.3       1 <0>         0.0370
      3 H1          4.5427    1.4141   -0.9816 H         1 <0>         0.1392
      4 C3          4.3865    1.4342    1.1669 C.3       1 <0>        -0.0985
      5 C4          3.3592    0.3317    1.1554 C.ar      1 <0>        -0.0767
      6 C5          2.1127    0.5620    0.6190 C.ar      1 <0>        -0.1294
      7 C6          1.1515   -0.4393    0.5890 C.ar      1 <0>         0.1298
      8 C7          1.4637   -1.6850    1.1307 C.ar      1 <0>        -0.0636
      9 C8          2.7084   -1.9132    1.6721 C.ar      1 <0>        -0.0957
     10 C9          3.6749   -0.9157    1.6876 C.ar      1 <0>         0.0558
     11 O1          4.8332   -1.3585    2.2507 O.3       1 <0>        -0.3166
     12 C10         4.5593   -2.5317    3.0353 C.3       1 <0>         0.0582
     13 C11         3.3223   -3.1351    2.3290 C.3       1 <0>        -0.1182
     14 Br1         0.1723   -3.0663    1.1222 Br        1 <0>        -0.0086
     15 O2          0.0021   -0.0041    0.0020 O.3       1 <0>        -0.2811
     16 C12        -0.0174    1.4336    0.0099 C.3       1 <0>         0.0478
     17 C13         1.4864    1.7961   -0.0025 C.3       1 <0>        -0.1102
     18 H2          6.8364    2.5318    0.6938 H         1 <0>         0.0842
     19 H3          6.7556    2.5281   -1.0844 H         1 <0>         0.0851
     20 H4          5.5961    3.4962   -0.1428 H         1 <0>         0.1078
     21 H5          3.8835    2.3989    1.2337 H         1 <0>         0.1229
     22 H6          5.0455    1.3079    2.0259 H         1 <0>         0.1055
     23 H7          4.3228   -2.2615    4.0645 H         1 <0>         0.0894
     24 H8          5.4001   -3.2246    3.0004 H         1 <0>         0.1207
     25 H9          2.6360   -3.5741    3.0531 H         1 <0>         0.1091
     26 H10         3.6207   -3.8704    1.5818 H         1 <0>         0.1073
     27 H11        -0.5147    1.8180   -0.8806 H         1 <0>         0.1209
     28 H12        -0.4976    1.8083    0.9139 H         1 <0>         0.0893
     29 H13         1.8432    1.9426   -1.0220 H         1 <0>         0.1008
     30 H14         1.6790    2.6793    0.6066 H         1 <0>         0.1039
     31 H15         6.4850    0.0352   -1.0232 H         1 <0>         0.4368
     32 H16         6.6092    0.0688    0.6349 H         1 <0>         0.4371
     33 N1          5.9631    0.1104   -0.1516 N.4       1 <0>        -0.6452
     34 H17         5.3050   -0.6750   -0.0864 H         1 <0>         0.4360
@<TRIPOS>BOND
     1    1    2 1
     2    1   18 1
     3    1   19 1
     4    1   20 1
     5    2    3 1
     6    2    4 1
     7    2   33 1
     8    4    5 1
     9    4   21 1
    10    4   22 1
    11    5   10 ar
    12    5    6 ar
    13    6   17 1
    14    6    7 ar
    15    7    8 ar
    16    7   15 1
    17    8    9 ar
    18    8   14 1
    19    9   13 1
    20    9   10 ar
    21   10   11 1
    22   11   12 1
    23   12   13 1
    24   12   23 1
    25   12   24 1
    26   13   25 1
    27   13   26 1
    28   15   16 1
    29   16   17 1
    30   16   27 1
    31   16   28 1
    32   17   29 1
    33   17   30 1
    34   31   33 1
    35   32   33 1
    36   33   34 1
@<TRIPOS>MOLECULE
ZINC13757085
   34    36     0     0     0
SMALL
USER_CHARGES
(2S)-1-(8-bromo-2,3,6,7-tetrahydrofuro[2,3-f]benzofuran-4-yl)propan-2-amine
@<TRIPOS>ATOM
      1 C1          5.4869    3.1157   -1.4447 C.3       1 <0>        -0.1809
      2 C2          4.1111    2.4464   -1.4423 C.3       1 <0>         0.0372
      3 H1          4.1661    1.5007   -1.9815 H         1 <0>         0.1390
      4 C3          3.6731    2.1861    0.0004 C.3       1 <0>        -0.0981
      5 C4          2.3767    1.4177    0.0010 C.ar      1 <0>        -0.0766
      6 C5          2.3958    0.0414    0.0008 C.ar      1 <0>        -0.1299
      7 C6          1.2156   -0.6896   -0.0040 C.ar      1 <0>         0.1299
      8 C7          0.0021   -0.0041    0.0020 C.ar      1 <0>        -0.0638
      9 C8         -0.0166    1.3722    0.0096 C.ar      1 <0>        -0.0957
     10 C9          1.1646    2.1030    0.0022 C.ar      1 <0>         0.0567
     11 O1          0.9168    3.4421   -0.0128 O.3       1 <0>        -0.3167
     12 C10        -0.4290    3.6781    0.4350 C.3       1 <0>         0.0582
     13 C11        -1.1566    2.3728    0.0355 C.3       1 <0>        -0.1181
     14 Br1        -1.6246   -0.9683   -0.0008 Br        1 <0>        -0.0088
     15 O2          1.4632   -2.0289   -0.0218 O.3       1 <0>        -0.2812
     16 C12         2.8138   -2.2661    0.4104 C.3       1 <0>         0.0479
     17 C13         3.5365   -0.9588    0.0081 C.3       1 <0>        -0.1101
     18 H2          5.7989    3.3011   -2.4725 H         1 <0>         0.0850
     19 H3          5.4319    4.0614   -0.9055 H         1 <0>         0.0841
     20 H4          6.2101    2.4614   -0.9579 H         1 <0>         0.1078
     21 H5          3.5322    3.1368    0.5145 H         1 <0>         0.1054
     22 H6          4.4398    1.6056    0.5137 H         1 <0>         0.1228
     23 H7         -0.4570    3.8208    1.5153 H         1 <0>         0.0892
     24 H8         -0.8627    4.5352   -0.0802 H         1 <0>         0.1206
     25 H9         -1.6138    2.4677   -0.9494 H         1 <0>         0.1072
     26 H10        -1.8999    2.0968    0.7834 H         1 <0>         0.1089
     27 H11         2.8536   -2.4130    1.4897 H         1 <0>         0.0893
     28 H12         3.2422   -3.1209   -0.1129 H         1 <0>         0.1208
     29 H13         4.2887   -0.6861    0.7483 H         1 <0>         0.1038
     30 H14         3.9823   -1.0492   -0.9824 H         1 <0>         0.1008
     31 H15         3.0194    4.1864   -1.5807 H         1 <0>         0.4373
     32 H16         3.4034    3.5153   -3.0532 H         1 <0>         0.4367
     33 N1          3.1158    3.3135   -2.0970 N.4       1 <0>        -0.6450
     34 H17         2.2087    2.8327   -2.1144 H         1 <0>         0.4363
@<TRIPOS>BOND
     1    1    2 1
     2    1   18 1
     3    1   19 1
     4    1   20 1
     5    2    3 1
     6    2    4 1
     7    2   33 1
     8    4    5 1
     9    4   21 1
    10    4   22 1
    11    5   10 ar
    12    5    6 ar
    13    6   17 1
    14    6    7 ar
    15    7    8 ar
    16    7   15 1
    17    8    9 ar
    18    8   14 1
    19    9   13 1
    20    9   10 ar
    21   10   11 1
    22   11   12 1
    23   12   13 1
    24   12   23 1
    25   12   24 1
    26   13   25 1
    27   13   26 1
    28   15   16 1
    29   16   17 1
    30   16   27 1
    31   16   28 1
    32   17   29 1
    33   17   30 1
    34   31   33 1
    35   32   33 1
    36   33   34 1
@<TRIPOS>MOLECULE
ZINC01249433
   37    38     0     0     0
SMALL
USER_CHARGES

@<TRIPOS>ATOM
      1 C1          0.9656    2.2263    0.1786 C.3       1 <0>        -0.0537
      2 N1          0.5697    0.8433    0.4764 N.4       1 <0>        -0.3871
      3 C2         -0.8223    0.8226    0.9452 C.3       1 <0>        -0.0478
      4 C3          0.6891    0.0273   -0.7393 C.3       1 <0>        -0.0050
      5 C4          2.1588   -0.0534   -1.1571 C.3       1 <0>        -0.0176
      6 C5          2.9410   -0.7926   -0.1022 C.ar      1 <0>        -0.1235
      7 C6          4.0798   -0.2253    0.4383 C.ar      1 <0>        -0.1103
      8 C7          4.7973   -0.9034    1.4059 C.ar      1 <0>        -0.1093
      9 C8          4.3758   -2.1487    1.8332 C.ar      1 <0>        -0.1028
     10 C9          3.2365   -2.7156    1.2933 C.ar      1 <0>        -0.1094
     11 C10         2.5166   -2.0356    0.3289 C.ar      1 <0>        -0.1196
     12 C11         2.2685   -0.7859   -2.4695 C.ar      1 <0>        -0.0936
     13 C12         1.6693   -2.0222   -2.6231 C.ar      1 <0>        -0.1155
     14 C13         1.7700   -2.6941   -3.8270 C.ar      1 <0>        -0.1120
     15 C14         2.4693   -2.1296   -4.8773 C.ar      1 <0>        -0.1050
     16 C15         3.0676   -0.8929   -4.7239 C.ar      1 <0>        -0.1110
     17 C16         2.9634   -0.2191   -3.5215 C.ar      1 <0>        -0.1048
     18 H1          1.9985    2.2417   -0.1693 H         1 <0>         0.1226
     19 H2          0.3151    2.6316   -0.5964 H         1 <0>         0.1247
     20 H3          0.8770    2.8318    1.0807 H         1 <0>         0.1261
     21 H4         -1.4728    1.2279    0.1702 H         1 <0>         0.1237
     22 H5         -1.1160   -0.2036    1.1661 H         1 <0>         0.1230
     23 H6         -0.9109    1.4281    1.8473 H         1 <0>         0.1257
     24 H7          0.3119   -0.9761   -0.5419 H         1 <0>         0.1321
     25 H8          0.1079    0.4827   -1.5411 H         1 <0>         0.1380
     26 H9          2.5607    0.9537   -1.2684 H         1 <0>         0.1075
     27 H10         4.4091    0.7475    0.1044 H         1 <0>         0.1265
     28 H11         5.6874   -0.4605    1.8277 H         1 <0>         0.1316
     29 H12         4.9368   -2.6788    2.5887 H         1 <0>         0.1313
     30 H13         2.9073   -3.6886    1.6270 H         1 <0>         0.1308
     31 H14         1.6244   -2.4769   -0.0903 H         1 <0>         0.1244
     32 H15         1.1230   -2.4632   -1.8026 H         1 <0>         0.1202
     33 H16         1.3025   -3.6603   -3.9468 H         1 <0>         0.1288
     34 H17         2.5485   -2.6549   -5.8176 H         1 <0>         0.1297
     35 H18         3.6143   -0.4521   -5.5444 H         1 <0>         0.1301
     36 H19         3.4277    0.7488   -3.4028 H         1 <0>         0.1247
     37 H20         1.1719    0.4681    1.1938 H         1 <0>         0.4267
@<TRIPOS>BOND
     1    1    2 1
     2    1   18 1
     3    1   19 1
     4    1   20 1
     5    2    3 1
     6    2    4 1
     7    2   37 1
     8    3   21 1
     9    3   22 1
    10    3   23 1
    11    4    5 1
    12    4   24 1
    13    4   25 1
    14    5    6 1
    15    5   12 1
    16    5   26 1
    17    6   11 ar
    18    6    7 ar
    19    7    8 ar
    20    7   27 1
    21    8    9 ar
    22    8   28 1
    23    9   10 ar
    24    9   29 1
    25   10   11 ar
    26   10   30 1
    27   11   31 1
    28   12   17 ar
    29   12   13 ar
    30   13   14 ar
    31   13   32 1
    32   14   15 ar
    33   14   33 1
    34   15   16 ar
    35   15   34 1
    36   16   17 ar
    37   16   35 1
    38   17   36 1
@<TRIPOS>MOLECULE
ZINC01641291
   31    32     0     0     0
SMALL
USER_CHARGES
2,2-diphenylethanamine
@<TRIPOS>ATOM
      1 C1         -1.6640    3.8305   -0.8742 C.ar      1 <0>        -0.1020
      2 C2         -0.3262    3.7170   -0.5451 C.ar      1 <0>        -0.1097
      3 C3          0.2129    2.4761   -0.2612 C.ar      1 <0>        -0.1095
      4 C4         -0.5857    1.3487   -0.3070 C.ar      1 <0>        -0.1260
      5 C5         -1.9222    1.4615   -0.6418 C.ar      1 <0>        -0.1200
      6 C6         -2.4625    2.7030   -0.9205 C.ar      1 <0>        -0.1098
      7 C7          0.0021   -0.0041    0.0020 C.3       1 <0>        -0.0185
      8 C8         -0.3298   -0.9755   -1.1325 C.3       1 <0>         0.0008
      9 C9         -0.5792   -0.5214    1.2926 C.ar      1 <0>        -0.0963
     10 C10         0.2253   -0.6541    2.4088 C.ar      1 <0>        -0.1044
     11 C11        -0.3090   -1.1241    3.5940 C.ar      1 <0>        -0.1113
     12 C12        -1.6455   -1.4709    3.6601 C.ar      1 <0>        -0.1042
     13 C13        -2.4487   -1.3437    2.5422 C.ar      1 <0>        -0.1124
     14 C14        -1.9156   -0.8687    1.3585 C.ar      1 <0>        -0.1156
     15 H1         -2.0852    4.8000   -1.0957 H         1 <0>         0.1313
     16 H2          0.2977    4.5978   -0.5093 H         1 <0>         0.1316
     17 H3          1.2581    2.3875   -0.0040 H         1 <0>         0.1274
     18 H4         -2.5450    0.5802   -0.6819 H         1 <0>         0.1248
     19 H5         -3.5076    2.7917   -1.1780 H         1 <0>         0.1307
     20 H6          1.0841    0.0838    0.1003 H         1 <0>         0.1084
     21 H7          0.0178   -1.9744   -0.8688 H         1 <0>         0.1410
     22 H8         -1.4082   -0.9958   -1.2896 H         1 <0>         0.1365
     23 H9          0.1327   -1.1605   -3.1300 H         1 <0>         0.4413
     24 H10         0.0799    0.4135   -2.5957 H         1 <0>         0.4367
     25 H11         1.2704   -0.3869    2.3561 H         1 <0>         0.1252
     26 H12         0.3186   -1.2238    4.4672 H         1 <0>         0.1303
     27 H13        -2.0621   -1.8417    4.5849 H         1 <0>         0.1299
     28 H14        -3.4928   -1.6150    2.5937 H         1 <0>         0.1290
     29 H15        -2.5431   -0.7693    0.4852 H         1 <0>         0.1207
     30 N1          0.3607   -0.5364   -2.3579 N.4       1 <0>        -0.6455
     31 H16         1.3749   -0.5562   -2.1994 H         1 <0>         0.4396
@<TRIPOS>BOND
     1    1    6 ar
     2    1    2 ar
     3    1   15 1
     4    2    3 ar
     5    2   16 1
     6    3    4 ar
     7    3   17 1
     8    4    5 ar
     9    4    7 1
    10    5    6 ar
    11    5   18 1
    12    6   19 1
    13    7    8 1
    14    7    9 1
    15    7   20 1
    16    8   21 1
    17    8   22 1
    18    8   30 1
    19    9   14 ar
    20    9   10 ar
    21   10   11 ar
    22   10   25 1
    23   11   12 ar
    24   11   26 1
    25   12   13 ar
    26   12   27 1
    27   13   14 ar
    28   13   28 1
    29   14   29 1
    30   23   30 1
    31   24   30 1
    32   30   31 1
@<TRIPOS>MOLECULE
ZINC03809198
   37    39     0     0     0
SMALL
USER_CHARGES
2-[(7-fluoroindan-4-yl)oxymethyl]morpholine
@<TRIPOS>ATOM
      1 C1         -2.4031    2.6436   -3.2488 C.ar      1 <0>        -0.1814
      2 C2         -3.2180    3.0233   -4.2980 C.ar      1 <0>        -0.1138
      3 C3         -4.5558    2.6717   -4.2961 C.ar      1 <0>         0.0853
      4 C4         -5.0848    1.9384   -3.2440 C.ar      1 <0>        -0.0901
      5 C5         -4.2710    1.5528   -2.1966 C.ar      1 <0>        -0.0928
      6 C6         -2.9284    1.9110   -2.1963 C.ar      1 <0>         0.1237
      7 O1         -2.1270    1.5370   -1.1638 O.3       1 <0>        -0.2996
      8 C7         -0.7558    1.9337   -1.2302 C.3       1 <0>         0.0647
      9 C8         -0.0173    1.4259    0.0099 C.3       1 <0>         0.0695
     10 H1         -0.5264    1.7781    0.9071 H         1 <0>         0.1002
     11 C9          1.4209    1.9505   -0.0010 C.3       1 <0>        -0.0353
     12 C10         2.1467   -0.0722    1.1108 C.3       1 <0>        -0.0424
     13 C11         0.7012   -0.5765    1.1106 C.3       1 <0>         0.0336
     14 O2          0.0021   -0.0041    0.0020 O.3       1 <0>        -0.3446
     15 C12        -5.0757    0.7632   -1.1866 C.3       1 <0>        -0.0728
     16 C13        -6.3525    0.3297   -1.9376 C.3       1 <0>        -0.1209
     17 C14        -6.4937    1.4370   -3.0091 C.3       1 <0>        -0.0833
     18 F1         -5.3505    3.0437   -5.3234 F         1 <0>        -0.1342
     19 H2         -1.3583    2.9170   -3.2491 H         1 <0>         0.1371
     20 H3         -2.8106    3.5940   -5.1193 H         1 <0>         0.1445
     21 H4         -0.6936    3.0212   -1.2702 H         1 <0>         0.0908
     22 H5         -0.2980    1.5105   -2.1243 H         1 <0>         0.0833
     23 H6          1.9134    1.6432   -0.9236 H         1 <0>         0.1448
     24 H7          1.4120    3.0386    0.0625 H         1 <0>         0.1496
     25 H8          2.6676   -0.4606    1.9860 H         1 <0>         0.1476
     26 H9          2.6508   -0.4118    0.2060 H         1 <0>         0.1414
     27 H10         0.2130   -0.2825    2.0398 H         1 <0>         0.0835
     28 H11         0.6941   -1.6630    1.0236 H         1 <0>         0.1445
     29 H12        -4.5152   -0.1117   -0.8572 H         1 <0>         0.0799
     30 H13        -5.3318    1.3909   -0.3331 H         1 <0>         0.0838
     31 H14        -6.2186   -0.6500   -2.3963 H         1 <0>         0.0780
     32 H15        -7.2136    0.3283   -1.2693 H         1 <0>         0.0844
     33 H16        -7.1285    2.2470   -2.6500 H         1 <0>         0.0915
     34 H17        -6.9023    1.0134   -3.9265 H         1 <0>         0.0843
     35 N1          2.1515    1.4023    1.1575 N.4       1 <0>        -0.5137
     36 H18         1.6981    1.7158    2.0238 H         1 <0>         0.4352
     37 H19         3.1212    1.7392    1.1374 H         1 <0>         0.4438
@<TRIPOS>BOND
     1    1    6 ar
     2    1    2 ar
     3    1   19 1
     4    2    3 ar
     5    2   20 1
     6    3    4 ar
     7    3   18 1
     8    4   17 1
     9    4    5 ar
    10    5    6 ar
    11    5   15 1
    12    6    7 1
    13    7    8 1
    14    8    9 1
    15    8   21 1
    16    8   22 1
    17    9   10 1
    18    9   14 1
    19    9   11 1
    20   11   23 1
    21   11   24 1
    22   11   35 1
    23   12   13 1
    24   12   25 1
    25   12   26 1
    26   12   35 1
    27   13   14 1
    28   13   27 1
    29   13   28 1
    30   15   16 1
    31   15   29 1
    32   15   30 1
    33   16   17 1
    34   16   31 1
    35   16   32 1
    36   17   33 1
    37   17   34 1
    38   35   36 1
    39   35   37 1
@<TRIPOS>MOLECULE
ZINC35920376
   60    63     0     0     0
SMALL
USER_CHARGES

@<TRIPOS>ATOM
      1 C1         -1.9887    0.3357    0.9816 C.3       1 <0>         0.1003
      2 N1         -1.0484   -0.7873    0.9526 N.pl3     1 <0>        -0.3708
      3 C2         -0.3058   -1.1865   -0.1184 C.2       1 <0>         0.1280
      4 C3          0.4337   -2.2650    0.2786 C.2       1 <0>        -0.2278
      5 C4          0.1312   -2.5217    1.6160 C.2       1 <0>         0.0425
      6 N2         -0.7465   -1.6398    2.0222 N.2       1 <0>        -0.2926
      7 C5         -0.3015   -0.5673   -1.4618 C.ar      1 <0>        -0.0480
      8 C6         -0.2274    0.8187   -1.5933 C.ar      1 <0>        -0.0679
      9 C7         -0.2233    1.3924   -2.8547 C.ar      1 <0>         0.1091
     10 C8         -0.2930    0.5885   -3.9865 C.ar      1 <0>        -0.0917
     11 C9         -0.3666   -0.7852   -3.8614 C.ar      1 <0>        -0.1894
     12 C10        -0.3661   -1.3707   -2.6058 C.ar      1 <0>         0.1485
     13 O1         -0.4329   -2.7227   -2.4851 O.3       1 <0>        -0.2805
     14 C11        -0.6203   -3.4728   -3.6869 C.3       1 <0>         0.0619
     15 C12        -0.7849   -4.9545   -3.3429 C.3       1 <0>         0.0561
     16 N3          0.4488   -5.4527   -2.7203 N.3       1 <0>        -0.5264
     17 C13         1.5280   -5.5722   -3.7115 C.3       1 <0>         0.0143
     18 C14         2.8079   -6.0360   -3.0110 C.3       1 <0>         0.0638
     19 O2          2.5547   -7.2706   -2.3348 O.3       1 <0>        -0.3856
     20 C15         1.5097   -7.1902   -1.3618 C.3       1 <0>         0.0632
     21 C16         0.2166   -6.7380   -2.0455 C.3       1 <0>         0.0195
     22 N4         -0.1493    2.7844   -2.9894 N.am      1 <0>        -0.6654
     23 C17         0.5292    3.5141   -2.0819 C.2       1 <0>         0.5599
     24 O3          1.1538    2.9584   -1.1993 O.2       1 <0>        -0.5089
     25 C18         0.5140    4.9903   -2.1597 C.ar      1 <0>        -0.0985
     26 C19        -0.2071    5.6312   -3.1689 C.ar      1 <0>        -0.1245
     27 C20        -0.2191    7.0090   -3.2386 C.ar      1 <0>        -0.0839
     28 C21         0.4814    7.7587   -2.3114 C.ar      1 <0>        -0.1807
     29 C22         1.2016    7.1303   -1.3048 C.ar      1 <0>         0.1238
     30 C23         1.2154    5.7480   -1.2217 C.ar      1 <0>        -0.0895
     31 O4          1.8889    7.8722   -0.3968 O.3       1 <0>        -0.3130
     32 C24         1.8258    9.2928   -0.5387 C.3       1 <0>         0.0250
     33 H1         -1.4787    1.2273    1.3464 H         1 <0>         0.0735
     34 H2         -2.3666    0.5192   -0.0242 H         1 <0>         0.0840
     35 H3         -2.8204    0.0962    1.6442 H         1 <0>         0.0884
     36 H4          1.1284   -2.8201   -0.3342 H         1 <0>         0.1507
     37 H5          0.5543   -3.3129    2.2172 H         1 <0>         0.1821
     38 H6         -0.1736    1.4437   -0.7142 H         1 <0>         0.1445
     39 H7         -0.2899    1.0398   -4.9678 H         1 <0>         0.1327
     40 H8         -0.4205   -1.4045   -4.7445 H         1 <0>         0.1370
     41 H9         -1.5133   -3.1178   -4.2013 H         1 <0>         0.0678
     42 H10         0.2471   -3.3444   -4.3343 H         1 <0>         0.0640
     43 H11        -1.6168   -5.0762   -2.6490 H         1 <0>         0.0884
     44 H12        -0.9859   -5.5188   -4.2535 H         1 <0>         0.0595
     45 H13         1.2449   -6.3001   -4.4718 H         1 <0>         0.0429
     46 H14         1.7004   -4.6034   -4.1804 H         1 <0>         0.0850
     47 H15         3.5955   -6.1810   -3.7505 H         1 <0>         0.0974
     48 H16         3.1207   -5.2826   -2.2881 H         1 <0>         0.0622
     49 H17         1.3583   -8.1698   -0.9085 H         1 <0>         0.0982
     50 H18         1.7847   -6.4703   -0.5909 H         1 <0>         0.0632
     51 H19        -0.5682   -6.6203   -1.2984 H         1 <0>         0.0885
     52 H20        -0.0874   -7.4846   -2.7792 H         1 <0>         0.0420
     53 H21        -0.5865    3.2234   -3.7358 H         1 <0>         0.4117
     54 H22        -0.7550    5.0487   -3.8948 H         1 <0>         0.1284
     55 H23        -0.7770    7.5036   -4.0199 H         1 <0>         0.1350
     56 H24         0.4684    8.8370   -2.3710 H         1 <0>         0.1354
     57 H25         1.7714    5.2580   -0.4361 H         1 <0>         0.1464
     58 H26         2.2241    9.5787   -1.5122 H         1 <0>         0.0579
     59 H27         0.7891    9.6201   -0.4598 H         1 <0>         0.0579
     60 H28         2.4162    9.7630    0.2478 H         1 <0>         0.1044
@<TRIPOS>BOND
     1    1    2 1
     2    1   33 1
     3    1   34 1
     4    1   35 1
     5    2    6 1
     6    2    3 1
     7    3    4 2
     8    3    7 1
     9    4    5 1
    10    4   36 1
    11    5    6 2
    12    5   37 1
    13    7   12 ar
    14    7    8 ar
    15    8    9 ar
    16    8   38 1
    17    9   10 ar
    18    9   22 1
    19   10   11 ar
    20   10   39 1
    21   11   12 ar
    22   11   40 1
    23   12   13 1
    24   13   14 1
    25   14   15 1
    26   14   41 1
    27   14   42 1
    28   15   16 1
    29   15   43 1
    30   15   44 1
    31   16   21 1
    32   16   17 1
    33   17   18 1
    34   17   45 1
    35   17   46 1
    36   18   19 1
    37   18   47 1
    38   18   48 1
    39   19   20 1
    40   20   21 1
    41   20   49 1
    42   20   50 1
    43   21   51 1
    44   21   52 1
    45   22   23 am
    46   22   53 1
    47   23   24 2
    48   23   25 1
    49   25   30 ar
    50   25   26 ar
    51   26   27 ar
    52   26   54 1
    53   27   28 ar
    54   27   55 1
    55   28   29 ar
    56   28   56 1
    57   29   30 ar
    58   29   31 1
    59   30   57 1
    60   31   32 1
    61   32   58 1
    62   32   59 1
    63   32   60 1
@<TRIPOS>MOLECULE
ZINC35920376
   61    64     0     0     0
SMALL
USER_CHARGES

@<TRIPOS>ATOM
      1 C1         -2.5302    1.3453    0.1259 C.3       1 <0>         0.0937
      2 N1         -1.3971    0.4377    0.3226 N.pl3     1 <0>        -0.3614
      3 C2         -0.5547   -0.0182   -0.6471 C.2       1 <0>         0.1307
      4 C3          0.3573   -0.8364   -0.0419 C.2       1 <0>        -0.2522
      5 C4          0.0592   -0.8751    1.3203 C.2       1 <0>         0.0414
      6 N2         -0.9814   -0.1126    1.5417 N.2       1 <0>        -0.2789
      7 C5         -0.6165    0.3113   -2.0878 C.ar      1 <0>        -0.0350
      8 C6         -0.7463    1.6376   -2.4974 C.ar      1 <0>        -0.0688
      9 C7         -0.8032    1.9396   -3.8487 C.ar      1 <0>         0.1370
     10 C8         -0.7310    0.9231   -4.7940 C.ar      1 <0>        -0.0935
     11 C9         -0.6024   -0.3926   -4.3931 C.ar      1 <0>        -0.1770
     12 C10        -0.5391   -0.7064   -3.0452 C.ar      1 <0>         0.1267
     13 O1         -0.4069   -2.0010   -2.6532 O.3       1 <0>        -0.3158
     14 C11        -0.4585   -2.9972   -3.6764 C.3       1 <0>         0.0222
     15 C12        -0.4147   -4.3869   -3.0379 C.3       1 <0>         0.0004
     16 N3          0.8709   -4.5700   -2.3513 N.4       1 <0>        -0.3870
     17 C13         1.9572   -4.5838   -3.3406 C.3       1 <0>        -0.0500
     18 C14         3.2956   -4.7745   -2.6228 C.3       1 <0>         0.0366
     19 O2          3.2571   -5.9889   -1.8680 O.3       1 <0>        -0.3559
     20 C15         2.1995   -6.0333   -0.9060 C.3       1 <0>         0.0353
     21 C16         0.8590   -5.8449   -1.6207 C.3       1 <0>        -0.0436
     22 N4         -0.9340    3.2711   -4.2626 N.am      1 <0>        -0.6707
     23 C17        -0.3624    4.2589   -3.5456 C.2       1 <0>         0.5658
     24 O3          0.3458    3.9886   -2.5952 O.2       1 <0>        -0.5083
     25 C18        -0.5968    5.6710   -3.9148 C.ar      1 <0>        -0.1056
     26 C19        -1.4144    5.9844   -5.0023 C.ar      1 <0>        -0.1245
     27 C20        -1.6309    7.3033   -5.3442 C.ar      1 <0>        -0.0823
     28 C21        -1.0405    8.3176   -4.6127 C.ar      1 <0>        -0.1763
     29 C22        -0.2257    8.0158   -3.5302 C.ar      1 <0>         0.1262
     30 C23        -0.0065    6.6954   -3.1745 C.ar      1 <0>        -0.0886
     31 O4          0.3527    9.0167   -2.8155 O.3       1 <0>        -0.3123
     32 C24         0.0786   10.3552   -3.2345 C.3       1 <0>         0.0238
     33 H1         -2.2110    2.3706    0.3127 H         1 <0>         0.0805
     34 H2         -2.8919    1.2582   -0.8986 H         1 <0>         0.0873
     35 H3         -3.3306    1.0823    0.8175 H         1 <0>         0.0948
     36 H4          1.1650   -1.3603   -0.5313 H         1 <0>         0.1393
     37 H5          0.5998   -1.4364    2.0681 H         1 <0>         0.1849
     38 H6         -0.8028    2.4278   -1.7634 H         1 <0>         0.1490
     39 H7         -0.7760    1.1628   -5.8461 H         1 <0>         0.1406
     40 H8         -0.5468   -1.1780   -5.1322 H         1 <0>         0.1390
     41 H9         -1.3823   -2.8872   -4.2444 H         1 <0>         0.1118
     42 H10         0.3949   -2.8770   -4.3438 H         1 <0>         0.0880
     43 H11        -1.2278   -4.4818   -2.3182 H         1 <0>         0.1442
     44 H12        -0.5245   -5.1461   -3.8122 H         1 <0>         0.1506
     45 H13         1.8004   -5.4038   -4.0414 H         1 <0>         0.1409
     46 H14         1.9670   -3.6384   -3.8831 H         1 <0>         0.1404
     47 H15         4.0986   -4.8282   -3.3579 H         1 <0>         0.1423
     48 H16         3.4716   -3.9341   -1.9513 H         1 <0>         0.0828
     49 H17         2.2091   -6.9980   -0.3987 H         1 <0>         0.1429
     50 H18         2.3379   -5.2359   -0.1759 H         1 <0>         0.0833
     51 H19         0.0536   -5.8357   -0.8864 H         1 <0>         0.1440
     52 H20         0.7026   -6.6645   -2.3221 H         1 <0>         0.1397
     53 H21        -1.4359    3.4824   -5.0653 H         1 <0>         0.4162
     54 H22        -1.8768    5.1947   -5.5759 H         1 <0>         0.1275
     55 H23        -2.2633    7.5444   -6.1858 H         1 <0>         0.1370
     56 H24        -1.2136    9.3483   -4.8850 H         1 <0>         0.1380
     57 H25         0.6233    6.4594   -2.3295 H         1 <0>         0.1462
     58 H26        -0.9943   10.5399   -3.1818 H         1 <0>         0.0593
     59 H27         0.6002   11.0545   -2.5810 H         1 <0>         0.1066
     60 H28         0.4209   10.4921   -4.2603 H         1 <0>         0.0594
     61 H29         1.0166   -3.8116   -1.7020 H         1 <0>         0.4312
@<TRIPOS>BOND
     1    1    2 1
     2    1   33 1
     3    1   34 1
     4    1   35 1
     5    2    6 1
     6    2    3 1
     7    3    4 2
     8    3    7 1
     9    4    5 1
    10    4   36 1
    11    5    6 2
    12    5   37 1
    13    7   12 ar
    14    7    8 ar
    15    8    9 ar
    16    8   38 1
    17    9   10 ar
    18    9   22 1
    19   10   11 ar
    20   10   39 1
    21   11   12 ar
    22   11   40 1
    23   12   13 1
    24   13   14 1
    25   14   15 1
    26   14   41 1
    27   14   42 1
    28   15   16 1
    29   15   43 1
    30   15   44 1
    31   16   21 1
    32   16   17 1
    33   16   61 1
    34   17   18 1
    35   17   45 1
    36   17   46 1
    37   18   19 1
    38   18   47 1
    39   18   48 1
    40   19   20 1
    41   20   21 1
    42   20   49 1
    43   20   50 1
    44   21   51 1
    45   21   52 1
    46   22   23 am
    47   22   53 1
    48   23   24 2
    49   23   25 1
    50   25   30 ar
    51   25   26 ar
    52   26   27 ar
    53   26   54 1
    54   27   28 ar
    55   27   55 1
    56   28   29 ar
    57   28   56 1
    58   29   30 ar
    59   29   31 1
    60   30   57 1
    61   31   32 1
    62   32   58 1
    63   32   59 1
    64   32   60 1
@<TRIPOS>MOLECULE
ZINC49111167
   59    61     0     0     0
SMALL
USER_CHARGES

@<TRIPOS>ATOM
      1 C1          0.0096    1.5262    0.2536 C.3       1 <0>        -0.1440
      2 C2          0.0295   -0.0037    0.2485 C.3       1 <0>        -0.0684
      3 C3          0.5120   -0.5029   -1.1149 C.3       1 <0>        -0.1059
      4 C4          0.5319   -2.0327   -1.1201 C.3       1 <0>        -0.1186
      5 C5          1.4798   -2.5341   -0.0287 C.3       1 <0>         0.0854
      6 C6          0.9972   -2.0349    1.3347 C.3       1 <0>        -0.1473
      7 C7          0.9774   -0.5051    1.3398 C.3       1 <0>        -0.1053
      8 O1          1.4983   -3.9630   -0.0335 O.3       1 <0>        -0.2926
      9 C8          2.6095   -4.5675    0.4647 C.ar      1 <0>         0.1647
     10 C9          3.6098   -3.8070    1.0496 C.ar      1 <0>        -0.2795
     11 C10         4.7416   -4.4260    1.5573 C.ar      1 <0>         0.1811
     12 C11         4.8716   -5.8050    1.4794 C.ar      1 <0>        -0.1745
     13 C12         3.8740   -6.5627    0.8956 C.ar      1 <0>        -0.0539
     14 C13         2.7409   -5.9486    0.3932 C.ar      1 <0>         0.0331
     15 F1          1.7644   -6.6915   -0.1721 F         1 <0>        -0.1255
     16 C14         6.1022   -6.4774    2.0314 C.3       1 <0>         0.1768
     17 N1          5.9768   -6.6078    3.4852 N.am      1 <0>        -0.6903
     18 C15         6.9653   -7.1834    4.1979 C.2       1 <0>         0.5053
     19 O2          7.9586   -7.5935    3.6357 O.2       1 <0>        -0.5271
     20 C16         6.8364   -7.3175    5.6933 C.3       1 <0>         0.0013
     21 H1          5.9521   -7.9060    5.9378 H         1 <0>         0.1674
     22 C17         6.7315   -5.9196    6.3387 C.3       1 <0>        -0.1343
     23 C18         7.5618   -6.0724    7.6403 C.3       1 <0>        -0.1412
     24 C19         8.6949   -7.0225    7.1789 C.3       1 <0>        -0.0070
     25 N2          8.0397   -7.9675    6.2443 N.4       1 <0>        -0.5032
     26 O3          5.7240   -3.6818    2.1310 O.3       1 <0>        -0.3082
     27 C20         5.5238   -2.2676    2.1766 C.3       1 <0>         0.0213
     28 C21        -1.3810   -0.5330    0.5154 C.3       1 <0>        -0.1492
     29 H2          1.0145    1.9032    0.0634 H         1 <0>         0.0552
     30 H3         -0.6657    1.8834   -0.5239 H         1 <0>         0.0592
     31 H4         -0.3342    1.8818    1.2249 H         1 <0>         0.0574
     32 H5         -0.1633   -0.1457   -1.8924 H         1 <0>         0.0773
     33 H6          1.5169   -0.1258   -1.3051 H         1 <0>         0.0657
     34 H7         -0.4730   -2.4098   -0.9299 H         1 <0>         0.0822
     35 H8          0.8756   -2.3884   -2.0914 H         1 <0>         0.0753
     36 H9          2.4846   -2.1571   -0.2189 H         1 <0>         0.0744
     37 H10        -0.0076   -2.4120    1.5248 H         1 <0>         0.0831
     38 H11         1.6725   -2.3921    2.1122 H         1 <0>         0.0650
     39 H12         1.9822   -0.1280    1.1497 H         1 <0>         0.0629
     40 H13         0.6336   -0.1494    2.3111 H         1 <0>         0.0722
     41 H14         3.5077   -2.7335    1.1095 H         1 <0>         0.1513
     42 H15         3.9773   -7.6361    0.8355 H         1 <0>         0.1534
     43 H16         6.2066   -7.4666    1.5856 H         1 <0>         0.0900
     44 H17         6.9810   -5.8776    1.7948 H         1 <0>         0.0934
     45 H18         5.1824   -6.2798    3.9348 H         1 <0>         0.4108
     46 H19         7.1691   -5.1615    5.6892 H         1 <0>         0.1058
     47 H20         5.6939   -5.6786    6.5695 H         1 <0>         0.1230
     48 H21         7.9644   -5.1118    7.9616 H         1 <0>         0.1221
     49 H22         6.9672   -6.5291    8.4314 H         1 <0>         0.1042
     50 H23         9.4762   -6.4608    6.6668 H         1 <0>         0.1358
     51 H24         9.1098   -7.5604    8.0313 H         1 <0>         0.1429
     52 H25         7.7763   -8.8078    6.7368 H         1 <0>         0.4355
     53 H26         5.4192   -1.8825    1.1623 H         1 <0>         0.0614
     54 H27         4.6198   -2.0467    2.7442 H         1 <0>         0.0603
     55 H28         6.3798   -1.7948    2.6582 H         1 <0>         0.1074
     56 H29        -2.0563   -0.1758   -0.2621 H         1 <0>         0.0585
     57 H30        -1.3669   -1.6229    0.5117 H         1 <0>         0.0606
     58 H31        -1.7248   -0.1773    1.4867 H         1 <0>         0.0563
     59 H32         8.6738   -8.1994    5.4945 H         1 <0>         0.4371
@<TRIPOS>BOND
     1    1    2 1
     2    1   29 1
     3    1   30 1
     4    1   31 1
     5    2    7 1
     6    2    3 1
     7    2   28 1
     8    3    4 1
     9    3   32 1
    10    3   33 1
    11    4    5 1
    12    4   34 1
    13    4   35 1
    14    5    6 1
    15    5    8 1
    16    5   36 1
    17    6    7 1
    18    6   37 1
    19    6   38 1
    20    7   39 1
    21    7   40 1
    22    8    9 1
    23    9   14 ar
    24    9   10 ar
    25   10   11 ar
    26   10   41 1
    27   11   12 ar
    28   11   26 1
    29   12   13 ar
    30   12   16 1
    31   13   14 ar
    32   13   42 1
    33   14   15 1
    34   16   17 1
    35   16   43 1
    36   16   44 1
    37   17   18 am
    38   17   45 1
    39   18   19 2
    40   18   20 1
    41   20   21 1
    42   20   25 1
    43   20   22 1
    44   22   23 1
    45   22   46 1
    46   22   47 1
    47   23   24 1
    48   23   48 1
    49   23   49 1
    50   24   25 1
    51   24   50 1
    52   24   51 1
    53   25   52 1
    54   25   59 1
    55   26   27 1
    56   27   53 1
    57   27   54 1
    58   27   55 1
    59   28   56 1
    60   28   57 1
    61   28   58 1
@<TRIPOS>MOLECULE
ZINC00020245
   46    48     0     0     0
SMALL
USER_CHARGES

@<TRIPOS>ATOM
      1 C1         -5.6836    1.3838    0.0162 C.3       1 <0>        -0.0473
      2 N1         -5.6620   -0.0833   -0.0564 N.4       1 <0>        -0.3868
      3 C2         -6.3713   -0.5242   -1.2649 C.3       1 <0>        -0.0522
      4 C3         -4.2702   -0.5505   -0.1076 C.3       1 <0>        -0.0086
      5 C4         -4.2434   -2.0795   -0.0575 C.3       1 <0>        -0.1781
      6 C5         -2.7938   -2.5661   -0.1108 C.3       1 <0>         0.1490
      7 N2         -2.7704   -4.0309   -0.1190 N.pl3     1 <0>        -0.6108
      8 C6         -2.7295   -4.7451   -1.3212 C.ar      1 <0>         0.1758
      9 C7         -1.6865   -4.4783   -2.2022 C.ar      1 <0>        -0.1411
     10 C8         -1.5734   -5.1772   -3.3856 C.ar      1 <0>        -0.1022
     11 C9         -2.5089   -6.1508   -3.6854 C.ar      1 <0>        -0.1266
     12 C10        -3.5489   -6.4041   -2.8209 C.ar      1 <0>        -0.1101
     13 C11        -3.6933   -5.6947   -1.6266 C.ar      1 <0>        -0.0998
     14 C12        -4.9357   -6.0340   -0.8354 C.3       1 <0>        -0.0687
     15 C13        -5.1005   -5.1892    0.4158 C.3       1 <0>        -0.0773
     16 C14        -3.9592   -5.4030    1.3779 C.ar      1 <0>        -0.0996
     17 C15        -2.7824   -4.7590    1.0748 C.ar      1 <0>         0.1523
     18 C16        -1.6837   -4.8488    1.9126 C.ar      1 <0>        -0.1184
     19 C17        -1.7825   -5.6251    3.0560 C.ar      1 <0>        -0.1094
     20 C18        -2.9565   -6.2950    3.3488 C.ar      1 <0>        -0.1165
     21 C19        -4.0679   -6.1865    2.5030 C.ar      1 <0>        -0.1028
     22 H1         -6.7163    1.7305    0.0542 H         1 <0>         0.1245
     23 H2         -5.1573    1.7109    0.9129 H         1 <0>         0.1235
     24 H3         -5.1933    1.7984   -0.8646 H         1 <0>         0.1221
     25 H4         -6.3552   -1.6128   -1.3188 H         1 <0>         0.1231
     26 H5         -7.4040   -0.1775   -1.2269 H         1 <0>         0.1246
     27 H6         -5.8810   -0.1096   -2.1457 H         1 <0>         0.1227
     28 H7         -3.8061   -0.2091   -1.0329 H         1 <0>         0.1308
     29 H8         -3.7207   -0.1494    0.7440 H         1 <0>         0.1320
     30 H9         -4.7075   -2.4209    0.8678 H         1 <0>         0.0908
     31 H10        -4.7929   -2.4806   -0.9091 H         1 <0>         0.0915
     32 H11        -2.3174   -2.1901   -1.0161 H         1 <0>         0.0824
     33 H12        -2.2550   -2.1990    0.7627 H         1 <0>         0.0801
     34 H13        -0.9599   -3.7176   -1.9576 H         1 <0>         0.1215
     35 H14        -0.7646   -4.9667   -4.0697 H         1 <0>         0.1276
     36 H15        -2.4229   -6.7145   -4.6025 H         1 <0>         0.1250
     37 H16        -4.2693   -7.1687   -3.0712 H         1 <0>         0.1222
     38 H17        -5.8074   -5.8880   -1.4734 H         1 <0>         0.0793
     39 H18        -4.8898   -7.0837   -0.5452 H         1 <0>         0.0765
     40 H19        -5.1365   -4.1371    0.1334 H         1 <0>         0.0724
     41 H20        -6.0358   -5.4578    0.9068 H         1 <0>         0.0709
     42 H21        -0.7686   -4.3248    1.6795 H         1 <0>         0.1257
     43 H22        -0.9372   -5.7074    3.7231 H         1 <0>         0.1275
     44 H23        -3.0178   -6.9071    4.2365 H         1 <0>         0.1269
     45 H24        -4.9880   -6.7067    2.7249 H         1 <0>         0.1290
     46 H25        -6.1159   -0.4671    0.7589 H         1 <0>         0.4268
@<TRIPOS>BOND
     1    1    2 1
     2    1   22 1
     3    1   23 1
     4    1   24 1
     5    2    3 1
     6    2    4 1
     7    2   46 1
     8    3   25 1
     9    3   26 1
    10    3   27 1
    11    4    5 1
    12    4   28 1
    13    4   29 1
    14    5    6 1
    15    5   30 1
    16    5   31 1
    17    6    7 1
    18    6   32 1
    19    6   33 1
    20    7   17 1
    21    7    8 1
    22    8   13 ar
    23    8    9 ar
    24    9   10 ar
    25    9   34 1
    26   10   11 ar
    27   10   35 1
    28   11   12 ar
    29   11   36 1
    30   12   13 ar
    31   12   37 1
    32   13   14 1
    33   14   15 1
    34   14   38 1
    35   14   39 1
    36   15   16 1
    37   15   40 1
    38   15   41 1
    39   16   21 ar
    40   16   17 ar
    41   17   18 ar
    42   18   19 ar
    43   18   42 1
    44   19   20 ar
    45   19   43 1
    46   20   21 ar
    47   20   44 1
    48   21   45 1
@<TRIPOS>MOLECULE
ZINC01851149
   58    61     0     0     0
SMALL
USER_CHARGES

@<TRIPOS>ATOM
      1 C1         -0.0167    1.3781    0.0096 C.ar      1 <0>        -0.0896
      2 C2          1.1690    2.0873    0.0021 C.ar      1 <0>        -0.1006
      3 C3          2.3816    1.4109   -0.0131 C.ar      1 <0>         0.1668
      4 C4          2.3986    0.0211   -0.0208 C.ar      1 <0>        -0.0379
      5 C5          1.2084   -0.6828   -0.0132 C.ar      1 <0>        -0.0271
      6 C6          0.0021   -0.0041    0.0020 C.ar      1 <0>        -0.0892
      7 Cl1         1.2271   -2.4187   -0.0233 Cl        1 <0>        -0.0322
      8 Cl2         3.9117   -0.8297   -0.0404 Cl        1 <0>        -0.0503
      9 N1          3.5822    2.1260   -0.0212 N.pl3     1 <0>        -0.6733
     10 C7          4.2166    2.5248   -1.2872 C.3       1 <0>         0.1212
     11 C8          5.6874    2.0967   -1.2494 C.3       1 <0>        -0.0255
     12 N2          6.3270    2.6517   -0.0498 N.4       1 <0>        -0.3792
     13 C9          5.7166    2.0749    1.1547 C.3       1 <0>        -0.0318
     14 C10         4.2444    2.5067    1.2361 C.3       1 <0>         0.1223
     15 C11         7.7610    2.3338   -0.0701 C.3       1 <0>        -0.0093
     16 C12         8.4515    3.0158    1.1127 C.3       1 <0>        -0.1453
     17 C13         9.9450    2.6847    1.0915 C.3       1 <0>        -0.1184
     18 C14        10.6355    3.3667    2.2743 C.3       1 <0>         0.0595
     19 O1         12.0305    3.0574    2.2545 O.3       1 <0>        -0.3124
     20 C15        12.7944    3.5890    3.2448 C.ar      1 <0>         0.1559
     21 C16        12.2111    4.3876    4.2189 C.ar      1 <0>        -0.2294
     22 C17        12.9865    4.9295    5.2261 C.ar      1 <0>        -0.0411
     23 C18        14.3441    4.6777    5.2669 C.ar      1 <0>        -0.1551
     24 C19        14.9331    3.8788    4.2952 C.ar      1 <0>         0.2059
     25 C20        14.1552    3.3295    3.2858 C.ar      1 <0>        -0.1852
     26 N3         16.3074    3.6248    4.3397 N.am      1 <0>        -0.6651
     27 C21        17.0003    3.8176    5.4770 C.2       1 <0>         0.5216
     28 O2         18.1945    3.6066    5.4945 O.2       1 <0>        -0.5157
     29 C22        16.3105    4.2925    6.7275 C.3       1 <0>        -0.1402
     30 C23        15.1900    5.2680    6.3653 C.3       1 <0>        -0.0752
     31 H1         -0.9596    1.9044    0.0260 H         1 <0>         0.1477
     32 H2          1.1527    3.1672    0.0077 H         1 <0>         0.1420
     33 H3         -0.9265   -0.5556    0.0083 H         1 <0>         0.1502
     34 H4          3.7134    2.0333   -2.1198 H         1 <0>         0.1171
     35 H5          4.1529    3.6066   -1.4040 H         1 <0>         0.0851
     36 H6          5.7487    1.0088   -1.2236 H         1 <0>         0.1293
     37 H7          6.1971    2.4687   -2.1381 H         1 <0>         0.1401
     38 H8          5.7771    0.9876    1.1077 H         1 <0>         0.1300
     39 H9          6.2479    2.4307    2.0374 H         1 <0>         0.1398
     40 H10         4.1834    3.5868    1.3697 H         1 <0>         0.0853
     41 H11         3.7595    2.0032    2.0724 H         1 <0>         0.1165
     42 H12         7.8950    1.2546    0.0040 H         1 <0>         0.1305
     43 H13         8.1993    2.6912   -1.0020 H         1 <0>         0.1352
     44 H14         8.3175    4.0950    1.0386 H         1 <0>         0.0923
     45 H15         8.0132    2.6584    2.0445 H         1 <0>         0.0907
     46 H16        10.0790    1.6055    1.1656 H         1 <0>         0.0866
     47 H17        10.3833    3.0420    0.1597 H         1 <0>         0.0875
     48 H18        10.5015    4.4459    2.2002 H         1 <0>         0.0675
     49 H19        10.1972    3.0093    3.2062 H         1 <0>         0.0669
     50 H20        11.1499    4.5859    4.1893 H         1 <0>         0.1286
     51 H21        12.5305    5.5511    5.9824 H         1 <0>         0.1354
     52 H22        14.6099    2.7045    2.5314 H         1 <0>         0.1380
     53 H23        16.7645    3.3072    3.5453 H         1 <0>         0.4136
     54 H24        15.8894    3.4371    7.2558 H         1 <0>         0.1060
     55 H25        17.0331    4.7940    7.3713 H         1 <0>         0.1134
     56 H26        15.6229    6.2086    6.0246 H         1 <0>         0.0845
     57 H27        14.5699    5.4506    7.2429 H         1 <0>         0.0936
     58 H28         6.2073    3.6535   -0.0392 H         1 <0>         0.4226
@<TRIPOS>BOND
     1    1    6 ar
     2    1    2 ar
     3    1   31 1
     4    2    3 ar
     5    2   32 1
     6    3    4 ar
     7    3    9 1
     8    4    5 ar
     9    4    8 1
    10    5    6 ar
    11    5    7 1
    12    6   33 1
    13    9   14 1
    14    9   10 1
    15   10   11 1
    16   10   34 1
    17   10   35 1
    18   11   12 1
    19   11   36 1
    20   11   37 1
    21   12   13 1
    22   12   15 1
    23   12   58 1
    24   13   14 1
    25   13   38 1
    26   13   39 1
    27   14   40 1
    28   14   41 1
    29   15   16 1
    30   15   42 1
    31   15   43 1
    32   16   17 1
    33   16   44 1
    34   16   45 1
    35   17   18 1
    36   17   46 1
    37   17   47 1
    38   18   19 1
    39   18   48 1
    40   18   49 1
    41   19   20 1
    42   20   25 ar
    43   20   21 ar
    44   21   22 ar
    45   21   50 1
    46   22   23 ar
    47   22   51 1
    48   23   30 1
    49   23   24 ar
    50   24   25 ar
    51   24   26 1
    52   25   52 1
    53   26   27 am
    54   26   53 1
    55   27   28 2
    56   27   29 1
    57   29   30 1
    58   29   54 1
    59   29   55 1
    60   30   56 1
    61   30   57 1
@<TRIPOS>MOLECULE
ZINC01851149
   57    60     0     0     0
SMALL
USER_CHARGES

@<TRIPOS>ATOM
      1 C1         -0.0167    1.3781    0.0096 C.ar      1 <0>        -0.0962
      2 C2          1.1690    2.0873    0.0021 C.ar      1 <0>        -0.1094
      3 C3          2.3816    1.4109   -0.0131 C.ar      1 <0>         0.1932
      4 C4          2.3986    0.0211   -0.0208 C.ar      1 <0>        -0.0428
      5 C5          1.2084   -0.6828   -0.0132 C.ar      1 <0>        -0.0286
      6 C6          0.0021   -0.0041    0.0020 C.ar      1 <0>        -0.1045
      7 Cl1         1.2271   -2.4187   -0.0233 Cl        1 <0>        -0.0488
      8 Cl2         3.9117   -0.8297   -0.0404 Cl        1 <0>        -0.0433
      9 N1          3.5822    2.1260   -0.0212 N.pl3     1 <0>        -0.6753
     10 C7          4.2154    2.5239   -1.2877 C.3       1 <0>         0.1522
     11 C8          5.6814    2.0786   -1.2601 C.3       1 <0>         0.0390
     12 N2          6.3271    2.6054   -0.0504 N.3       1 <0>        -0.5335
     13 C9          5.7110    2.0562    1.1648 C.3       1 <0>         0.0352
     14 C10         4.2431    2.5059    1.2366 C.3       1 <0>         0.1520
     15 C11         7.7731    2.3471   -0.0705 C.3       1 <0>         0.0570
     16 C12         8.4448    3.1181    1.0676 C.3       1 <0>        -0.1122
     17 C13         9.9508    2.8491    1.0467 C.3       1 <0>        -0.1185
     18 C14        10.6225    3.6201    2.1847 C.3       1 <0>         0.0609
     19 O1         12.0291    3.3688    2.1652 O.3       1 <0>        -0.3131
     20 C15        12.7788    3.9828    3.1179 C.ar      1 <0>         0.1632
     21 C16        12.1712    4.8060    4.0560 C.ar      1 <0>        -0.2281
     22 C17        12.9321    5.4316    5.0250 C.ar      1 <0>        -0.0412
     23 C18        14.2995    5.2392    5.0634 C.ar      1 <0>        -0.1625
     24 C19        14.9129    4.4161    4.1277 C.ar      1 <0>         0.2001
     25 C20        14.1497    3.7829    3.1569 C.ar      1 <0>        -0.1880
     26 N3         16.2971    4.2225    4.1697 N.am      1 <0>        -0.6633
     27 C21        16.9915    4.5031    5.2876 C.2       1 <0>         0.5225
     28 O2         18.1937    4.3433    5.3024 O.2       1 <0>        -0.5237
     29 C22        16.2937    5.0132    6.5196 C.3       1 <0>        -0.1395
     30 C23        15.1296    5.9209    6.1201 C.3       1 <0>        -0.0723
     31 H1         -0.9596    1.9044    0.0260 H         1 <0>         0.1404
     32 H2          1.1527    3.1672    0.0077 H         1 <0>         0.1387
     33 H3         -0.9265   -0.5556    0.0083 H         1 <0>         0.1426
     34 H4          3.7022    2.0431   -2.1205 H         1 <0>         0.0715
     35 H5          4.1638    3.6071   -1.3984 H         1 <0>         0.0629
     36 H6          5.7306    0.9897   -1.2538 H         1 <0>         0.0403
     37 H7          6.1944    2.4613   -2.1423 H         1 <0>         0.0804
     38 H8          5.7599    0.9676    1.1373 H         1 <0>         0.0406
     39 H9          6.2457    2.4226    2.0412 H         1 <0>         0.0819
     40 H10         4.1941    3.5874    1.3639 H         1 <0>         0.0629
     41 H11         3.7483    2.0131    2.0736 H         1 <0>         0.0709
     42 H12         7.9533    1.2798    0.0578 H         1 <0>         0.0339
     43 H13         8.1873    2.6734   -1.0245 H         1 <0>         0.0769
     44 H14         8.2646    4.1855    0.9393 H         1 <0>         0.0762
     45 H15         8.0306    2.7918    2.0216 H         1 <0>         0.0660
     46 H16        10.1310    1.7817    1.1750 H         1 <0>         0.0732
     47 H17        10.3650    3.1754    0.0927 H         1 <0>         0.0761
     48 H18        10.4423    4.6874    2.0565 H         1 <0>         0.0659
     49 H19        10.2083    3.2938    3.1387 H         1 <0>         0.0641
     50 H20        11.1023    4.9580    4.0282 H         1 <0>         0.1320
     51 H21        12.4571    6.0722    5.7533 H         1 <0>         0.1337
     52 H22        14.6236    3.1389    2.4308 H         1 <0>         0.1367
     53 H23        16.7599    3.8832    3.3877 H         1 <0>         0.4126
     54 H24        15.9140    4.1697    7.0961 H         1 <0>         0.1050
     55 H25        17.0002    5.5774    7.1284 H         1 <0>         0.1106
     56 H26        15.5192    6.8597    5.7264 H         1 <0>         0.0818
     57 H27        14.5104    6.1229    6.9941 H         1 <0>         0.0917
@<TRIPOS>BOND
     1    1    6 ar
     2    1    2 ar
     3    1   31 1
     4    2    3 ar
     5    2   32 1
     6    3    4 ar
     7    3    9 1
     8    4    5 ar
     9    4    8 1
    10    5    6 ar
    11    5    7 1
    12    6   33 1
    13    9   14 1
    14    9   10 1
    15   10   11 1
    16   10   34 1
    17   10   35 1
    18   11   12 1
    19   11   36 1
    20   11   37 1
    21   12   13 1
    22   12   15 1
    23   13   14 1
    24   13   38 1
    25   13   39 1
    26   14   40 1
    27   14   41 1
    28   15   16 1
    29   15   42 1
    30   15   43 1
    31   16   17 1
    32   16   44 1
    33   16   45 1
    34   17   18 1
    35   17   46 1
    36   17   47 1
    37   18   19 1
    38   18   48 1
    39   18   49 1
    40   19   20 1
    41   20   25 ar
    42   20   21 ar
    43   21   22 ar
    44   21   50 1
    45   22   23 ar
    46   22   51 1
    47   23   30 1
    48   23   24 ar
    49   24   25 ar
    50   24   26 1
    51   25   52 1
    52   26   27 am
    53   26   53 1
    54   27   28 2
    55   27   29 1
    56   29   30 1
    57   29   54 1
    58   29   55 1
    59   30   56 1
    60   30   57 1
@<TRIPOS>MOLECULE
ZINC20477318
   50    52     0     0     0
SMALL
USER_CHARGES
1-benzyl-N-cinnamyl-piperidin-4-amine
@<TRIPOS>ATOM
      1 C1          5.3425    4.9379    0.5431 C.ar      1 <0>        -0.0850
      2 C2          4.9391    4.5967   -0.7343 C.ar      1 <0>        -0.1130
      3 C3          3.6562    4.1307   -0.9527 C.ar      1 <0>        -0.0944
      4 C4          2.7764    4.0063    0.1063 C.ar      1 <0>        -0.1582
      5 C5          3.1779    4.3528    1.3828 C.ar      1 <0>        -0.0976
      6 C6          4.4627    4.8135    1.6021 C.ar      1 <0>        -0.1144
      7 C7          1.3776    3.4986   -0.1318 C.3       1 <0>         0.0464
      8 N1          1.3585    2.0357    0.0000 N.4       1 <0>        -0.3960
      9 C8         -0.0187    1.5261    0.0104 C.3       1 <0>         0.0005
     10 C9          0.0021   -0.0041    0.0020 C.3       1 <0>        -0.1473
     11 C10         0.7612   -0.5061    1.2334 C.3       1 <0>         0.0646
     12 C11         2.1767    0.0777    1.2237 C.3       1 <0>        -0.1340
     13 C12         2.0929    1.6055    1.1967 C.3       1 <0>        -0.0080
     14 N2          0.8349   -1.9729    1.2003 N.3       1 <0>        -0.6651
     15 C13         0.9947   -2.5226    2.5532 C.3       1 <0>         0.0809
     16 C14         1.0664   -4.0261    2.4793 C.2       1 <0>        -0.1598
     17 C15         2.0976   -4.6674    3.0109 C.2       1 <0>        -0.0929
     18 C16         2.1679   -6.1421    2.9384 C.ar      1 <0>        -0.0671
     19 C17         1.1477   -6.8624    2.3161 C.ar      1 <0>        -0.1124
     20 C18         1.2222   -8.2384    2.2467 C.ar      1 <0>        -0.1187
     21 C19         2.2995   -8.9047    2.8030 C.ar      1 <0>        -0.1140
     22 C20         3.3117   -8.1968    3.4260 C.ar      1 <0>        -0.1182
     23 C21         3.2520   -6.8201    3.4970 C.ar      1 <0>        -0.1068
     24 H1          6.3451    5.3013    0.7138 H         1 <0>         0.1356
     25 H2          5.6265    4.6939   -1.5617 H         1 <0>         0.1360
     26 H3          3.3410    3.8641   -1.9507 H         1 <0>         0.1314
     27 H4          2.4892    4.2598    2.2095 H         1 <0>         0.1289
     28 H5          4.7779    5.0797    2.6001 H         1 <0>         0.1355
     29 H6          0.6955    3.9424    0.6084 H         1 <0>         0.1318
     30 H7          1.0529    3.7798   -1.1445 H         1 <0>         0.1380
     31 H8         -0.5339    1.8804    0.9154 H         1 <0>         0.1254
     32 H9         -0.5511    1.8900   -0.8808 H         1 <0>         0.1345
     33 H10        -1.0296   -0.3849    0.0246 H         1 <0>         0.1118
     34 H11         0.5040   -0.3590   -0.9102 H         1 <0>         0.1000
     35 H12         0.2319   -0.2299    2.1572 H         1 <0>         0.0606
     36 H13         2.7130   -0.2460    2.1279 H         1 <0>         0.1070
     37 H14         2.7138   -0.2776    0.3319 H         1 <0>         0.0966
     38 H15         3.1085    2.0276    1.1751 H         1 <0>         0.1358
     39 H16         1.5678    1.9594    2.0962 H         1 <0>         0.1223
     40 H17        -0.0899   -2.3767    0.7625 H         1 <0>         0.3519
     41 H18         1.9211   -2.1329    3.0002 H         1 <0>         0.0780
     42 H19         0.1356   -2.2265    3.1731 H         1 <0>         0.0467
     43 H20         0.2630   -4.5914    1.9842 H         1 <0>         0.1194
     44 H21         2.9010   -4.1021    3.5060 H         1 <0>         0.1196
     45 H22         0.3037   -6.3438    1.8861 H         1 <0>         0.1225
     46 H23         0.4354   -8.7969    1.7615 H         1 <0>         0.1251
     47 H24         2.3507   -9.9822    2.7503 H         1 <0>         0.1252
     48 H25         4.1502   -8.7228    3.8579 H         1 <0>         0.1260
     49 H26         4.0428   -6.2686    3.9837 H         1 <0>         0.1238
     50 H27         1.8672    1.6090   -0.8770 H         1 <0>         0.4410
@<TRIPOS>BOND
     1    1    6 ar
     2    1    2 ar
     3    1   24 1
     4    2    3 ar
     5    2   25 1
     6    3    4 ar
     7    3   26 1
     8    4    5 ar
     9    4    7 1
    10    5    6 ar
    11    5   27 1
    12    6   28 1
    13    7    8 1
    14    7   29 1
    15    7   30 1
    16    8   13 1
    17    8    9 1
    18    8   50 1
    19    9   10 1
    20    9   31 1
    21    9   32 1
    22   10   11 1
    23   10   33 1
    24   10   34 1
    25   11   12 1
    26   11   14 1
    27   11   35 1
    28   12   13 1
    29   12   36 1
    30   12   37 1
    31   13   38 1
    32   13   39 1
    33   14   15 1
    34   14   40 1
    35   15   16 1
    36   15   41 1
    37   15   42 1
    38   16   17 2
    39   16   43 1
    40   17   18 1
    41   17   44 1
    42   18   23 ar
    43   18   19 ar
    44   19   20 ar
    45   19   45 1
    46   20   21 ar
    47   20   46 1
    48   21   22 ar
    49   21   47 1
    50   22   23 ar
    51   22   48 1
    52   23   49 1
@<TRIPOS>MOLECULE
ZINC22055590
   40    43     0     0     0
SMALL
USER_CHARGES
2-methyl-4-piperazin-1-yl-10H-thieno[2,3-b][1,5]benzodiazepine
@<TRIPOS>ATOM
      1 C1          2.9000    6.4909    5.1733 C.3       1 <0>        -0.0794
      2 C2          2.5815    5.9866    3.7894 C.2       1 <0>        -0.1487
      3 C3          1.6183    6.4056    2.9486 C.2       1 <0>        -0.1359
      4 C4          1.5178    5.7559    1.6564 C.2       1 <0>        -0.2219
      5 C5          2.4395    4.7328    1.4394 C.2       1 <0>         0.1326
      6 S1          3.3891    4.6898    2.8707 S.3       1 <0>         0.1175
      7 N1          2.5084    3.9288    0.3158 N.pl3     1 <0>        -0.6794
      8 C6          1.3322    3.2144   -0.0160 C.ar      1 <0>         0.1140
      9 C7          1.3818    1.8365   -0.0931 C.ar      1 <0>        -0.1132
     10 C8          0.2296    1.1109   -0.3542 C.ar      1 <0>        -0.1125
     11 C9         -0.9694    1.7704   -0.5428 C.ar      1 <0>        -0.1069
     12 C10        -1.0287    3.1477   -0.4744 C.ar      1 <0>        -0.1040
     13 C11         0.1275    3.8975   -0.2233 C.ar      1 <0>         0.1419
     14 N2          0.0194    5.2532   -0.2098 N.2       1 <0>        -0.5947
     15 C12         0.5397    6.1123    0.6013 C.2       1 <0>         0.5251
     16 N3          0.1661    7.4315    0.4793 N.pl3     1 <0>        -0.6143
     17 C13        -0.9003    7.8310   -0.4516 C.3       1 <0>         0.0945
     18 C14        -0.3858    8.9721   -1.3278 C.3       1 <0>        -0.0147
     19 N4          0.1296   10.0500   -0.4732 N.4       1 <0>        -0.5347
     20 C15         1.2772    9.5959    0.3235 C.3       1 <0>        -0.0188
     21 C16         0.8267    8.4796    1.2719 C.3       1 <0>         0.0827
     22 H1          2.2045    7.3011    5.4374 H         1 <0>         0.0840
     23 H2          3.9319    6.8713    5.1964 H         1 <0>         0.0821
     24 H3          2.7962    5.6683    5.8962 H         1 <0>         0.0829
     25 H4          0.9422    7.2004    3.2271 H         1 <0>         0.1391
     26 H5          3.4417    3.8721   -0.2636 H         1 <0>         0.4455
     27 H6          2.3208    1.3226    0.0501 H         1 <0>         0.1291
     28 H7          0.2702    0.0334   -0.4145 H         1 <0>         0.1328
     29 H8         -1.8675    1.2043   -0.7411 H         1 <0>         0.1317
     30 H9         -1.9729    3.6514   -0.6202 H         1 <0>         0.1285
     31 H10        -1.1776    6.9729   -1.0815 H         1 <0>         0.1410
     32 H11        -1.7789    8.1660    0.1193 H         1 <0>         0.0882
     33 H12         0.4208    8.6008   -1.9770 H         1 <0>         0.1293
     34 H13        -1.2082    9.3572   -1.9486 H         1 <0>         0.1436
     35 H14         0.4513   10.8938   -1.1013 H         1 <0>         0.4556
     36 H15         2.0613    9.2147   -0.3472 H         1 <0>         0.1293
     37 H16         1.6735   10.4385    0.9091 H         1 <0>         0.1449
     38 H17         0.1191    8.8797    2.0130 H         1 <0>         0.0936
     39 H18         1.6982    8.0530    1.7901 H         1 <0>         0.1398
     40 H19        -0.6625   10.3846    0.2128 H         1 <0>         0.4497
@<TRIPOS>BOND
     1    1    2 1
     2    1   22 1
     3    1   23 1
     4    1   24 1
     5    2    6 1
     6    2    3 2
     7    3    4 1
     8    3   25 1
     9    4   15 1
    10    4    5 2
    11    5    6 1
    12    5    7 1
    13    7    8 1
    14    7   26 1
    15    8   13 ar
    16    8    9 ar
    17    9   10 ar
    18    9   27 1
    19   10   11 ar
    20   10   28 1
    21   11   12 ar
    22   11   29 1
    23   12   13 ar
    24   12   30 1
    25   13   14 1
    26   14   15 2
    27   15   16 1
    28   16   21 1
    29   16   17 1
    30   17   18 1
    31   17   31 1
    32   17   32 1
    33   18   19 1
    34   18   33 1
    35   18   34 1
    36   19   20 1
    37   19   35 1
    38   19   40 1
    39   20   21 1
    40   20   36 1
    41   20   37 1
    42   21   38 1
    43   21   39 1
@<TRIPOS>MOLECULE
ZINC22055590
   39    42     0     0     0
SMALL
USER_CHARGES
2-methyl-4-piperazin-1-yl-10H-thieno[2,3-b][1,5]benzodiazepine
@<TRIPOS>ATOM
      1 C1          2.9000    6.4909    5.1733 C.3       1 <0>        -0.0731
      2 C2          2.5815    5.9866    3.7894 C.2       1 <0>        -0.1595
      3 C3          1.6183    6.4056    2.9486 C.2       1 <0>        -0.1197
      4 C4          1.5178    5.7559    1.6564 C.2       1 <0>        -0.2090
      5 C5          2.4395    4.7328    1.4394 C.2       1 <0>         0.1289
      6 S1          3.3891    4.6898    2.8707 S.3       1 <0>         0.0909
      7 N1          2.5084    3.9288    0.3158 N.pl3     1 <0>        -0.6777
      8 C6          1.3322    3.2144   -0.0160 C.ar      1 <0>         0.1017
      9 C7          1.3818    1.8365   -0.0931 C.ar      1 <0>        -0.1111
     10 C8          0.2296    1.1109   -0.3542 C.ar      1 <0>        -0.1312
     11 C9         -0.9694    1.7704   -0.5428 C.ar      1 <0>        -0.1060
     12 C10        -1.0287    3.1477   -0.4744 C.ar      1 <0>        -0.1167
     13 C11         0.1275    3.8975   -0.2233 C.ar      1 <0>         0.1681
     14 N2          0.0194    5.2532   -0.2098 N.2       1 <0>        -0.6216
     15 C12         0.5397    6.1123    0.6013 C.2       1 <0>         0.5340
     16 N3          0.1661    7.4315    0.4793 N.pl3     1 <0>        -0.5933
     17 C13        -0.9003    7.8310   -0.4516 C.3       1 <0>         0.1226
     18 C14        -0.3858    8.9721   -1.3278 C.3       1 <0>         0.0334
     19 N4          0.1296   10.0500   -0.4732 N.3       1 <0>        -0.6705
     20 C15         1.2772    9.5959    0.3235 C.3       1 <0>         0.0314
     21 C16         0.8267    8.4796    1.2719 C.3       1 <0>         0.1111
     22 H1          2.2045    7.3011    5.4374 H         1 <0>         0.0832
     23 H2          3.9319    6.8713    5.1964 H         1 <0>         0.0780
     24 H3          2.7962    5.6683    5.8962 H         1 <0>         0.0776
     25 H4          0.9422    7.2004    3.2271 H         1 <0>         0.1418
     26 H5          3.4417    3.8721   -0.2636 H         1 <0>         0.4407
     27 H6          2.3208    1.3226    0.0501 H         1 <0>         0.1233
     28 H7          0.2702    0.0334   -0.4145 H         1 <0>         0.1260
     29 H8         -1.8675    1.2043   -0.7411 H         1 <0>         0.1256
     30 H9         -1.9729    3.6514   -0.6202 H         1 <0>         0.1265
     31 H10        -1.1776    6.9729   -1.0815 H         1 <0>         0.1044
     32 H11        -1.7789    8.1660    0.1193 H         1 <0>         0.0695
     33 H12         0.4208    8.6008   -1.9770 H         1 <0>         0.0349
     34 H13        -1.2082    9.3572   -1.9486 H         1 <0>         0.0894
     35 H14         2.0613    9.2147   -0.3472 H         1 <0>         0.0352
     36 H15         1.6735   10.4385    0.9091 H         1 <0>         0.0904
     37 H16         0.1191    8.8797    2.0130 H         1 <0>         0.0755
     38 H17         1.6982    8.0530    1.7901 H         1 <0>         0.0999
     39 H18         0.4513   10.8938   -1.1013 H         1 <0>         0.3455
@<TRIPOS>BOND
     1    1    2 1
     2    1   22 1
     3    1   23 1
     4    1   24 1
     5    2    6 1
     6    2    3 2
     7    3    4 1
     8    3   25 1
     9    4   15 1
    10    4    5 2
    11    5    6 1
    12    5    7 1
    13    7    8 1
    14    7   26 1
    15    8   13 ar
    16    8    9 ar
    17    9   10 ar
    18    9   27 1
    19   10   11 ar
    20   10   28 1
    21   11   12 ar
    22   11   29 1
    23   12   13 ar
    24   12   30 1
    25   13   14 1
    26   14   15 2
    27   15   16 1
    28   16   21 1
    29   16   17 1
    30   17   18 1
    31   17   31 1
    32   17   32 1
    33   18   19 1
    34   18   33 1
    35   18   34 1
    36   19   20 1
    37   19   39 1
    38   20   21 1
    39   20   35 1
    40   20   36 1
    41   21   37 1
    42   21   38 1
@<TRIPOS>MOLECULE
ZINC20477323
   48    50     0     0     0
SMALL
USER_CHARGES
1-benzyl-N-(3-phenylprop-2-ynyl)piperidin-4-amine
@<TRIPOS>ATOM
      1 C1         -2.5673   -9.6573    5.3445 C.ar      1 <0>        -0.0847
      2 C2         -2.6865   -9.6291    3.9676 C.ar      1 <0>        -0.1138
      3 C3         -1.6068   -9.2588    3.1878 C.ar      1 <0>        -0.0982
      4 C4         -0.4078   -8.9172    3.7850 C.ar      1 <0>        -0.1599
      5 C5         -0.2869   -8.9509    5.1616 C.ar      1 <0>        -0.0944
      6 C6         -1.3683   -9.3157    5.9417 C.ar      1 <0>        -0.1128
      7 C7          0.7694   -8.5140    2.9349 C.3       1 <0>         0.0467
      8 N1          0.7441   -7.0608    2.7211 N.4       1 <0>        -0.3967
      9 C8          1.9930   -6.5981    2.1025 C.3       1 <0>        -0.0032
     10 C9          1.9914   -5.0695    2.0285 C.3       1 <0>        -0.1332
     11 C10         0.7883   -4.6046    1.2033 C.3       1 <0>         0.0667
     12 C11        -0.4963   -5.1403    1.8417 C.3       1 <0>        -0.1775
     13 C12        -0.4225   -6.6668    1.9211 C.3       1 <0>        -0.0040
     14 N2          0.7484   -3.1364    1.1776 N.3       1 <0>        -0.6619
     15 C13         0.0380   -2.6498   -0.0125 C.3       1 <0>         0.1691
     16 C14         0.0180   -1.1779   -0.0044 C.1       1 <0>        -0.1835
     17 C15         0.0021   -0.0041    0.0020 C.1       1 <0>        -0.0980
     18 C16        -0.0173    1.4278    0.0099 C.ar      1 <0>        -0.0025
     19 C17        -1.2334    2.1120    0.0193 C.ar      1 <0>        -0.0910
     20 C18        -1.2452    3.4916    0.0322 C.ar      1 <0>        -0.1186
     21 C19        -0.0549    4.1966    0.0246 C.ar      1 <0>        -0.1029
     22 C20         1.1541    3.5243    0.0095 C.ar      1 <0>        -0.1191
     23 C21         1.1797    2.1448    0.0023 C.ar      1 <0>        -0.0932
     24 H1         -3.4111   -9.9459    5.9538 H         1 <0>         0.1357
     25 H2         -3.6233   -9.8960    3.5011 H         1 <0>         0.1355
     26 H3         -1.6999   -9.2368    2.1121 H         1 <0>         0.1296
     27 H4          0.6511   -8.6883    5.6280 H         1 <0>         0.1317
     28 H5         -1.2753   -9.3374    7.0174 H         1 <0>         0.1362
     29 H6          1.7030   -8.7934    3.4452 H         1 <0>         0.1381
     30 H7          0.7140   -9.0285    1.9642 H         1 <0>         0.1326
     31 H8          2.8482   -6.9346    2.7070 H         1 <0>         0.1344
     32 H9          2.0754   -7.0138    1.0874 H         1 <0>         0.1272
     33 H10         1.9242   -4.6533    3.0445 H         1 <0>         0.0910
     34 H11         2.9207   -4.7245    1.5516 H         1 <0>         0.1197
     35 H12         0.8763   -4.9437    0.1606 H         1 <0>         0.0971
     36 H13        -0.6041   -4.7235    2.8540 H         1 <0>         0.0931
     37 H14        -1.3610   -4.8446    1.2294 H         1 <0>         0.1099
     38 H15        -0.3287   -7.0821    0.9068 H         1 <0>         0.1264
     39 H16        -1.3380   -7.0536    2.3925 H         1 <0>         0.1317
     40 H17         0.2282   -2.7680    2.0741 H         1 <0>         0.3522
     41 H18         0.5530   -3.0045   -0.9175 H         1 <0>         0.1004
     42 H19        -0.9940   -3.0306   -0.0048 H         1 <0>         0.0606
     43 H20        -2.1634    1.5628    0.0207 H         1 <0>         0.1268
     44 H21        -2.1857    4.0223    0.0440 H         1 <0>         0.1311
     45 H22        -0.0696    5.2765    0.0302 H         1 <0>         0.1296
     46 H23         2.0799    4.0804    0.0036 H         1 <0>         0.1307
     47 H24         2.1241    1.6211   -0.0095 H         1 <0>         0.1254
     48 H25         0.6563   -6.5743    3.7038 H         1 <0>         0.4397
@<TRIPOS>BOND
     1    1    6 ar
     2    1    2 ar
     3    1   24 1
     4    2    3 ar
     5    2   25 1
     6    3    4 ar
     7    3   26 1
     8    4    5 ar
     9    4    7 1
    10    5    6 ar
    11    5   27 1
    12    6   28 1
    13    7    8 1
    14    7   29 1
    15    7   30 1
    16    8   13 1
    17    8    9 1
    18    8   48 1
    19    9   10 1
    20    9   31 1
    21    9   32 1
    22   10   11 1
    23   10   33 1
    24   10   34 1
    25   11   12 1
    26   11   14 1
    27   11   35 1
    28   12   13 1
    29   12   36 1
    30   12   37 1
    31   13   38 1
    32   13   39 1
    33   14   15 1
    34   14   40 1
    35   15   16 1
    36   15   41 1
    37   15   42 1
    38   16   17 3
    39   17   18 1
    40   18   23 ar
    41   18   19 ar
    42   19   20 ar
    43   19   43 1
    44   20   21 ar
    45   20   44 1
    46   21   22 ar
    47   21   45 1
    48   22   23 ar
    49   22   46 1
    50   23   47 1
@<TRIPOS>MOLECULE
ZINC10450796
   49    51     0     0     0
SMALL
USER_CHARGES
N-(1-benzyl-4-piperidyl)-3-phenyl-prop-2-enamide
@<TRIPOS>ATOM
      1 C1         -4.6524   -4.8307    5.0881 C.ar      1 <0>        -0.0837
      2 C2         -5.2476   -3.7292    4.5021 C.ar      1 <0>        -0.1134
      3 C3         -5.0134   -3.4439    3.1700 C.ar      1 <0>        -0.0967
      4 C4         -4.1844   -4.2603    2.4236 C.ar      1 <0>        -0.1638
      5 C5         -3.5937   -5.3651    3.0081 C.ar      1 <0>        -0.0944
      6 C6         -3.8234   -5.6471    4.3417 C.ar      1 <0>        -0.1135
      7 C7         -3.9295   -3.9496    0.9712 C.3       1 <0>         0.0490
      8 C8         -2.3354   -2.9364   -0.5430 C.3       1 <0>         0.0035
      9 C9         -1.0327   -2.1360   -0.6095 C.3       1 <0>        -0.1568
     10 C10        -1.2565   -0.7538    0.0100 C.3       1 <0>         0.1369
     11 C11        -1.7427   -0.9221    1.4522 C.3       1 <0>        -0.1599
     12 C12        -3.0248   -1.7577    1.4589 C.3       1 <0>        -0.0026
     13 N1          0.0021   -0.0041    0.0020 N.am      1 <0>        -0.7288
     14 C13        -0.0162    1.3436    0.0094 C.2       1 <0>         0.5579
     15 O1         -1.0783    1.9376    0.0177 O.2       1 <0>        -0.5377
     16 C14         1.2418    2.0929    0.0014 C.2       1 <0>        -0.2407
     17 C15         1.2235    3.4408    0.0089 C.2       1 <0>         0.0116
     18 C16         2.4882    4.1941    0.0008 C.ar      1 <0>        -0.0939
     19 C17         3.7106    3.5151   -0.0087 C.ar      1 <0>        -0.0968
     20 C18         4.8910    4.2278   -0.0220 C.ar      1 <0>        -0.1237
     21 C19         4.8680    5.6116   -0.0139 C.ar      1 <0>        -0.0983
     22 C20         3.6623    6.2909    0.0008 C.ar      1 <0>        -0.1218
     23 C21         2.4734    5.5924    0.0085 C.ar      1 <0>        -0.0884
     24 H1         -4.8347   -5.0531    6.1291 H         1 <0>         0.1359
     25 H2         -5.8953   -3.0913    5.0852 H         1 <0>         0.1363
     26 H3         -5.4784   -2.5833    2.7122 H         1 <0>         0.1314
     27 H4         -2.9495   -6.0054    2.4238 H         1 <0>         0.1310
     28 H5         -3.3581   -6.5075    4.7996 H         1 <0>         0.1361
     29 H6         -4.8012   -3.4505    0.5480 H         1 <0>         0.1375
     30 H7         -3.7424   -4.8763    0.4288 H         1 <0>         0.1360
     31 H8         -3.1097   -2.4177   -1.1082 H         1 <0>         0.1349
     32 H9         -2.1756   -3.9264   -0.9704 H         1 <0>         0.1350
     33 H10        -0.7275   -2.0235   -1.6498 H         1 <0>         0.1200
     34 H11        -0.2543   -2.6612   -0.0560 H         1 <0>         0.0941
     35 H12        -2.0064   -0.2129   -0.5674 H         1 <0>         0.1054
     36 H13        -0.9755   -1.4282    2.0381 H         1 <0>         0.0893
     37 H14        -1.9447    0.0577    1.8848 H         1 <0>         0.1163
     38 H15        -3.7958   -1.2444    0.8843 H         1 <0>         0.1333
     39 H16        -3.3657   -1.8915    2.4855 H         1 <0>         0.1321
     40 H17         0.8486   -0.4776   -0.0086 H         1 <0>         0.4072
     41 H18         2.1843    1.5657   -0.0104 H         1 <0>         0.1318
     42 H19         0.2810    3.9680    0.0207 H         1 <0>         0.1371
     43 H20         3.7301    2.4353   -0.0098 H         1 <0>         0.1260
     44 H21         5.8358    3.7049   -0.0339 H         1 <0>         0.1286
     45 H22         5.7959    6.1643   -0.0195 H         1 <0>         0.1286
     46 H23         3.6525    7.3708    0.0067 H         1 <0>         0.1304
     47 H24         1.5333    6.1238    0.0200 H         1 <0>         0.1299
     48 N2         -2.7364   -3.0837    0.8724 N.4       1 <0>        -0.3940
     49 H25        -1.9655   -3.5177    1.3935 H         1 <0>         0.4259
@<TRIPOS>BOND
     1    1    6 ar
     2    1    2 ar
     3    1   24 1
     4    2    3 ar
     5    2   25 1
     6    3    4 ar
     7    3   26 1
     8    4    5 ar
     9    4    7 1
    10    5    6 ar
    11    5   27 1
    12    6   28 1
    13    7   29 1
    14    7   30 1
    15    7   48 1
    16    8    9 1
    17    8   31 1
    18    8   32 1
    19    8   48 1
    20    9   10 1
    21    9   33 1
    22    9   34 1
    23   10   11 1
    24   10   13 1
    25   10   35 1
    26   11   12 1
    27   11   36 1
    28   11   37 1
    29   12   38 1
    30   12   39 1
    31   12   48 1
    32   13   14 am
    33   13   40 1
    34   14   15 2
    35   14   16 1
    36   16   17 2
    37   16   41 1
    38   17   18 1
    39   17   42 1
    40   18   23 ar
    41   18   19 ar
    42   19   20 ar
    43   19   43 1
    44   20   21 ar
    45   20   44 1
    46   21   22 ar
    47   21   45 1
    48   22   23 ar
    49   22   46 1
    50   23   47 1
    51   48   49 1
@<TRIPOS>MOLECULE
ZINC56898757
   49    52     0     0     0
SMALL
USER_CHARGES

@<TRIPOS>ATOM
      1 C1          3.9411   -4.5592   -1.0458 C.ar      1 <0>        -0.1385
      2 C2          4.9315   -4.2788   -0.1260 C.ar      1 <0>        -0.0470
      3 C3          4.7246   -3.3019    0.8440 C.ar      1 <0>        -0.0753
      4 C4          5.5436   -2.7656    1.9471 C.2       1 <0>        -0.1272
      5 C5          4.7881   -1.8102    2.5581 C.2       1 <0>         0.1395
      6 N1          3.5852   -1.7102    1.9349 N.pl3     1 <0>        -0.5677
      7 H1          2.8787   -1.0970    2.1912 H         1 <0>         0.4303
      8 C6          3.5101   -2.5993    0.8905 C.ar      1 <0>         0.1385
      9 C7          2.5106   -2.8943   -0.0513 C.ar      1 <0>        -0.1358
     10 C8          2.7395   -3.8762   -1.0135 C.ar      1 <0>        -0.0611
     11 C9          1.2261   -2.1693   -0.0219 C.2       1 <0>         0.5637
     12 O1          1.2137   -0.9584    0.0875 O.2       1 <0>        -0.5387
     13 N2          0.0662   -2.8493   -0.1162 N.am      1 <0>        -0.6066
     14 C10        -1.2184   -2.1403   -0.2175 C.3       1 <0>         0.1159
     15 C11        -2.1714   -2.7060    0.8409 C.3       1 <0>         0.0423
     16 N3         -2.2537   -4.1650    0.6913 N.3       1 <0>        -0.5373
     17 C12        -0.9514   -4.7999    0.9341 C.3       1 <0>         0.0360
     18 C13         0.0521   -4.3200   -0.1266 C.3       1 <0>         0.1048
     19 C14        -3.2859   -4.7272    1.5725 C.3       1 <0>         0.0610
     20 C15        -3.5166   -6.1968    1.2149 C.3       1 <0>        -0.0763
     21 C16        -4.5755   -6.7735    2.1189 C.ar      1 <0>        -0.0944
     22 C17        -4.2158   -7.3562    3.3198 C.ar      1 <0>        -0.0875
     23 C18        -5.1860   -7.8850    4.1498 C.ar      1 <0>        -0.1517
     24 C19        -6.5187   -7.8310    3.7783 C.ar      1 <0>         0.0952
     25 C20        -6.8778   -7.2471    2.5752 C.ar      1 <0>        -0.1512
     26 C21        -5.9063   -6.7143    1.7493 C.ar      1 <0>        -0.0849
     27 F1         -7.4680   -8.3480    4.5887 F         1 <0>        -0.1395
     28 C22         6.8699   -3.1694    2.3057 C.1       1 <0>         0.2859
     29 N4          7.9220   -3.4898    2.5901 N.1       1 <0>        -0.4253
     30 H2          4.1079   -5.3148   -1.7992 H         1 <0>         0.1372
     31 H3          5.8669   -4.8177   -0.1586 H         1 <0>         0.1313
     32 H4          5.0984   -1.2220    3.4090 H         1 <0>         0.1909
     33 H5          1.9729   -4.1052   -1.7389 H         1 <0>         0.1367
     34 H6         -1.0642   -1.0760   -0.0399 H         1 <0>         0.0981
     35 H7         -1.6426   -2.2911   -1.2102 H         1 <0>         0.0801
     36 H8         -1.7965   -2.4629    1.8351 H         1 <0>         0.0393
     37 H9         -3.1618   -2.2704    0.7086 H         1 <0>         0.0907
     38 H10        -0.5935   -4.5276    1.9270 H         1 <0>         0.0398
     39 H11        -1.0570   -5.8828    0.8694 H         1 <0>         0.0935
     40 H12        -0.2523   -4.6763   -1.1107 H         1 <0>         0.0828
     41 H13         1.0466   -4.6974    0.1111 H         1 <0>         0.0976
     42 H14        -2.9583   -4.6527    2.6094 H         1 <0>         0.0373
     43 H15        -4.2150   -4.1718    1.4442 H         1 <0>         0.0799
     44 H16        -3.8443   -6.2713    0.1779 H         1 <0>         0.0857
     45 H17        -2.5876   -6.7522    1.3431 H         1 <0>         0.0753
     46 H18        -3.1762   -7.3986    3.6092 H         1 <0>         0.1307
     47 H19        -4.9048   -8.3405    5.0878 H         1 <0>         0.1355
     48 H20        -7.9170   -7.2047    2.2842 H         1 <0>         0.1362
     49 H21        -6.1866   -6.2548    0.8129 H         1 <0>         0.1341
@<TRIPOS>BOND
     1    1   10 ar
     2    1    2 ar
     3    1   30 1
     4    2    3 ar
     5    2   31 1
     6    3    8 ar
     7    3    4 1
     8    4    5 2
     9    4   28 1
    10    5    6 1
    11    5   32 1
    12    6    7 1
    13    6    8 1
    14    8    9 ar
    15    9   10 ar
    16    9   11 1
    17   10   33 1
    18   11   12 2
    19   11   13 am
    20   13   18 1
    21   13   14 1
    22   14   15 1
    23   14   34 1
    24   14   35 1
    25   15   16 1
    26   15   36 1
    27   15   37 1
    28   16   17 1
    29   16   19 1
    30   17   18 1
    31   17   38 1
    32   17   39 1
    33   18   40 1
    34   18   41 1
    35   19   20 1
    36   19   42 1
    37   19   43 1
    38   20   21 1
    39   20   44 1
    40   20   45 1
    41   21   26 ar
    42   21   22 ar
    43   22   23 ar
    44   22   46 1
    45   23   24 ar
    46   23   47 1
    47   24   25 ar
    48   24   27 1
    49   25   26 ar
    50   25   48 1
    51   26   49 1
    52   28   29 3
@<TRIPOS>MOLECULE
ZINC00897457
   31    32     0     0     0
SMALL
USER_CHARGES
2-(1H-indol-3-yl)-N,N-dimethyl-ethanamine
@<TRIPOS>ATOM
      1 C1          0.0585    1.3230   -2.4006 C.3       1 <0>        -0.0423
      2 C2         -2.0591    0.9694   -1.2810 C.3       1 <0>        -0.0467
      3 C3         -0.0127    1.0858    0.0080 C.3       1 <0>        -0.0039
      4 C4         -0.7288    1.5792    1.2668 C.3       1 <0>        -0.0596
      5 C5          0.0000    1.0800    2.4877 C.2       1 <0>        -0.2054
      6 C6         -0.2888   -0.0242    3.1942 C.2       1 <0>         0.0841
      7 N1          0.5910   -0.1564    4.2338 N.pl3     1 <0>        -0.5882
      8 H1          0.5835   -0.8781    4.8819 H         1 <0>         0.4232
      9 C7          1.4851    0.8907    4.2264 C.ar      1 <0>         0.0942
     10 C8          1.1542    1.7112    3.1323 C.ar      1 <0>        -0.1011
     11 C9          1.9006    2.8621    2.8738 C.ar      1 <0>        -0.0845
     12 C10         2.9506    3.1863    3.6862 C.ar      1 <0>        -0.1324
     13 C11         3.2809    2.3806    4.7669 C.ar      1 <0>        -0.0932
     14 C12         2.5576    1.2400    5.0401 C.ar      1 <0>        -0.1218
     15 H2          0.2299    0.2520   -2.5094 H         1 <0>         0.1219
     16 H3         -0.4905    1.6929   -3.2665 H         1 <0>         0.1220
     17 H4          1.0161    1.8388   -2.3299 H         1 <0>         0.1210
     18 H5         -2.6409    1.2283   -0.3963 H         1 <0>         0.1223
     19 H6         -2.5631    1.3469   -2.1707 H         1 <0>         0.1217
     20 H7         -1.9644   -0.1143   -1.3492 H         1 <0>         0.1224
     21 H8          0.0021   -0.0041    0.0020 H         1 <0>         0.1298
     22 H9          1.0099    1.4631    0.0003 H         1 <0>         0.1289
     23 H10        -0.7436    2.6691    1.2728 H         1 <0>         0.0906
     24 H11        -1.7514    1.2020    1.2746 H         1 <0>         0.0903
     25 H12        -1.0951   -0.7081    2.9736 H         1 <0>         0.1726
     26 H13         1.6493    3.4939    2.0348 H         1 <0>         0.1179
     27 H14         3.5282    4.0766    3.4855 H         1 <0>         0.1273
     28 H15         4.1133    2.6501    5.4000 H         1 <0>         0.1318
     29 H16         2.8229    0.6192    5.8831 H         1 <0>         0.1257
     30 N2         -0.7265    1.6008   -1.1794 N.4       1 <0>        -0.3993
     31 H17        -0.8450    2.6161   -1.0829 H         1 <0>         0.4307
@<TRIPOS>BOND
     1    1   15 1
     2    1   16 1
     3    1   17 1
     4    1   30 1
     5    2   18 1
     6    2   19 1
     7    2   20 1
     8    2   30 1
     9    3    4 1
    10    3   21 1
    11    3   22 1
    12    3   30 1
    13    4    5 1
    14    4   23 1
    15    4   24 1
    16    5   10 1
    17    5    6 2
    18    6    7 1
    19    6   25 1
    20    7    8 1
    21    7    9 1
    22    9   14 ar
    23    9   10 ar
    24   10   11 ar
    25   11   12 ar
    26   11   26 1
    27   12   13 ar
    28   12   27 1
    29   13   14 ar
    30   13   28 1
    31   14   29 1
    32   30   31 1
@<TRIPOS>MOLECULE
ZINC02022527
   54    55     0     0     0
SMALL
USER_CHARGES

@<TRIPOS>ATOM
      1 C1         -3.0730    2.2881   -4.2693 C.3       1 <0>        -0.1569
      2 C2         -2.3049    1.5870   -3.1471 C.3       1 <0>        -0.1270
      3 C3         -2.8110    2.0874   -1.7927 C.3       1 <0>        -0.1231
      4 C4         -2.0429    1.3862   -0.6705 C.3       1 <0>        -0.1174
      5 C5         -2.5490    1.8867    0.6839 C.3       1 <0>        -0.1006
      6 C6         -2.2117    3.3722    0.8391 C.3       1 <0>        -0.1451
      7 C7         -2.6658    3.8518    2.2196 C.3       1 <0>        -0.0114
      8 C8         -2.3347    1.6429    3.1595 C.3       1 <0>        -0.0001
      9 C9         -1.8707    1.0973    1.8070 C.3       1 <0>        -0.1442
     10 C10        -2.2939    3.5901    4.5974 C.3       1 <0>        -0.0052
     11 C11        -2.1583    5.1140    4.5919 C.3       1 <0>        -0.1459
     12 C12        -2.4764    5.6593    5.9856 C.3       1 <0>        -0.1543
     13 C13        -2.3428    7.1604    5.9803 C.2       1 <0>         0.3987
     14 O1         -2.0245    7.7371    4.9623 O.2       1 <0>        -0.4456
     15 C14        -2.5986    7.9263    7.2106 C.ar      1 <0>        -0.1885
     16 C15        -3.0878    7.2813    8.3513 C.ar      1 <0>        -0.0705
     17 C16        -3.3195    8.0047    9.5018 C.ar      1 <0>        -0.1389
     18 C17        -3.0801    9.3679    9.5265 C.ar      1 <0>        -0.0729
     19 C18        -2.6016   10.0143    8.4004 C.ar      1 <0>        -0.1345
     20 C19        -2.3594    9.3036    7.2436 C.ar      1 <0>        -0.0178
     21 C20        -1.8387   10.0095    6.0182 C.3       1 <0>        -0.1264
     22 H1         -4.1363    2.0676   -4.1746 H         1 <0>         0.0549
     23 H2         -2.9175    3.3647   -4.1985 H         1 <0>         0.0540
     24 H3         -2.7125    1.9316   -5.2342 H         1 <0>         0.0581
     25 H4         -1.2417    1.8075   -3.2417 H         1 <0>         0.0621
     26 H5         -2.4605    0.5104   -3.2179 H         1 <0>         0.0631
     27 H6         -3.8743    1.8669   -1.6981 H         1 <0>         0.0644
     28 H7         -2.6555    3.1639   -1.7219 H         1 <0>         0.0632
     29 H8         -2.1984    0.3097   -0.7413 H         1 <0>         0.0733
     30 H9         -0.9796    1.6067   -0.7651 H         1 <0>         0.0688
     31 H10        -3.6287    1.7492    0.7427 H         1 <0>         0.0884
     32 H11        -1.1354    3.5132    0.7407 H         1 <0>         0.0881
     33 H12        -2.7264    3.9447    0.0675 H         1 <0>         0.1133
     34 H13        -3.7442    3.7233    2.3122 H         1 <0>         0.1295
     35 H14        -2.4142    4.9057    2.3388 H         1 <0>         0.1342
     36 H15        -3.4146    1.5248    3.2476 H         1 <0>         0.1293
     37 H16        -1.8426    1.0924    3.9613 H         1 <0>         0.1282
     38 H17        -2.1418    0.0446    1.7270 H         1 <0>         0.1118
     39 H18        -0.7890    1.2025    1.7239 H         1 <0>         0.0880
     40 H19        -3.3133    3.3170    4.8704 H         1 <0>         0.1315
     41 H20        -1.5979    3.1659    5.3211 H         1 <0>         0.1302
     42 H21        -1.1389    5.3871    4.3190 H         1 <0>         0.0944
     43 H22        -2.8542    5.5382    3.8682 H         1 <0>         0.0968
     44 H23        -3.4115    5.4088    6.2361 H         1 <0>         0.0981
     45 H24        -1.7805    5.2352    6.7093 H         1 <0>         0.1100
     46 H25        -3.2793    6.2186    8.3321 H         1 <0>         0.1290
     47 H26        -3.6933    7.5074   10.3846 H         1 <0>         0.1322
     48 H27        -3.2682    9.9300   10.4293 H         1 <0>         0.1326
     49 H28        -2.4176   11.0782    8.4274 H         1 <0>         0.1332
     50 H29        -2.6709   10.2515    5.3572 H         1 <0>         0.0784
     51 H30        -1.3321   10.9277    6.3156 H         1 <0>         0.0652
     52 H31        -1.1365    9.3600    5.4956 H         1 <0>         0.0893
     53 N1         -1.9588    3.0696    3.2558 N.4       1 <0>        -0.3931
     54 H32        -0.9467    3.1581    3.1071 H         1 <0>         0.4272
@<TRIPOS>BOND
     1    1    2 1
     2    1   22 1
     3    1   23 1
     4    1   24 1
     5    2    3 1
     6    2   25 1
     7    2   26 1
     8    3    4 1
     9    3   27 1
    10    3   28 1
    11    4    5 1
    12    4   29 1
    13    4   30 1
    14    5    9 1
    15    5    6 1
    16    5   31 1
    17    6    7 1
    18    6   32 1
    19    6   33 1
    20    7   34 1
    21    7   35 1
    22    7   53 1
    23    8    9 1
    24    8   36 1
    25    8   37 1
    26    8   53 1
    27    9   38 1
    28    9   39 1
    29   10   11 1
    30   10   40 1
    31   10   41 1
    32   10   53 1
    33   11   12 1
    34   11   42 1
    35   11   43 1
    36   12   13 1
    37   12   44 1
    38   12   45 1
    39   13   14 2
    40   13   15 1
    41   15   20 ar
    42   15   16 ar
    43   16   17 ar
    44   16   46 1
    45   17   18 ar
    46   17   47 1
    47   18   19 ar
    48   18   48 1
    49   19   20 ar
    50   19   49 1
    51   20   21 1
    52   21   50 1
    53   21   51 1
    54   21   52 1
    55   53   54 1
@<TRIPOS>MOLECULE
ZINC00538337
   58    62     0     0     0
SMALL
USER_CHARGES

@<TRIPOS>ATOM
      1 C1         -0.0168    1.3842    0.0097 C.ar      1 <0>        -0.0898
      2 C2          1.1703    2.0901    0.0021 C.ar      1 <0>        -0.1344
      3 C3          2.3788    1.4141   -0.0135 C.ar      1 <0>         0.1119
      4 C4          2.3997    0.0295   -0.0216 C.ar      1 <0>        -0.1322
      5 C5          1.2148   -0.6800   -0.0137 C.ar      1 <0>        -0.0888
      6 C6          0.0021   -0.0041    0.0020 C.ar      1 <0>         0.1035
      7 N1         -1.2015   -0.7222    0.0101 N.pl3     1 <0>        -0.4255
      8 C7         -2.2407   -0.5077    0.8765 C.2       1 <0>         0.0751
      9 C8         -3.2397   -1.3652    0.6140 C.2       1 <0>        -0.1721
     10 C9         -2.8068   -2.1974   -0.5117 C.ar      1 <0>        -0.0841
     11 C10        -1.5194   -1.7470   -0.8569 C.ar      1 <0>         0.1032
     12 C11        -0.8430   -2.3517   -1.9103 C.ar      1 <0>        -0.1070
     13 C12        -1.4366   -3.3808   -2.6081 C.ar      1 <0>        -0.0841
     14 C13        -2.7089   -3.8239   -2.2706 C.ar      1 <0>        -0.0491
     15 C14        -3.3935   -3.2441   -1.2250 C.ar      1 <0>        -0.0671
     16 Cl1        -3.4366   -5.1218   -3.1648 Cl        1 <0>        -0.0596
     17 C15        -4.5571   -1.4553    1.3402 C.3       1 <0>        -0.0164
     18 C16        -4.3063   -1.7573    2.8204 C.3       1 <0>        -0.1397
     19 C17        -5.6422   -1.7687    3.5665 C.3       1 <0>        -0.0052
     20 N2         -6.2909   -0.4585    3.4359 N.4       1 <0>        -0.3798
     21 C18        -6.5994   -0.1937    2.0255 C.3       1 <0>        -0.0131
     22 C19        -5.3003   -0.1217    1.2201 C.3       1 <0>        -0.1392
     23 C20        -7.5345   -0.4493    4.2177 C.3       1 <0>        -0.0330
     24 C21        -8.1476    0.9521    4.1845 C.3       1 <0>         0.1326
     25 N3         -9.3878    0.9612    4.9641 N.am      1 <0>        -0.6351
     26 C22       -10.7283    0.6664    4.4362 C.3       1 <0>         0.0898
     27 C23       -11.6494    0.8170    5.6625 C.3       1 <0>         0.0871
     28 N4        -10.7301    1.1807    6.7511 N.am      1 <0>        -0.7327
     29 C24        -9.4802    1.2337    6.2723 C.2       1 <0>         0.7000
     30 O1         -8.5172    1.5083    6.9620 O.2       1 <0>        -0.5776
     31 F1          3.5389    2.1063   -0.0213 F         1 <0>        -0.1276
     32 H1         -0.9590    1.9118    0.0260 H         1 <0>         0.1391
     33 H2          1.1561    3.1700    0.0080 H         1 <0>         0.1488
     34 H3          3.3432   -0.4959   -0.0345 H         1 <0>         0.1499
     35 H4          1.2315   -1.7598   -0.0203 H         1 <0>         0.1411
     36 H5         -2.2541    0.2401    1.6556 H         1 <0>         0.1691
     37 H6          0.1466   -2.0149   -2.1816 H         1 <0>         0.1333
     38 H7         -0.9074   -3.8472   -3.4259 H         1 <0>         0.1426
     39 H8         -4.3833   -3.5900   -0.9659 H         1 <0>         0.1336
     40 H9         -5.1611   -2.2499    0.9021 H         1 <0>         0.0971
     41 H10        -3.8271   -2.7315    2.9171 H         1 <0>         0.1158
     42 H11        -3.6594   -0.9891    3.2440 H         1 <0>         0.0884
     43 H12        -6.2882   -2.5373    3.1423 H         1 <0>         0.1304
     44 H13        -5.4673   -1.9836    4.6207 H         1 <0>         0.1320
     45 H14        -7.2250   -0.9960    1.6341 H         1 <0>         0.1319
     46 H15        -7.1311    0.7541    1.9420 H         1 <0>         0.1316
     47 H16        -4.6740    0.6804    1.6106 H         1 <0>         0.0885
     48 H17        -5.5315    0.0731    0.1729 H         1 <0>         0.1159
     49 H18        -8.2379   -1.1638    3.7899 H         1 <0>         0.1318
     50 H19        -7.3173   -0.7265    5.2492 H         1 <0>         0.1351
     51 H20        -7.4442    1.6665    4.6123 H         1 <0>         0.1060
     52 H21        -8.3648    1.2293    3.1530 H         1 <0>         0.1030
     53 H22       -11.0011    1.3839    3.6624 H         1 <0>         0.0916
     54 H23       -10.7713   -0.3513    4.0481 H         1 <0>         0.0867
     55 H24       -12.3795    1.6093    5.4975 H         1 <0>         0.0926
     56 H25       -12.1498   -0.1259    5.8832 H         1 <0>         0.0914
     57 H26       -10.9875    1.3510    7.6707 H         1 <0>         0.4382
     58 H27        -5.6719    0.2583    3.7840 H         1 <0>         0.4243
@<TRIPOS>BOND
     1    1    6 ar
     2    1    2 ar
     3    1   32 1
     4    2    3 ar
     5    2   33 1
     6    3    4 ar
     7    3   31 1
     8    4    5 ar
     9    4   34 1
    10    5    6 ar
    11    5   35 1
    12    6    7 1
    13    7   11 1
    14    7    8 1
    15    8    9 2
    16    8   36 1
    17    9   10 1
    18    9   17 1
    19   10   15 ar
    20   10   11 ar
    21   11   12 ar
    22   12   13 ar
    23   12   37 1
    24   13   14 ar
    25   13   38 1
    26   14   15 ar
    27   14   16 1
    28   15   39 1
    29   17   22 1
    30   17   18 1
    31   17   40 1
    32   18   19 1
    33   18   41 1
    34   18   42 1
    35   19   20 1
    36   19   43 1
    37   19   44 1
    38   20   21 1
    39   20   23 1
    40   20   58 1
    41   21   22 1
    42   21   45 1
    43   21   46 1
    44   22   47 1
    45   22   48 1
    46   23   24 1
    47   23   49 1
    48   23   50 1
    49   24   25 1
    50   24   51 1
    51   24   52 1
    52   25   29 am
    53   25   26 1
    54   26   27 1
    55   26   53 1
    56   26   54 1
    57   27   28 1
    58   27   55 1
    59   27   56 1
    60   28   29 am
    61   28   57 1
    62   29   30 2
@<TRIPOS>MOLECULE
ZINC00014360
   42    43     0     0     0
SMALL
USER_CHARGES

@<TRIPOS>ATOM
      1 C1         -0.0178    1.4608    0.0101 C.3       1 <0>         0.0793
      2 N1          0.0021   -0.0041    0.0020 N.pl3     1 <0>        -1.1235
      3 S1          0.7421   -0.8289    1.2326 S.o2      1 <0>         2.6084
      4 O1          0.5924   -2.2002    0.8914 O.2       1 <0>        -0.9468
      5 O2          2.0334   -0.2448    1.3355 O.2       1 <0>        -0.9510
      6 C2         -0.2382   -0.4417    2.7090 C.3       1 <0>        -0.5828
      7 C3          0.3516   -1.1474    3.9028 C.ar      1 <0>        -0.1049
      8 C4         -0.0784   -2.4267    4.2282 C.ar      1 <0>        -0.0826
      9 C5          0.4473   -3.0893    5.3155 C.ar      1 <0>        -0.1137
     10 C6          1.4193   -2.4726    6.0968 C.ar      1 <0>         0.1042
     11 C7          1.8519   -1.1765    5.7625 C.ar      1 <0>        -0.0991
     12 C8          1.3091   -0.5253    4.6530 C.ar      1 <0>        -0.0640
     13 C9          2.8614   -0.8166    6.7612 C.2       1 <0>        -0.2000
     14 C10         2.9754   -1.8603    7.5977 C.2       1 <0>         0.0879
     15 N2          2.1214   -2.8591    7.2163 N.pl3     1 <0>        -0.5851
     16 H1          2.0253   -3.7124    7.6673 H         1 <0>         0.4255
     17 C11         3.6270    0.4793    6.8351 C.3       1 <0>        -0.0627
     18 C12         2.7992    1.5182    7.5943 C.3       1 <0>        -0.0095
     19 N3          3.5455    2.7814    7.6664 N.4       1 <0>        -0.3881
     20 C13         3.7116    3.3299    6.3138 C.3       1 <0>        -0.0545
     21 C14         2.8051    3.7410    8.4964 C.3       1 <0>        -0.0469
     22 H2          1.0048    1.8381    0.0023 H         1 <0>         0.0693
     23 H3         -0.5450    1.8219   -0.8730 H         1 <0>         0.0876
     24 H4         -0.5280    1.8123    0.9069 H         1 <0>         0.0574
     25 H5         -0.4183   -0.4908   -0.7241 H         1 <0>         0.4222
     26 H6         -0.2266    0.6346    2.8808 H         1 <0>         0.1378
     27 H7         -1.2653   -0.7750    2.5608 H         1 <0>         0.1453
     28 H8         -0.8329   -2.9072    3.6230 H         1 <0>         0.1399
     29 H9          0.1057   -4.0841    5.5609 H         1 <0>         0.1340
     30 H10         1.6421    0.4681    4.3911 H         1 <0>         0.1262
     31 H11         3.6421   -1.9048    8.4461 H         1 <0>         0.1761
     32 H12         4.5701    0.3149    7.3563 H         1 <0>         0.0931
     33 H13         3.8275    0.8410    5.8266 H         1 <0>         0.0945
     34 H14         1.8561    1.6826    7.0732 H         1 <0>         0.1293
     35 H15         2.5988    1.1565    8.6029 H         1 <0>         0.1303
     36 H16         4.2654    4.2672    6.3673 H         1 <0>         0.1245
     37 H17         4.2611    2.6179    5.6980 H         1 <0>         0.1265
     38 H18         2.7316    3.5116    5.8726 H         1 <0>         0.1219
     39 H19         2.6818    3.3340    9.5001 H         1 <0>         0.1225
     40 H20         3.3588    4.6783    8.5499 H         1 <0>         0.1241
     41 H21         1.8251    3.9226    8.0552 H         1 <0>         0.1209
     42 H22         4.4527    2.6132    8.0749 H         1 <0>         0.4266
@<TRIPOS>BOND
     1    1    2 1
     2    1   22 1
     3    1   23 1
     4    1   24 1
     5    2    3 1
     6    2   25 1
     7    3    4 2
     8    3    5 2
     9    3    6 1
    10    6    7 1
    11    6   26 1
    12    6   27 1
    13    7   12 ar
    14    7    8 ar
    15    8    9 ar
    16    8   28 1
    17    9   10 ar
    18    9   29 1
    19   10   15 1
    20   10   11 ar
    21   11   12 ar
    22   11   13 1
    23   12   30 1
    24   13   14 2
    25   13   17 1
    26   14   15 1
    27   14   31 1
    28   15   16 1
    29   17   18 1
    30   17   32 1
    31   17   33 1
    32   18   19 1
    33   18   34 1
    34   18   35 1
    35   19   20 1
    36   19   21 1
    37   19   42 1
    38   20   36 1
    39   20   37 1
    40   20   38 1
    41   21   39 1
    42   21   40 1
    43   21   41 1
@<TRIPOS>MOLECULE
ZINC02516053
   32    32     0     0     0
SMALL
USER_CHARGES

@<TRIPOS>ATOM
      1 C1         -0.0187    1.5258    0.0104 C.3       1 <0>        -0.1837
      2 C2          0.0021   -0.0041    0.0020 C.3       1 <0>         0.0344
      3 H1          0.5293   -0.3651    0.8851 H         1 <0>         0.1407
      4 C3          0.7182   -0.4975   -1.2568 C.3       1 <0>        -0.0944
      5 C4          0.8473   -1.9981   -1.2057 C.ar      1 <0>        -0.0941
      6 C5          2.0025   -2.5757   -0.7149 C.ar      1 <0>        -0.1590
      7 C6          2.1215   -3.9563   -0.6678 C.ar      1 <0>         0.1458
      8 C7          1.0802   -4.7580   -1.1137 C.ar      1 <0>        -0.0982
      9 C8         -0.0748   -4.1803   -1.6044 C.ar      1 <0>        -0.1178
     10 C9         -0.1957   -2.7990   -1.6460 C.ar      1 <0>         0.0662
     11 O1         -1.3349   -2.2303   -2.1234 O.3       1 <0>        -0.3399
     12 C10        -2.3683   -3.1155   -2.5599 C.3       1 <0>         0.0160
     13 I1          1.2600   -6.8441   -1.0433 I         1 <0>         0.0067
     14 O2          3.2588   -4.5247   -0.1852 O.3       1 <0>        -0.2969
     15 C11         4.2899   -3.6392    0.2560 C.3       1 <0>         0.0216
     16 N1         -1.3761   -0.5125    0.0124 N.4       1 <0>        -0.6338
     17 H2          1.0039    1.9031    0.0027 H         1 <0>         0.1075
     18 H3         -0.5459    1.8868   -0.8726 H         1 <0>         0.0843
     19 H4         -0.5289    1.8773    0.9072 H         1 <0>         0.0848
     20 H5          0.1430   -0.2121   -2.1375 H         1 <0>         0.1074
     21 H6          1.7103   -0.0491   -1.3098 H         1 <0>         0.1218
     22 H7          2.8130   -1.9517   -0.3683 H         1 <0>         0.1510
     23 H8         -0.8853   -4.8040   -1.9514 H         1 <0>         0.1495
     24 H9         -2.6820   -3.7459   -1.7280 H         1 <0>         0.0642
     25 H10        -3.2186   -2.5338   -2.9159 H         1 <0>         0.1133
     26 H11        -1.9924   -3.7419   -3.3689 H         1 <0>         0.0693
     27 H12         4.6073   -3.0087   -0.5745 H         1 <0>         0.0621
     28 H13         3.9101   -3.0129    1.0633 H         1 <0>         0.0598
     29 H14         5.1387   -4.2206    0.6159 H         1 <0>         0.1128
     30 H15        -1.8641   -0.1783   -0.8050 H         1 <0>         0.4349
     31 H16        -1.3624   -1.5214    0.0069 H         1 <0>         0.4309
     32 H17        -1.8484   -0.1871    0.8426 H         1 <0>         0.4329
@<TRIPOS>BOND
     1    1    2 1
     2    1   17 1
     3    1   18 1
     4    1   19 1
     5    2    3 1
     6    2    4 1
     7    2   16 1
     8    4    5 1
     9    4   20 1
    10    4   21 1
    11    5   10 ar
    12    5    6 ar
    13    6    7 ar
    14    6   22 1
    15    7    8 ar
    16    7   14 1
    17    8    9 ar
    18    8   13 1
    19    9   10 ar
    20    9   23 1
    21   10   11 1
    22   11   12 1
    23   12   24 1
    24   12   25 1
    25   12   26 1
    26   14   15 1
    27   15   27 1
    28   15   28 1
    29   15   29 1
    30   16   30 1
    31   16   31 1
    32   16   32 1
@<TRIPOS>MOLECULE
ZINC00579013
   50    53     0     0     0
SMALL
USER_CHARGES
5-methyl-N,N-bis[5-methyl-6-(trifluoromethyl)indolin-7a-yl]-6-(trifluoromethyl)indoline-1-carboxamide
@<TRIPOS>ATOM
      1 C1         -1.2442   -0.8128    0.0795 C.3       1 <0>        -0.1335
      2 C2          0.0455   -0.0333    0.0659 C.ar      1 <0>        -0.0509
      3 C3          1.2576   -0.6987    0.0674 C.ar      1 <0>        -0.0798
      4 C4          2.4406    0.0146    0.0550 C.ar      1 <0>        -0.1007
      5 C5          2.4256    1.4004    0.0405 C.ar      1 <0>         0.1546
      6 C6          1.1981    2.0649    0.0386 C.ar      1 <0>        -0.0806
      7 C7          0.0198    1.3489    0.0515 C.ar      1 <0>        -0.1596
      8 C8         -1.3005    2.0754    0.0435 C.3       1 <0>         0.5116
      9 F1         -1.0732    3.4557    0.0291 F         1 <0>        -0.1730
     10 F2         -2.0266    1.7105   -1.0953 F         1 <0>        -0.1736
     11 F3         -2.0274    1.7343    1.1891 F         1 <0>        -0.1734
     12 N1          3.7201    1.9294    0.0296 N.am      1 <0>        -0.5620
     13 C9          4.7058    0.8451    0.0369 C.3       1 <0>         0.0930
     14 C10         3.8792   -0.4511    0.0540 C.3       1 <0>        -0.0865
     15 C11         4.0175    3.2438    0.0149 C.2       1 <0>         0.7179
     16 O1          3.1246    4.0692    0.0103 O.2       1 <0>        -0.5492
     17 N2          5.3047    3.6434    0.0053 N.am      1 <0>        -0.6693
     18 C12         5.6146    5.0059   -0.1041 C.ar      1 <0>         0.0769
     19 C13         4.7972    5.9656    0.4902 C.ar      1 <0>        -0.0387
     20 C14         5.1419    7.2985    0.3562 C.ar      1 <0>        -0.1599
     21 C15         6.2833    7.6342   -0.3610 C.ar      1 <0>         0.3006
     22 N3          7.0362    6.6972   -0.9119 N.ar      1 <0>        -0.5079
     23 C16         6.7417    5.4159   -0.8001 C.ar      1 <0>         0.1228
     24 O2          6.6299    8.9395   -0.4975 O.3       1 <0>        -0.2398
     25 C17         7.6911    9.2381   -1.2923 C.ar      1 <0>         0.0436
     26 C18         8.9410    9.4911   -0.7352 C.ar      1 <0>        -0.0682
     27 C19         9.9933    9.7870   -1.5862 C.ar      1 <0>        -0.1668
     28 C20         9.7672    9.8303   -2.9495 C.ar      1 <0>         0.1077
     29 N4          8.5691    9.5904   -3.4450 N.ar      1 <0>        -0.4716
     30 C21         7.5425    9.3006   -2.6702 C.ar      1 <0>         0.1375
     31 C22         6.1937    9.0352   -3.2876 C.3       1 <0>        -0.1037
     32 H1         -1.5594   -1.0116   -0.9449 H         1 <0>         0.0828
     33 H2         -1.0926   -1.7570    0.6026 H         1 <0>         0.0791
     34 H3         -2.0134   -0.2337    0.5904 H         1 <0>         0.0764
     35 H4          1.2795   -1.7784    0.0787 H         1 <0>         0.1408
     36 H5          1.1711    3.1445    0.0271 H         1 <0>         0.1578
     37 H6          5.3298    0.9074    0.9284 H         1 <0>         0.0882
     38 H7          5.3236    0.8877   -0.8600 H         1 <0>         0.0889
     39 H8          4.0932   -1.0266    0.9546 H         1 <0>         0.1009
     40 H9          4.0852   -1.0472   -0.8350 H         1 <0>         0.1010
     41 H10         6.0165    2.9881    0.0741 H         1 <0>         0.4117
     42 H11         3.9156    5.6755    1.0425 H         1 <0>         0.1612
     43 H12         4.5314    8.0687    0.8040 H         1 <0>         0.1509
     44 H13         7.3832    4.6785   -1.2595 H         1 <0>         0.1627
     45 H14         9.0878    9.4542    0.3341 H         1 <0>         0.1405
     46 H15        10.9779    9.9853   -1.1892 H         1 <0>         0.1427
     47 H16        10.5829   10.0642   -3.6176 H         1 <0>         0.1626
     48 H17         5.6398    9.9706   -3.3665 H         1 <0>         0.0842
     49 H18         6.3268    8.6070   -4.2811 H         1 <0>         0.0815
     50 H19         5.6389    8.3360   -2.6619 H         1 <0>         0.0684
@<TRIPOS>BOND
     1    1    2 1
     2    1   32 1
     3    1   33 1
     4    1   34 1
     5    2    7 ar
     6    2    3 ar
     7    3    4 ar
     8    3   35 1
     9    4   14 1
    10    4    5 ar
    11    5    6 ar
    12    5   12 1
    13    6    7 ar
    14    6   36 1
    15    7    8 1
    16    8    9 1
    17    8   10 1
    18    8   11 1
    19   12   13 1
    20   12   15 am
    21   13   14 1
    22   13   37 1
    23   13   38 1
    24   14   39 1
    25   14   40 1
    26   15   16 2
    27   15   17 am
    28   17   18 1
    29   17   41 1
    30   18   23 ar
    31   18   19 ar
    32   19   20 ar
    33   19   42 1
    34   20   21 ar
    35   20   43 1
    36   21   22 ar
    37   21   24 1
    38   22   23 ar
    39   23   44 1
    40   24   25 1
    41   25   30 ar
    42   25   26 ar
    43   26   27 ar
    44   26   45 1
    45   27   28 ar
    46   27   46 1
    47   28   29 ar
    48   28   47 1
    49   29   30 ar
    50   30   31 1
    51   31   48 1
    52   31   49 1
    53   31   50 1
@<TRIPOS>MOLECULE
ZINC27558640
   28    29     0     0     0
SMALL
USER_CHARGES
(2R)-2-(1H-indol-3-yl)propan-1-amine
@<TRIPOS>ATOM
      1 C1         -4.3954    4.4790    1.3196 C.3       1 <0>        -0.1646
      2 C2         -3.7779    3.8677    0.0602 C.3       1 <0>        -0.0298
      3 H1         -3.9382    2.7795    0.0553 H         1 <0>         0.0972
      4 C3         -4.4212    4.4938   -1.1787 C.3       1 <0>         0.0022
      5 N1         -5.8439    4.1310   -1.2281 N.4       1 <0>        -0.6880
      6 C4         -2.2952    4.1365    0.0465 C.2       1 <0>        -0.2026
      7 C5         -1.7019    5.3406    0.0471 C.2       1 <0>         0.0692
      8 N2         -0.3419    5.1907    0.0328 N.pl3     1 <0>        -0.6003
      9 H2          0.3092    6.0773    0.0310 H         1 <0>         0.4503
     10 C6         -0.0185    3.8524    0.0225 C.ar      1 <0>         0.1067
     11 C7         -1.2278    3.1332    0.0306 C.ar      1 <0>        -0.1016
     12 C8         -1.2083    1.7375    0.0173 C.ar      1 <0>        -0.0823
     13 C9         -0.0126    1.0758    0.0080 C.ar      1 <0>        -0.1347
     14 C10         1.1831    1.7806    0.0003 C.ar      1 <0>        -0.0934
     15 C11         1.1868    3.1584    0.0072 C.ar      1 <0>        -0.1247
     16 H3         -3.9329    4.0288    2.2103 H         1 <0>         0.0827
     17 H4         -5.4777    4.2828    1.3296 H         1 <0>         0.0530
     18 H5         -4.2195    5.5648    1.3242 H         1 <0>         0.0700
     19 H6         -4.3234    5.5883   -1.1291 H         1 <0>         0.1264
     20 H7         -3.9162    4.1211   -2.0821 H         1 <0>         0.1301
     21 H8         -6.3064    4.5812   -2.1189 H         1 <0>         0.4585
     22 H9         -6.3489    4.5037   -0.3247 H         1 <0>         0.4521
     23 H10        -2.2212    6.2875    0.0573 H         1 <0>         0.1669
     24 H11        -2.1348    1.1825    0.0187 H         1 <0>         0.1184
     25 H12         0.0021   -0.0041    0.0020 H         1 <0>         0.1269
     26 H13         2.1200    1.2436   -0.0115 H         1 <0>         0.1310
     27 H14         2.1224    3.6978    0.0005 H         1 <0>         0.1247
     28 H15        -5.9417    3.0365   -1.2777 H         1 <0>         0.4557
@<TRIPOS>BOND
     1    1    2 1
     2    1   16 1
     3    1   17 1
     4    1   18 1
     5    2    3 1
     6    2    4 1
     7    2    6 1
     8    4    5 1
     9    4   19 1
    10    4   20 1
    11    5   21 1
    12    5   22 1
    13    5   28 1
    14    6   11 1
    15    6    7 2
    16    7    8 1
    17    7   23 1
    18    8    9 1
    19    8   10 1
    20   10   15 ar
    21   10   11 ar
    22   11   12 ar
    23   12   13 ar
    24   12   24 1
    25   13   14 ar
    26   13   25 1
    27   14   15 ar
    28   14   26 1
    29   15   27 1
@<TRIPOS>MOLECULE
ZINC27558642
   28    29     0     0     0
SMALL
USER_CHARGES
(2S)-2-(1H-indol-3-yl)propan-1-amine
@<TRIPOS>ATOM
      1 C1         -3.1279   -1.4517    1.2734 C.3       1 <0>        -0.1646
      2 C2         -2.5268   -0.8090    0.0218 C.3       1 <0>        -0.0298
      3 H1         -2.7173    0.2744    0.0294 H         1 <0>         0.0972
      4 C3         -3.1517   -1.4383   -1.2249 C.3       1 <0>         0.0022
      5 N1         -4.5838   -1.1144   -1.2714 N.4       1 <0>        -0.6879
      6 C4         -1.0371   -1.0366    0.0064 C.2       1 <0>        -0.2025
      7 C5         -0.4108   -2.2238   -0.0060 C.2       1 <0>         0.0692
      8 N2          0.9446   -2.0362   -0.0179 N.pl3     1 <0>        -0.6004
      9 H2          1.6199   -2.9044   -0.0290 H         1 <0>         0.4503
     10 C6          1.2308   -0.6894   -0.0134 C.ar      1 <0>         0.1068
     11 C7          0.0021   -0.0041    0.0020 C.ar      1 <0>        -0.1016
     12 C8         -0.0169    1.3917    0.0097 C.ar      1 <0>        -0.0822
     13 C9          1.1601    2.0862    0.0022 C.ar      1 <0>        -0.1347
     14 C10         2.3747    1.4149   -0.0130 C.ar      1 <0>        -0.0933
     15 C11         2.4165    0.0376   -0.0208 C.ar      1 <0>        -0.1247
     16 H3         -2.6786   -0.9992    2.1697 H         1 <0>         0.0827
     17 H4         -2.9220   -2.5322    1.2656 H         1 <0>         0.0700
     18 H5         -4.2152   -1.2857    1.2846 H         1 <0>         0.0530
     19 H6         -2.6566   -1.0413   -2.1234 H         1 <0>         0.1301
     20 H7         -3.0237   -2.5302   -1.1879 H         1 <0>         0.1264
     21 H8         -5.0331   -1.5668   -2.1677 H         1 <0>         0.4584
     22 H9         -4.7117   -0.0225   -1.3084 H         1 <0>         0.4558
     23 H10        -0.9037   -3.1847   -0.0067 H         1 <0>         0.1669
     24 H11        -0.9583    1.9209    0.0170 H         1 <0>         0.1184
     25 H12         1.1449    3.1661    0.0078 H         1 <0>         0.1269
     26 H13         3.2965    1.9776   -0.0192 H         1 <0>         0.1310
     27 H14         3.3667   -0.4756   -0.0330 H         1 <0>         0.1247
     28 H15        -5.0788   -1.5113   -0.3729 H         1 <0>         0.4521
@<TRIPOS>BOND
     1    1    2 1
     2    1   16 1
     3    1   17 1
     4    1   18 1
     5    2    3 1
     6    2    4 1
     7    2    6 1
     8    4    5 1
     9    4   19 1
    10    4   20 1
    11    5   21 1
    12    5   22 1
    13    5   28 1
    14    6   11 1
    15    6    7 2
    16    7    8 1
    17    7   23 1
    18    8    9 1
    19    8   10 1
    20   10   15 ar
    21   10   11 ar
    22   11   12 ar
    23   12   13 ar
    24   12   24 1
    25   13   14 ar
    26   13   25 1
    27   14   15 ar
    28   14   26 1
    29   15   27 1
@<TRIPOS>MOLECULE
ZINC13782372
   30    32     0     0     0
SMALL
USER_CHARGES
(2R)-1-(4-bromofuro[2,3-f]benzofuran-8-yl)propan-2-amine
@<TRIPOS>ATOM
      1 C1         -4.8886    4.4524   -1.3685 C.3       1 <0>        -0.1807
      2 C2         -3.3605    4.5273   -1.3817 C.3       1 <0>         0.0364
      3 H1         -2.9597    3.6747   -1.9300 H         1 <0>         0.1424
      4 C3         -2.8362    4.5016    0.0554 C.3       1 <0>        -0.0974
      5 C4         -1.3301    4.4514    0.0398 C.ar      1 <0>        -0.0651
      6 C5         -0.6713    3.2249    0.0258 C.ar      1 <0>        -0.0776
      7 C6         -1.1218    1.8267    0.0168 C.2       1 <0>        -0.2267
      8 C7         -0.0126    1.0758    0.0080 C.2       1 <0>         0.0558
      9 O1          1.0801    1.8597    0.0017 O.3       1 <0>        -0.1778
     10 C8          0.7355    3.1650    0.0121 C.ar      1 <0>         0.0740
     11 C9          1.4707    4.3380    0.0120 C.ar      1 <0>        -0.0299
     12 C10         0.8116    5.5643    0.0256 C.ar      1 <0>        -0.0761
     13 C11        -0.5957    5.6236    0.0394 C.ar      1 <0>         0.0293
     14 O2         -0.9406    6.9287    0.0504 O.3       1 <0>        -0.2084
     15 C12         0.1519    7.7130    0.0447 C.2       1 <0>         0.0277
     16 C13         1.2614    6.9627    0.0296 C.2       1 <0>        -0.1913
     17 Br1         3.3606    4.2750   -0.0057 Br        1 <0>         0.0007
     18 H2         -5.2622    4.4707   -2.3923 H         1 <0>         0.0857
     19 H3         -5.2029    3.5283   -0.8835 H         1 <0>         0.1089
     20 H4         -5.2894    5.3050   -0.8202 H         1 <0>         0.0842
     21 H5         -3.2238    3.6211    0.5679 H         1 <0>         0.1276
     22 H6         -3.1643    5.4001    0.5780 H         1 <0>         0.1052
     23 H7         -2.1428    1.4747    0.0186 H         1 <0>         0.1705
     24 H8          0.0021   -0.0041    0.0020 H         1 <0>         0.2226
     25 H9          0.1368    8.7929    0.0509 H         1 <0>         0.2244
     26 H10         2.2822    7.3153    0.0226 H         1 <0>         0.1732
     27 H11        -3.2711    5.8137   -2.9865 H         1 <0>         0.4385
     28 H12        -3.2416    6.5786   -1.5100 H         1 <0>         0.4361
     29 N1         -2.9118    5.7699   -2.0344 N.4       1 <0>        -0.6467
     30 H13        -1.8855    5.7847   -2.0626 H         1 <0>         0.4344
@<TRIPOS>BOND
     1    1    2 1
     2    1   18 1
     3    1   19 1
     4    1   20 1
     5    2    3 1
     6    2    4 1
     7    2   29 1
     8    4    5 1
     9    4   21 1
    10    4   22 1
    11    5   13 ar
    12    5    6 ar
    13    6   10 ar
    14    6    7 1
    15    7    8 2
    16    7   23 1
    17    8    9 1
    18    8   24 1
    19    9   10 1
    20   10   11 ar
    21   11   12 ar
    22   11   17 1
    23   12   16 1
    24   12   13 ar
    25   13   14 1
    26   14   15 1
    27   15   16 2
    28   15   25 1
    29   16   26 1
    30   27   29 1
    31   28   29 1
    32   29   30 1
@<TRIPOS>MOLECULE
ZINC02035314
   32    33     0     0     0
SMALL
USER_CHARGES
2-(5-methoxy-1H-indol-3-yl)propan-1-amine
@<TRIPOS>ATOM
      1 C1         -2.7832    0.4786    1.2659 C.3       1 <0>        -0.1663
      2 C2         -2.5448    1.3341    0.0200 C.3       1 <0>        -0.0301
      3 H1         -3.2268    2.1844    0.0271 H         1 <0>         0.1001
      4 C3         -2.7934    0.4914   -1.2325 C.3       1 <0>        -0.0013
      5 C4         -1.1222    1.8313    0.0168 C.2       1 <0>        -0.2037
      6 C5         -0.0126    1.0758    0.0080 C.2       1 <0>         0.0871
      7 N1          1.0969    1.8762    0.0017 N.pl3     1 <0>        -0.5858
      8 H2          2.0133    1.5585   -0.0091 H         1 <0>         0.4230
      9 C6          0.7179    3.2021    0.0124 C.ar      1 <0>         0.0616
     10 C7         -0.6883    3.2305    0.0260 C.ar      1 <0>        -0.0569
     11 C8         -1.3616    4.4537    0.0388 C.ar      1 <0>        -0.1264
     12 C9         -0.6388    5.6303    0.0375 C.ar      1 <0>         0.1169
     13 C10         0.7530    5.5988    0.0236 C.ar      1 <0>        -0.1739
     14 C11         1.4274    4.3980    0.0114 C.ar      1 <0>        -0.0804
     15 O1         -1.2891    6.8245    0.0504 O.3       1 <0>        -0.3176
     16 C12        -0.4811    8.0032    0.0487 C.3       1 <0>         0.0251
     17 H3         -3.8122    0.1190    1.2683 H         1 <0>         0.0532
     18 H4         -2.1012   -0.3716    1.2588 H         1 <0>         0.0708
     19 H5         -2.6061    1.0790    2.1582 H         1 <0>         0.0843
     20 H6         -2.5383    1.0731   -2.1183 H         1 <0>         0.1376
     21 H7         -2.1745   -0.4051   -1.1960 H         1 <0>         0.1304
     22 H8         -4.8070    0.9194   -1.2603 H         1 <0>         0.4375
     23 H9         -4.3998   -0.4512   -2.1097 H         1 <0>         0.4395
     24 H10         0.0021   -0.0041    0.0020 H         1 <0>         0.1706
     25 H11        -2.4412    4.4794    0.0499 H         1 <0>         0.1284
     26 H12         1.3090    6.5247    0.0228 H         1 <0>         0.1378
     27 H13         2.5073    4.3852    0.0014 H         1 <0>         0.1296
     28 H14         0.1569    8.0076    0.9325 H         1 <0>         0.0580
     29 H15         0.1393    8.0172   -0.8473 H         1 <0>         0.0576
     30 H16        -1.1233    8.8839    0.0598 H         1 <0>         0.1045
     31 N2         -4.2116    0.0929   -1.2693 N.4       1 <0>        -0.6481
     32 H17        -4.4225   -0.4809   -0.4445 H         1 <0>         0.4365
@<TRIPOS>BOND
     1    1    2 1
     2    1   17 1
     3    1   18 1
     4    1   19 1
     5    2    3 1
     6    2    4 1
     7    2    5 1
     8    4   20 1
     9    4   21 1
    10    4   31 1
    11    5   10 1
    12    5    6 2
    13    6    7 1
    14    6   24 1
    15    7    8 1
    16    7    9 1
    17    9   14 ar
    18    9   10 ar
    19   10   11 ar
    20   11   12 ar
    21   11   25 1
    22   12   13 ar
    23   12   15 1
    24   13   14 ar
    25   13   26 1
    26   14   27 1
    27   15   16 1
    28   16   28 1
    29   16   29 1
    30   16   30 1
    31   22   31 1
    32   23   31 1
    33   31   32 1
@<TRIPOS>MOLECULE
ZINC05735105
   32    33     0     0     0
SMALL
USER_CHARGES
2-(5-methoxy-1H-indol-3-yl)propan-1-amine
@<TRIPOS>ATOM
      1 C1          1.5442    5.5403   -1.2331 C.3       1 <0>        -0.1663
      2 C2          1.7913    4.6826    0.0095 C.3       1 <0>        -0.0300
      3 H1          2.8168    4.3133   -0.0020 H         1 <0>         0.1001
      4 C3          1.5676    5.5276    1.2652 C.3       1 <0>        -0.0014
      5 C4          0.8373    3.5160    0.0125 C.2       1 <0>        -0.2036
      6 C5         -0.5034    3.5813    0.0254 C.2       1 <0>         0.0870
      7 N1         -1.0321    2.3195    0.0188 N.pl3     1 <0>        -0.5857
      8 H2         -1.9797    2.1122    0.0215 H         1 <0>         0.4230
      9 C6         -0.0168    1.3864    0.0097 C.ar      1 <0>         0.0617
     10 C7          1.1975    2.0961    0.0019 C.ar      1 <0>        -0.0570
     11 C8          2.4103    1.4041   -0.0135 C.ar      1 <0>        -0.1264
     12 C9          2.4077    0.0233   -0.0209 C.ar      1 <0>         0.1169
     13 C10         1.2040   -0.6763   -0.0131 C.ar      1 <0>        -0.1739
     14 C11         0.0021   -0.0041    0.0020 C.ar      1 <0>        -0.0804
     15 O1          3.5857   -0.6560   -0.0354 O.3       1 <0>        -0.3176
     16 C12         3.5116   -2.0831   -0.0419 C.3       1 <0>         0.0251
     17 H3          1.7036    4.9383   -2.1277 H         1 <0>         0.0843
     18 H4          0.5187    5.9096   -1.2216 H         1 <0>         0.0708
     19 H5          2.2342    6.3841   -1.2353 H         1 <0>         0.0533
     20 H6          0.5717    5.9694    1.2332 H         1 <0>         0.1304
     21 H7          1.6564    4.8957    2.1490 H         1 <0>         0.1376
     22 H8          2.4487    7.1675    2.1443 H         1 <0>         0.4395
     23 H9          3.5086    6.2133    1.2887 H         1 <0>         0.4375
     24 H10        -1.0795    4.4947    0.0354 H         1 <0>         0.1706
     25 H11         3.3447    1.9456   -0.0191 H         1 <0>         0.1284
     26 H12         1.2129   -1.7562   -0.0193 H         1 <0>         0.1378
     27 H13        -0.9258   -0.5568    0.0083 H         1 <0>         0.1296
     28 H14         2.9880   -2.4238    0.8514 H         1 <0>         0.0576
     29 H15         2.9713   -2.4148   -0.9285 H         1 <0>         0.0580
     30 H16         4.5190   -2.4991   -0.0534 H         1 <0>         0.1045
     31 N2          2.5694    6.6076    1.3019 N.4       1 <0>        -0.6481
     32 H17         2.4471    7.2095    0.4792 H         1 <0>         0.4365
@<TRIPOS>BOND
     1    1    2 1
     2    1   17 1
     3    1   18 1
     4    1   19 1
     5    2    3 1
     6    2    4 1
     7    2    5 1
     8    4   20 1
     9    4   21 1
    10    4   31 1
    11    5   10 1
    12    5    6 2
    13    6    7 1
    14    6   24 1
    15    7    8 1
    16    7    9 1
    17    9   14 ar
    18    9   10 ar
    19   10   11 ar
    20   11   12 ar
    21   11   25 1
    22   12   13 ar
    23   12   15 1
    24   13   14 ar
    25   13   26 1
    26   14   27 1
    27   15   16 1
    28   16   28 1
    29   16   29 1
    30   16   30 1
    31   22   31 1
    32   23   31 1
    33   31   32 1
@<TRIPOS>MOLECULE
ZINC29130869
   21    22     0     0     0
SMALL
USER_CHARGES

@<TRIPOS>ATOM
      1 C1         -0.0168    1.3851    0.0097 C.ar      1 <0>        -0.1114
      2 C2          1.1695    2.0923    0.0021 C.ar      1 <0>        -0.0557
      3 C3          2.3765    1.4166   -0.0142 C.ar      1 <0>        -0.0325
      4 C4          2.3977    0.0325   -0.0291 C.ar      1 <0>         0.0004
      5 C5          1.2119   -0.6819   -0.0241 C.ar      1 <0>        -0.1257
      6 C6          0.0021   -0.0041    0.0020 C.ar      1 <0>         0.1557
      7 N1         -1.2115   -0.7080    0.0366 N.pl3     1 <0>        -0.6439
      8 C7         -1.1703   -2.0782   -0.1764 C.cat     1 <0>         0.7629
      9 N2         -0.0513   -2.7297    0.3259 N.pl3     1 <0>        -0.7367
     10 C8          1.2613   -2.1888   -0.0559 C.3       1 <0>         0.1619
     11 N3         -2.1192   -2.7123   -0.8059 N.pl3     1 <0>        -0.7135
     12 Cl1         3.9156   -0.8096   -0.0547 Cl        1 <0>        -0.0101
     13 Cl2         3.8674    2.3060   -0.0167 Cl        1 <0>        -0.0128
     14 H1         -0.9593    1.9121    0.0260 H         1 <0>         0.1571
     15 H2          1.1549    3.1722    0.0086 H         1 <0>         0.1643
     16 H3         -2.0510   -0.2519    0.2042 H         1 <0>         0.4492
     17 H4          1.5138   -2.5230   -1.0622 H         1 <0>         0.1084
     18 H5          2.0175   -2.5425    0.6450 H         1 <0>         0.1321
     19 H6         -2.8871   -2.2251   -1.1432 H         1 <0>         0.4475
     20 H7         -0.1322   -3.5063    0.9014 H         1 <0>         0.4498
     21 H8         -2.0575   -3.6714   -0.9369 H         1 <0>         0.4529
@<TRIPOS>BOND
     1    1    6 ar
     2    1    2 ar
     3    1   14 1
     4    2    3 ar
     5    2   15 1
     6    3    4 ar
     7    3   13 1
     8    4    5 ar
     9    4   12 1
    10    5   10 1
    11    5    6 ar
    12    6    7 1
    13    7    8 1
    14    7   16 1
    15    8    9 1
    16    8   11 2
    17    9   10 1
    18    9   20 1
    19   10   17 1
    20   10   18 1
    21   11   19 1
    22   11   21 1
@<TRIPOS>MOLECULE
ZINC13589372
   27    27     0     0     0
SMALL
USER_CHARGES
2-[(6-bromo-2-pyridyl)sulfanyl]-N,N-dimethyl-ethanamine
@<TRIPOS>ATOM
      1 C1         -3.0288    5.4959    1.3119 C.3       1 <0>        -0.0491
      2 C2         -2.6681    7.3736   -0.1735 C.3       1 <0>        -0.0421
      3 C3         -0.9747    5.6563    0.0401 C.3       1 <0>         0.0113
      4 C4         -0.7579    4.1418    0.0305 C.3       1 <0>        -0.1565
      5 S1          1.0207    3.7856    0.0121 S.3       1 <0>        -0.0105
      6 C5          1.1029    2.0256    0.0024 C.ar      1 <0>         0.1139
      7 C6          2.3426    1.3931   -0.0128 C.ar      1 <0>        -0.1280
      8 C7          2.3929    0.0111   -0.0203 C.ar      1 <0>        -0.0429
      9 C8          1.1978   -0.6961   -0.0127 C.ar      1 <0>        -0.1313
     10 C9          0.0021   -0.0041    0.0020 C.ar      1 <0>         0.1347
     11 N1         -0.0158    1.3161    0.0093 N.ar      1 <0>        -0.4749
     12 Br1        -1.6296   -0.9599    0.0125 Br        1 <0>         0.0114
     13 H1         -2.5603    6.0121    2.1498 H         1 <0>         0.1259
     14 H2         -4.0951    5.7215    1.2964 H         1 <0>         0.1260
     15 H3         -2.8865    4.4208    1.4221 H         1 <0>         0.1218
     16 H4         -2.2636    7.6637   -1.1432 H         1 <0>         0.1234
     17 H5         -3.7421    7.5595   -0.1575 H         1 <0>         0.1256
     18 H6         -2.1866    7.9579    0.6105 H         1 <0>         0.1250
     19 H7         -0.5092    6.0843    0.9280 H         1 <0>         0.1415
     20 H8         -0.5258    6.0933   -0.8519 H         1 <0>         0.1397
     21 H9         -1.2234    3.7138   -0.8574 H         1 <0>         0.1145
     22 H10        -1.2067    3.7048    0.9225 H         1 <0>         0.1151
     23 H11         3.2531    1.9739   -0.0188 H         1 <0>         0.1523
     24 H12         3.3406   -0.5068   -0.0321 H         1 <0>         0.1594
     25 H13         1.2030   -1.7760   -0.0185 H         1 <0>         0.1559
     26 N2         -2.4272    5.9301    0.0336 N.4       1 <0>        -0.3949
     27 H14        -2.8620    5.4059   -0.7348 H         1 <0>         0.4329
@<TRIPOS>BOND
     1    1   13 1
     2    1   14 1
     3    1   15 1
     4    1   26 1
     5    2   16 1
     6    2   17 1
     7    2   18 1
     8    2   26 1
     9    3    4 1
    10    3   19 1
    11    3   20 1
    12    3   26 1
    13    4    5 1
    14    4   21 1
    15    4   22 1
    16    5    6 1
    17    6   11 ar
    18    6    7 ar
    19    7    8 ar
    20    7   23 1
    21    8    9 ar
    22    8   24 1
    23    9   10 ar
    24    9   25 1
    25   10   11 ar
    26   10   12 1
    27   26   27 1
@<TRIPOS>MOLECULE
ZINC00598509
   69    73     0     0     0
SMALL
USER_CHARGES

@<TRIPOS>ATOM
      1 C1         -0.0258    1.5270    0.0085 C.3       1 <0>        -0.1204
      2 C2         -0.0148    0.0201   -0.0060 C.ar      1 <0>        -0.0705
      3 C3         -0.0163   -0.6573   -1.2055 C.ar      1 <0>        -0.0754
      4 C4         -0.0066   -2.0515   -1.2190 C.ar      1 <0>        -0.0242
      5 C5          0.0052   -2.7607   -0.0182 C.ar      1 <0>        -0.0676
      6 C6          0.0067   -2.0841    1.1813 C.ar      1 <0>        -0.1023
      7 C7          0.0028   -0.6889    1.1951 C.ar      1 <0>        -0.0393
      8 C8          0.0106    0.0396    2.4858 C.ar      1 <0>        -0.0090
      9 C9          0.9274    1.0696    2.6995 C.ar      1 <0>        -0.1104
     10 C10         0.9355    1.7469    3.8979 C.ar      1 <0>        -0.0527
     11 C11         0.0249    1.4029    4.9003 C.ar      1 <0>        -0.1436
     12 C12        -0.8930    0.3716    4.6852 C.ar      1 <0>        -0.0810
     13 C13        -0.9027   -0.3012    3.4843 C.ar      1 <0>        -0.1096
     14 C14         0.0330    2.1285    6.1867 C.2       1 <0>         0.5685
     15 O1          0.8322    3.0256    6.3736 O.2       1 <0>        -0.5263
     16 N1         -0.8455    1.7963    7.1533 N.am      1 <0>        -0.6684
     17 C15        -0.7752    2.4168    8.4065 C.ar      1 <0>         0.1156
     18 C16        -1.0739    1.6964    9.5555 C.ar      1 <0>        -0.0912
     19 C17        -1.0053    2.3066   10.7939 C.ar      1 <0>        -0.1823
     20 C18        -0.6379    3.6383   10.8923 C.ar      1 <0>         0.1184
     21 C19        -0.3370    4.3645    9.7420 C.ar      1 <0>         0.1285
     22 C20        -0.4014    3.7504    8.5005 C.ar      1 <0>        -0.0823
     23 N2          0.0344    5.7103    9.8398 N.pl3     1 <0>        -0.6622
     24 C21         1.4462    6.0965    9.9877 C.3       1 <0>         0.1226
     25 C22         1.7685    7.1688    8.9417 C.3       1 <0>        -0.0241
     26 N3          0.8189    8.2810    9.0738 N.4       1 <0>        -0.3816
     27 C23        -0.5392    7.8189    8.7603 C.3       1 <0>        -0.0238
     28 C24        -0.9753    6.7790    9.7916 C.3       1 <0>         0.1217
     29 C25         1.1947    9.3562    8.1460 C.3       1 <0>        -0.0465
     30 O2         -0.5714    4.2375   12.1123 O.3       1 <0>        -0.3095
     31 C26        -0.8936    3.4332   13.2486 C.3       1 <0>         0.0226
     32 C27        -0.0092   -2.7806   -2.5110 C.2       1 <0>         0.2941
     33 N4         -0.0061   -4.1179   -2.6574 N.2       1 <0>        -0.5422
     34 C28        -0.0098   -4.4281   -3.9223 C.2       1 <0>         0.2990
     35 O3         -0.0155   -3.2957   -4.6373 O.3       1 <0>        -0.1011
     36 N5         -0.0207   -2.2295   -3.6998 N.2       1 <0>        -0.3348
     37 C29        -0.0072   -5.8256   -4.4862 C.3       1 <0>        -0.0763
     38 H1          0.9991    1.8979    0.0015 H         1 <0>         0.0767
     39 H2         -0.5515    1.8949   -0.8727 H         1 <0>         0.0725
     40 H3         -0.5331    1.8780    0.9071 H         1 <0>         0.0725
     41 H4         -0.0254   -0.1084   -2.1356 H         1 <0>         0.1368
     42 H5          0.0127   -3.8406   -0.0290 H         1 <0>         0.1439
     43 H6          0.0151   -2.6334    2.1112 H         1 <0>         0.1367
     44 H7          1.6311    1.3354    1.9245 H         1 <0>         0.1371
     45 H8          1.6456    2.5436    4.0634 H         1 <0>         0.1389
     46 H9         -1.5969    0.1047    5.4596 H         1 <0>         0.1288
     47 H10        -1.6146   -1.0958    3.3164 H         1 <0>         0.1367
     48 H11        -1.5264    1.1274    6.9808 H         1 <0>         0.4139
     49 H12        -1.3606    0.6578    9.4814 H         1 <0>         0.1355
     50 H13        -1.2388    1.7442   11.6858 H         1 <0>         0.1396
     51 H14        -0.1650    4.3099    7.6075 H         1 <0>         0.1464
     52 H15         1.6134    6.4978   10.9872 H         1 <0>         0.0784
     53 H16         2.0827    5.2261    9.8280 H         1 <0>         0.1141
     54 H17         2.7826    7.5363    9.0985 H         1 <0>         0.1357
     55 H18         1.6879    6.7387    7.9435 H         1 <0>         0.1311
     56 H19        -1.2255    8.6654    8.7834 H         1 <0>         0.1359
     57 H20        -0.5499    7.3691    7.7675 H         1 <0>         0.1289
     58 H21        -1.9389    6.3598    9.5024 H         1 <0>         0.1131
     59 H22        -1.0567    7.2504   10.7710 H         1 <0>         0.0785
     60 H23         1.1728    8.9783    7.1239 H         1 <0>         0.1203
     61 H24         0.4905   10.1825    8.2431 H         1 <0>         0.1231
     62 H25         2.1997    9.7056    8.3828 H         1 <0>         0.1234
     63 H26        -1.9166    3.0682   13.1570 H         1 <0>         0.0587
     64 H27        -0.2091    2.5866   13.3004 H         1 <0>         0.0586
     65 H28        -0.8011    4.0313   14.1551 H         1 <0>         0.1033
     66 H29        -1.0342   -6.1660   -4.6183 H         1 <0>         0.1108
     67 H30         0.5031   -5.8278   -5.4494 H         1 <0>         0.1032
     68 H31         0.5115   -6.4939   -3.7988 H         1 <0>         0.1112
     69 H32         0.8435    8.6322   10.0194 H         1 <0>         0.4235
@<TRIPOS>BOND
     1    1    2 1
     2    1   38 1
     3    1   39 1
     4    1   40 1
     5    2    7 ar
     6    2    3 ar
     7    3    4 ar
     8    3   41 1
     9    4    5 ar
    10    4   32 1
    11    5    6 ar
    12    5   42 1
    13    6    7 ar
    14    6   43 1
    15    7    8 1
    16    8   13 ar
    17    8    9 ar
    18    9   10 ar
    19    9   44 1
    20   10   11 ar
    21   10   45 1
    22   11   12 ar
    23   11   14 1
    24   12   13 ar
    25   12   46 1
    26   13   47 1
    27   14   15 2
    28   14   16 am
    29   16   17 1
    30   16   48 1
    31   17   22 ar
    32   17   18 ar
    33   18   19 ar
    34   18   49 1
    35   19   20 ar
    36   19   50 1
    37   20   21 ar
    38   20   30 1
    39   21   22 ar
    40   21   23 1
    41   22   51 1
    42   23   28 1
    43   23   24 1
    44   24   25 1
    45   24   52 1
    46   24   53 1
    47   25   26 1
    48   25   54 1
    49   25   55 1
    50   26   27 1
    51   26   29 1
    52   26   69 1
    53   27   28 1
    54   27   56 1
    55   27   57 1
    56   28   58 1
    57   28   59 1
    58   29   60 1
    59   29   61 1
    60   29   62 1
    61   30   31 1
    62   31   63 1
    63   31   64 1
    64   31   65 1
    65   32   36 2
    66   32   33 1
    67   33   34 2
    68   34   35 1
    69   34   37 1
    70   35   36 1
    71   37   66 1
    72   37   67 1
    73   37   68 1
@<TRIPOS>MOLECULE
ZINC00598509
   68    72     0     0     0
SMALL
USER_CHARGES

@<TRIPOS>ATOM
      1 C1         -0.0258    1.5270    0.0085 C.3       1 <0>        -0.1214
      2 C2         -0.0148    0.0201   -0.0060 C.ar      1 <0>        -0.0708
      3 C3         -0.0163   -0.6573   -1.2055 C.ar      1 <0>        -0.0750
      4 C4         -0.0066   -2.0515   -1.2190 C.ar      1 <0>        -0.0302
      5 C5          0.0052   -2.7607   -0.0182 C.ar      1 <0>        -0.0680
      6 C6          0.0067   -2.0841    1.1813 C.ar      1 <0>        -0.1041
      7 C7          0.0028   -0.6889    1.1951 C.ar      1 <0>        -0.0311
      8 C8          0.0106    0.0396    2.4858 C.ar      1 <0>        -0.0198
      9 C9          0.9274    1.0696    2.6995 C.ar      1 <0>        -0.1090
     10 C10         0.9355    1.7469    3.8979 C.ar      1 <0>        -0.0544
     11 C11         0.0249    1.4029    4.9003 C.ar      1 <0>        -0.1327
     12 C12        -0.8930    0.3716    4.6852 C.ar      1 <0>        -0.0832
     13 C13        -0.9027   -0.3012    3.4843 C.ar      1 <0>        -0.1096
     14 C14         0.0330    2.1285    6.1867 C.2       1 <0>         0.5586
     15 O1          0.8322    3.0256    6.3736 O.2       1 <0>        -0.5148
     16 N1         -0.8455    1.7963    7.1533 N.am      1 <0>        -0.6663
     17 C15        -0.7752    2.4168    8.4065 C.ar      1 <0>         0.1085
     18 C16        -1.0739    1.6964    9.5555 C.ar      1 <0>        -0.1051
     19 C17        -1.0053    2.3066   10.7939 C.ar      1 <0>        -0.1878
     20 C18        -0.6379    3.6383   10.8923 C.ar      1 <0>         0.1109
     21 C19        -0.3370    4.3645    9.7420 C.ar      1 <0>         0.1576
     22 C20        -0.4014    3.7504    8.5005 C.ar      1 <0>        -0.0854
     23 N2          0.0344    5.7103    9.8398 N.pl3     1 <0>        -0.6665
     24 C21         1.4463    6.0949    9.9877 C.3       1 <0>         0.1544
     25 C22         1.7758    7.1536    8.9299 C.3       1 <0>         0.0391
     26 N3          0.8161    8.2608    9.0345 N.3       1 <0>        -0.5401
     27 C23        -0.5519    7.8093    8.7473 C.3       1 <0>         0.0391
     28 C24        -0.9762    6.7778    9.7914 C.3       1 <0>         0.1537
     29 C25         1.1986    9.3738    8.1553 C.3       1 <0>         0.0248
     30 O2         -0.5714    4.2375   12.1123 O.3       1 <0>        -0.3021
     31 C26        -0.8936    3.4332   13.2486 C.3       1 <0>         0.0247
     32 C27        -0.0092   -2.7806   -2.5110 C.2       1 <0>         0.2973
     33 N4         -0.0061   -4.1179   -2.6574 N.2       1 <0>        -0.5412
     34 C28        -0.0098   -4.4281   -3.9223 C.2       1 <0>         0.2959
     35 O3         -0.0155   -3.2957   -4.6373 O.3       1 <0>        -0.1032
     36 N5         -0.0207   -2.2295   -3.6998 N.2       1 <0>        -0.3355
     37 C29        -0.0072   -5.8256   -4.4862 C.3       1 <0>        -0.0751
     38 H1          0.9991    1.8979    0.0015 H         1 <0>         0.0772
     39 H2         -0.5515    1.8949   -0.8727 H         1 <0>         0.0715
     40 H3         -0.5331    1.8780    0.9071 H         1 <0>         0.0747
     41 H4         -0.0254   -0.1084   -2.1356 H         1 <0>         0.1357
     42 H5          0.0127   -3.8406   -0.0290 H         1 <0>         0.1424
     43 H6          0.0151   -2.6334    2.1112 H         1 <0>         0.1367
     44 H7          1.6311    1.3354    1.9245 H         1 <0>         0.1356
     45 H8          1.6456    2.5436    4.0634 H         1 <0>         0.1407
     46 H9         -1.5969    0.1047    5.4596 H         1 <0>         0.1292
     47 H10        -1.6146   -1.0958    3.3164 H         1 <0>         0.1344
     48 H11        -1.5264    1.1274    6.9808 H         1 <0>         0.4094
     49 H12        -1.3606    0.6578    9.4814 H         1 <0>         0.1286
     50 H13        -1.2388    1.7442   11.6858 H         1 <0>         0.1335
     51 H14        -0.1650    4.3099    7.6075 H         1 <0>         0.1447
     52 H15         1.6110    6.5079   10.9829 H         1 <0>         0.0585
     53 H16         2.0811    5.2210    9.8412 H         1 <0>         0.0698
     54 H17         2.7853    7.5303    9.0945 H         1 <0>         0.0791
     55 H18         1.7107    6.7084    7.9371 H         1 <0>         0.0368
     56 H19        -1.2306    8.6616    8.7795 H         1 <0>         0.0795
     57 H20        -0.5846    7.3549    7.7570 H         1 <0>         0.0337
     58 H21        -1.9422    6.3551    9.5153 H         1 <0>         0.0687
     59 H22        -1.0488    7.2577   10.7674 H         1 <0>         0.0589
     60 H23         1.2227    9.0286    7.1217 H         1 <0>         0.0236
     61 H24         0.4714   10.1799    8.2523 H         1 <0>         0.0677
     62 H25         2.1856    9.7387    8.4396 H         1 <0>         0.0684
     63 H26        -0.8011    4.0313   14.1551 H         1 <0>         0.0991
     64 H27        -1.9166    3.0682   13.1570 H         1 <0>         0.0537
     65 H28        -0.2091    2.5866   13.3004 H         1 <0>         0.0536
     66 H29        -1.0342   -6.1660   -4.6183 H         1 <0>         0.1097
     67 H30         0.5031   -5.8278   -5.4494 H         1 <0>         0.1021
     68 H31         0.5115   -6.4939   -3.7988 H         1 <0>         0.1106
@<TRIPOS>BOND
     1    1    2 1
     2    1   38 1
     3    1   39 1
     4    1   40 1
     5    2    7 ar
     6    2    3 ar
     7    3    4 ar
     8    3   41 1
     9    4    5 ar
    10    4   32 1
    11    5    6 ar
    12    5   42 1
    13    6    7 ar
    14    6   43 1
    15    7    8 1
    16    8   13 ar
    17    8    9 ar
    18    9   10 ar
    19    9   44 1
    20   10   11 ar
    21   10   45 1
    22   11   12 ar
    23   11   14 1
    24   12   13 ar
    25   12   46 1
    26   13   47 1
    27   14   15 2
    28   14   16 am
    29   16   17 1
    30   16   48 1
    31   17   22 ar
    32   17   18 ar
    33   18   19 ar
    34   18   49 1
    35   19   20 ar
    36   19   50 1
    37   20   21 ar
    38   20   30 1
    39   21   22 ar
    40   21   23 1
    41   22   51 1
    42   23   28 1
    43   23   24 1
    44   24   25 1
    45   24   52 1
    46   24   53 1
    47   25   26 1
    48   25   54 1
    49   25   55 1
    50   26   27 1
    51   26   29 1
    52   27   28 1
    53   27   56 1
    54   27   57 1
    55   28   58 1
    56   28   59 1
    57   29   60 1
    58   29   61 1
    59   29   62 1
    60   30   31 1
    61   31   63 1
    62   31   64 1
    63   31   65 1
    64   32   36 2
    65   32   33 1
    66   33   34 2
    67   34   35 1
    68   34   37 1
    69   35   36 1
    70   37   66 1
    71   37   67 1
    72   37   68 1
@<TRIPOS>MOLECULE
ZINC00985328
   30    31     0     0     0
SMALL
USER_CHARGES
2-benzothiazol-2-ylsulfanyl-N,N-dimethyl-ethanamine
@<TRIPOS>ATOM
      1 C1         -6.1338    8.1345    1.3628 C.3       1 <0>        -0.0505
      2 C2         -6.2619   10.0471   -0.1166 C.3       1 <0>        -0.0425
      3 C3         -4.1876    8.8158    0.0935 C.3       1 <0>         0.0150
      4 C4         -3.5931    7.4061    0.0795 C.3       1 <0>        -0.1966
      5 S1         -1.7864    7.5134    0.0618 S.3       1 <0>         0.1138
      6 C5         -1.3782    5.7994    0.0479 C.2       1 <0>         0.0894
      7 N1         -0.1914    5.2346    0.0326 N.2       1 <0>        -0.4575
      8 C6         -0.0267    3.8938    0.0233 C.ar      1 <0>         0.0705
      9 C7          1.1840    3.1634    0.0073 C.ar      1 <0>        -0.0481
     10 C8          1.1750    1.7928    0.0005 C.ar      1 <0>        -0.1066
     11 C9         -0.0126    1.0758    0.0080 C.ar      1 <0>        -0.0742
     12 C10        -1.2156    1.7582    0.0173 C.ar      1 <0>        -0.0728
     13 C11        -1.2161    3.1304    0.0310 C.ar      1 <0>        -0.1216
     14 S2         -2.4725    4.3864    0.0509 S.3       1 <0>        -0.0118
     15 H1         -5.8120    8.7503    2.2027 H         1 <0>         0.1277
     16 H2         -7.2224    8.0819    1.3469 H         1 <0>         0.1274
     17 H3         -5.7230    7.1306    1.4698 H         1 <0>         0.1209
     18 H4         -5.9442   10.4335   -1.0850 H         1 <0>         0.1245
     19 H5         -7.3478    9.9538   -0.1011 H         1 <0>         0.1265
     20 H6         -5.9447   10.7320    0.6698 H         1 <0>         0.1261
     21 H7         -3.8464    9.3452    0.9832 H         1 <0>         0.1460
     22 H8         -3.8644    9.3553   -0.7967 H         1 <0>         0.1443
     23 H9         -3.9344    6.8767   -0.8101 H         1 <0>         0.1199
     24 H10        -3.9164    6.8666    0.9697 H         1 <0>         0.1197
     25 H11         2.1261    3.6913    0.0008 H         1 <0>         0.1406
     26 H12         2.1137    1.2590   -0.0114 H         1 <0>         0.1442
     27 H13         0.0021   -0.0041    0.0020 H         1 <0>         0.1481
     28 H14        -2.1488    1.2145    0.0184 H         1 <0>         0.1394
     29 N2         -5.6620    8.7115    0.0863 N.4       1 <0>        -0.3953
     30 H15        -5.9491    8.0964   -0.6840 H         1 <0>         0.4333
@<TRIPOS>BOND
     1    1   15 1
     2    1   16 1
     3    1   17 1
     4    1   29 1
     5    2   18 1
     6    2   19 1
     7    2   20 1
     8    2   29 1
     9    3    4 1
    10    3   21 1
    11    3   22 1
    12    3   29 1
    13    4    5 1
    14    4   23 1
    15    4   24 1
    16    5    6 1
    17    6   14 1
    18    6    7 2
    19    7    8 1
    20    8   13 ar
    21    8    9 ar
    22    9   10 ar
    23    9   25 1
    24   10   11 ar
    25   10   26 1
    26   11   12 ar
    27   11   27 1
    28   12   13 ar
    29   12   28 1
    30   13   14 1
    31   29   30 1
@<TRIPOS>MOLECULE
ZINC00537877
   52    55     0     0     0
SMALL
USER_CHARGES

@<TRIPOS>ATOM
      1 C1         -0.0166    1.3749    0.0096 C.ar      1 <0>        -0.1458
      2 C2          1.1694    2.0931    0.0021 C.ar      1 <0>        -0.0357
      3 C3          2.3865    1.4416   -0.0130 C.ar      1 <0>        -0.1583
      4 C4          2.4252    0.0557   -0.0208 C.ar      1 <0>         0.1911
      5 C5          1.2234   -0.6735   -0.0133 C.ar      1 <0>        -0.2028
      6 C6          0.0021   -0.0041    0.0020 C.ar      1 <0>        -0.0119
      7 C7          1.3009   -2.1453   -0.0214 C.2       1 <0>         0.5683
      8 O1          0.2913   -2.8230   -0.0158 O.2       1 <0>        -0.4850
      9 N1          2.5223   -2.7219   -0.0358 N.am      1 <0>        -0.5569
     10 C8          3.6419   -1.9818   -0.0425 C.2       1 <0>         0.7078
     11 O2          4.7159   -2.5515   -0.0555 O.2       1 <0>        -0.5414
     12 N2          3.6268   -0.6377   -0.0356 N.am      1 <0>        -0.6368
     13 H1          4.4640   -0.1479   -0.0410 H         1 <0>         0.4418
     14 C9          2.6269   -4.1831   -0.0436 C.3       1 <0>         0.0867
     15 C10         2.6496   -4.6850   -1.4888 C.3       1 <0>        -0.0251
     16 N3          2.7545   -6.1503   -1.4967 N.4       1 <0>        -0.3797
     17 C11         4.0426   -6.5502   -0.9176 C.3       1 <0>        -0.0117
     18 C12         4.1233   -8.0767   -0.8488 C.3       1 <0>        -0.1358
     19 C13         3.9960   -8.6533   -2.2619 C.3       1 <0>        -0.1487
     20 C14         2.6832   -8.1689   -2.8839 C.3       1 <0>        -0.1361
     21 C15         2.6558   -6.6390   -2.8772 C.3       1 <0>        -0.0021
     22 C16         3.9961  -10.1587   -2.1937 C.2       1 <0>         0.4085
     23 O3          3.5533  -10.7215   -1.2150 O.2       1 <0>        -0.4338
     24 C17         4.5330  -10.9452   -3.3138 C.ar      1 <0>        -0.1959
     25 C18         5.0500  -10.2989   -4.4422 C.ar      1 <0>        -0.0461
     26 C19         5.5516  -11.0417   -5.4882 C.ar      1 <0>        -0.1663
     27 C20         5.5445  -12.4274   -5.4249 C.ar      1 <0>         0.1458
     28 C21         5.0335  -13.0744   -4.3093 C.ar      1 <0>        -0.1631
     29 C22         4.5346  -12.3433   -3.2537 C.ar      1 <0>        -0.0242
     30 F1          6.0370  -13.1502   -6.4546 F         1 <0>        -0.1247
     31 H2         -0.9610    1.8986    0.0260 H         1 <0>         0.1441
     32 H3          1.1408    3.1727    0.0079 H         1 <0>         0.1452
     33 H4          3.3052    2.0094   -0.0191 H         1 <0>         0.1455
     34 H5         -0.9234   -0.5607    0.0079 H         1 <0>         0.1481
     35 H6          3.5454   -4.4843    0.4601 H         1 <0>         0.1238
     36 H7          1.7701   -4.6115    0.4764 H         1 <0>         0.1228
     37 H8          1.7311   -4.3838   -1.9925 H         1 <0>         0.1381
     38 H9          3.5064   -4.2566   -2.0088 H         1 <0>         0.1379
     39 H10         4.8534   -6.1716   -1.5399 H         1 <0>         0.1358
     40 H11         4.1330   -6.1364    0.0868 H         1 <0>         0.1371
     41 H12         5.0811   -8.3717   -0.4203 H         1 <0>         0.1185
     42 H13         3.3129   -8.4564   -0.2265 H         1 <0>         0.1024
     43 H14         4.8345   -8.3147   -2.8705 H         1 <0>         0.1171
     44 H15         2.6116   -8.5297   -3.9100 H         1 <0>         0.1217
     45 H16         1.8429   -8.5505   -2.3038 H         1 <0>         0.0985
     46 H17         1.7225   -6.2907   -3.3196 H         1 <0>         0.1380
     47 H18         3.4963   -6.2585   -3.4578 H         1 <0>         0.1341
     48 H19         5.0555   -9.2201   -4.4930 H         1 <0>         0.1392
     49 H20         5.9508  -10.5441   -6.3596 H         1 <0>         0.1470
     50 H21         5.0309  -14.1535   -4.2663 H         1 <0>         0.1490
     51 H22         4.1411  -12.8481   -2.3838 H         1 <0>         0.1471
     52 H23         2.0047   -6.5431   -0.9475 H         1 <0>         0.4268
@<TRIPOS>BOND
     1    1    6 ar
     2    1    2 ar
     3    1   31 1
     4    2    3 ar
     5    2   32 1
     6    3    4 ar
     7    3   33 1
     8    4   12 1
     9    4    5 ar
    10    5    6 ar
    11    5    7 1
    12    6   34 1
    13    7    8 2
    14    7    9 am
    15    9   10 am
    16    9   14 1
    17   10   11 2
    18   10   12 am
    19   12   13 1
    20   14   15 1
    21   14   35 1
    22   14   36 1
    23   15   16 1
    24   15   37 1
    25   15   38 1
    26   16   21 1
    27   16   17 1
    28   16   52 1
    29   17   18 1
    30   17   39 1
    31   17   40 1
    32   18   19 1
    33   18   41 1
    34   18   42 1
    35   19   20 1
    36   19   22 1
    37   19   43 1
    38   20   21 1
    39   20   44 1
    40   20   45 1
    41   21   46 1
    42   21   47 1
    43   22   23 2
    44   22   24 1
    45   24   29 ar
    46   24   25 ar
    47   25   26 ar
    48   25   48 1
    49   26   27 ar
    50   26   49 1
    51   27   28 ar
    52   27   30 1
    53   28   29 ar
    54   28   50 1
    55   29   51 1
@<TRIPOS>MOLECULE
ZINC00537877
   51    54     0     0     0
SMALL
USER_CHARGES

@<TRIPOS>ATOM
      1 C1         -0.0165    1.3635    0.0095 C.ar      1 <0>        -0.1996
      2 C2          1.1676    2.0893    0.0021 C.ar      1 <0>        -0.0558
      3 C3          2.3794    1.4578   -0.0132 C.ar      1 <0>        -0.1599
      4 C4          2.4313    0.0613   -0.0212 C.ar      1 <0>         0.2387
      5 C5          1.2245   -0.6739   -0.0131 C.ar      1 <0>        -0.2783
      6 C6          0.0021   -0.0041    0.0020 C.ar      1 <0>        -0.0188
      7 C7          1.3072   -2.1409   -0.0223 C.2       1 <0>         0.5603
      8 O1          0.3037   -2.8299   -0.0164 O.2       1 <0>        -0.5531
      9 N1          2.5407   -2.6973   -0.0379 N.am      1 <0>        -0.5574
     10 C8          3.6548   -1.9127   -0.0447 C.2       1 <0>         0.6046
     11 O2          4.8636   -2.5136   -0.0608 O.3       1 <0>        -0.6759
     12 N2          3.6096   -0.6067   -0.0368 N.2       1 <0>        -0.6157
     13 C9          2.6795   -4.1557   -0.0471 C.3       1 <0>         0.0893
     14 C10         2.7130   -4.6557   -1.4927 C.3       1 <0>        -0.0205
     15 N3          2.8521   -6.1181   -1.5019 N.4       1 <0>        -0.3780
     16 C11         4.1496   -6.4882   -0.9239 C.3       1 <0>        -0.0102
     17 C12         4.2660   -8.0125   -0.8566 C.3       1 <0>        -0.1339
     18 C13         4.1514   -8.5907   -2.2700 C.3       1 <0>        -0.1486
     19 C14         2.8272   -8.1366   -2.8908 C.3       1 <0>        -0.1338
     20 C15         2.7641   -6.6078   -2.8828 C.3       1 <0>        -0.0025
     21 C16         4.1868  -10.0958   -2.2032 C.2       1 <0>         0.4088
     22 O3          3.7578  -10.6696   -1.2246 O.2       1 <0>        -0.4351
     23 C17         4.7413  -10.8685   -3.3242 C.ar      1 <0>        -0.1915
     24 C18         5.2423  -10.2093   -4.4524 C.ar      1 <0>        -0.0447
     25 C19         5.7604  -10.9393   -5.4993 C.ar      1 <0>        -0.1657
     26 C20         5.7858  -12.3249   -5.4372 C.ar      1 <0>         0.1414
     27 C21         5.2907  -12.9845   -4.3219 C.ar      1 <0>        -0.1644
     28 C22         4.7756  -12.2663   -3.2654 C.ar      1 <0>        -0.0262
     29 F1          6.2945  -13.0350   -6.4678 F         1 <0>        -0.1274
     30 H1         -0.9623    1.8846    0.0259 H         1 <0>         0.1182
     31 H2          1.1301    3.1686    0.0082 H         1 <0>         0.1206
     32 H3          3.2922    2.0349   -0.0196 H         1 <0>         0.1281
     33 H4         -0.9234   -0.5608    0.0082 H         1 <0>         0.1211
     34 H5          3.6051   -4.4357    0.4558 H         1 <0>         0.1120
     35 H6          1.8332   -4.6044    0.4731 H         1 <0>         0.0972
     36 H7          1.7874   -4.3756   -1.9955 H         1 <0>         0.1295
     37 H8          3.5592   -4.2069   -2.0128 H         1 <0>         0.1372
     38 H9          4.9510   -6.0903   -1.5464 H         1 <0>         0.1348
     39 H10         4.2310   -6.0733    0.0808 H         1 <0>         0.1403
     40 H11         5.2307   -8.2853   -0.4288 H         1 <0>         0.1151
     41 H12         3.4652   -8.4116   -0.2340 H         1 <0>         0.0995
     42 H13         4.9813   -8.2321   -2.8789 H         1 <0>         0.1164
     43 H14         2.7635   -8.4982   -3.9171 H         1 <0>         0.1171
     44 H15         1.9965   -8.5382   -2.3105 H         1 <0>         0.0959
     45 H16         1.8226   -6.2811   -3.3243 H         1 <0>         0.1350
     46 H17         3.5950   -6.2072   -3.4635 H         1 <0>         0.1323
     47 H18         5.2224   -9.1307   -4.5022 H         1 <0>         0.1417
     48 H19         6.1474  -10.4318   -6.3706 H         1 <0>         0.1465
     49 H20         5.3134  -14.0635   -4.2798 H         1 <0>         0.1469
     50 H21         4.3946  -12.7809   -2.3956 H         1 <0>         0.1464
     51 H22         2.1121   -6.5288   -0.9526 H         1 <0>         0.4221
@<TRIPOS>BOND
     1    1    6 ar
     2    1    2 ar
     3    1   30 1
     4    2    3 ar
     5    2   31 1
     6    3    4 ar
     7    3   32 1
     8    4   12 1
     9    4    5 ar
    10    5    6 ar
    11    5    7 1
    12    6   33 1
    13    7    8 2
    14    7    9 am
    15    9   10 1
    16    9   13 1
    17   10   11 1
    18   10   12 2
    19   13   14 1
    20   13   34 1
    21   13   35 1
    22   14   15 1
    23   14   36 1
    24   14   37 1
    25   15   20 1
    26   15   16 1
    27   15   51 1
    28   16   17 1
    29   16   38 1
    30   16   39 1
    31   17   18 1
    32   17   40 1
    33   17   41 1
    34   18   19 1
    35   18   21 1
    36   18   42 1
    37   19   20 1
    38   19   43 1
    39   19   44 1
    40   20   45 1
    41   20   46 1
    42   21   22 2
    43   21   23 1
    44   23   28 ar
    45   23   24 ar
    46   24   25 ar
    47   24   47 1
    48   25   26 ar
    49   25   48 1
    50   26   27 ar
    51   26   29 1
    52   27   28 ar
    53   27   49 1
    54   28   50 1
@<TRIPOS>MOLECULE
ZINC34451922
   61    65     0     0     0
SMALL
USER_CHARGES

@<TRIPOS>ATOM
      1 C1         -0.0312    1.4376    0.0625 C.3       1 <0>        -0.1149
      2 C2         -0.0229   -0.0693    0.0447 C.ar      1 <0>         0.1665
      3 C3         -0.0155   -0.7327   -1.1794 C.ar      1 <0>        -0.1630
      4 C4         -0.0074   -2.0992   -1.2143 C.ar      1 <0>        -0.0625
      5 C5         -0.0068   -2.7940    0.0070 C.ar      1 <0>        -0.1089
      6 C6         -0.0145   -2.0581    1.2176 C.ar      1 <0>         0.1381
      7 N1         -0.0173   -0.7211    1.1825 N.ar      1 <0>        -0.4673
      8 C7         -0.0139   -2.7495    2.4406 C.ar      1 <0>        -0.0799
      9 C8         -0.0055   -4.1115    2.4546 C.ar      1 <0>        -0.0967
     10 C9          0.0026   -4.8435    1.2722 C.ar      1 <0>        -0.1038
     11 C10         0.0018   -4.2041    0.0495 C.ar      1 <0>         0.1607
     12 N2          0.0100   -4.9428   -1.1301 N.pl3     1 <0>        -0.6732
     13 C11         1.2761   -5.3417   -1.7641 C.3       1 <0>         0.1189
     14 C12         1.2238   -4.9473   -3.2438 C.3       1 <0>        -0.0255
     15 N3          0.0263   -5.5297   -3.8626 N.4       1 <0>        -0.3804
     16 C13        -1.1805   -4.9526   -3.2570 C.3       1 <0>        -0.0322
     17 C14        -1.2473   -5.3521   -1.7749 C.3       1 <0>         0.1198
     18 C15         0.0336   -5.2439   -5.3035 C.3       1 <0>        -0.0072
     19 C16        -1.1461   -5.9543   -5.9703 C.3       1 <0>        -0.0971
     20 C17        -1.1386   -5.6610   -7.4485 C.ar      1 <0>        -0.0776
     21 C18        -1.8170   -4.5596   -7.9377 C.ar      1 <0>        -0.1386
     22 C19        -1.8126   -4.2871   -9.2931 C.ar      1 <0>        -0.0804
     23 C20        -1.1300   -5.1148  -10.1632 C.ar      1 <0>        -0.1434
     24 C21        -0.4479   -6.2214   -9.6753 C.ar      1 <0>         0.2020
     25 C22        -0.4497   -6.4892   -8.3125 C.ar      1 <0>        -0.1555
     26 N4          0.2445   -7.0619  -10.5542 N.am      1 <0>        -0.5742
     27 C23         1.0949   -8.1943  -10.1579 C.3       1 <0>         0.0857
     28 C24         1.6017   -8.7621  -11.4979 C.3       1 <0>         0.0889
     29 N5          0.9830   -7.8894  -12.5069 N.am      1 <0>        -0.7318
     30 C25         0.2334   -6.9663  -11.8902 C.2       1 <0>         0.6994
     31 O1         -0.3969   -6.1161  -12.4888 O.2       1 <0>        -0.5594
     32 H1          0.9944    1.8066    0.0650 H         1 <0>         0.0861
     33 H2         -0.5487    1.8085   -0.8223 H         1 <0>         0.0802
     34 H3         -0.5455    1.7876    0.9576 H         1 <0>         0.0841
     35 H4         -0.0165   -0.1684   -2.1002 H         1 <0>         0.1388
     36 H5         -0.0019   -2.6302   -2.1547 H         1 <0>         0.1232
     37 H6         -0.0198   -2.2006    3.3707 H         1 <0>         0.1418
     38 H7         -0.0048   -4.6322    3.4007 H         1 <0>         0.1381
     39 H8          0.0096   -5.9228    1.3114 H         1 <0>         0.1308
     40 H9          2.1065   -4.8299   -1.2777 H         1 <0>         0.1163
     41 H10         1.4054   -6.4205   -1.6769 H         1 <0>         0.0826
     42 H11         1.1855   -3.8614   -3.3293 H         1 <0>         0.1284
     43 H12         2.1133   -5.3208   -3.7511 H         1 <0>         0.1390
     44 H13        -1.1461   -3.8665   -3.3421 H         1 <0>         0.1294
     45 H14        -2.0627   -5.3301   -3.7741 H         1 <0>         0.1406
     46 H15        -1.3685   -6.4320   -1.6889 H         1 <0>         0.0832
     47 H16        -2.0861   -4.8472   -1.2958 H         1 <0>         0.1162
     48 H17        -0.0535   -4.1688   -5.4611 H         1 <0>         0.1311
     49 H18         0.9665   -5.6007   -5.7400 H         1 <0>         0.1329
     50 H19        -1.0590   -7.0293   -5.8127 H         1 <0>         0.0951
     51 H20        -2.0789   -5.5974   -5.5338 H         1 <0>         0.0966
     52 H21        -2.3517   -3.9111   -7.2594 H         1 <0>         0.1244
     53 H22        -2.3436   -3.4264   -9.6721 H         1 <0>         0.1341
     54 H23        -1.1272   -4.9017  -11.2220 H         1 <0>         0.1632
     55 H24         0.0839   -7.3464   -7.9293 H         1 <0>         0.1261
     56 H25         1.9301   -7.8505   -9.5478 H         1 <0>         0.0916
     57 H26         0.5107   -8.9423   -9.6219 H         1 <0>         0.0922
     58 H27         2.6885   -8.7002  -11.5531 H         1 <0>         0.0930
     59 H28         1.2691   -9.7921  -11.6273 H         1 <0>         0.0930
     60 H29         1.0964   -7.9716  -13.4667 H         1 <0>         0.4388
     61 H30         0.0277   -6.5286   -3.7203 H         1 <0>         0.4226
@<TRIPOS>BOND
     1    1    2 1
     2    1   32 1
     3    1   33 1
     4    1   34 1
     5    2    7 ar
     6    2    3 ar
     7    3    4 ar
     8    3   35 1
     9    4    5 ar
    10    4   36 1
    11    5   11 ar
    12    5    6 ar
    13    6    7 ar
    14    6    8 ar
    15    8    9 ar
    16    8   37 1
    17    9   10 ar
    18    9   38 1
    19   10   11 ar
    20   10   39 1
    21   11   12 1
    22   12   17 1
    23   12   13 1
    24   13   14 1
    25   13   40 1
    26   13   41 1
    27   14   15 1
    28   14   42 1
    29   14   43 1
    30   15   16 1
    31   15   18 1
    32   15   61 1
    33   16   17 1
    34   16   44 1
    35   16   45 1
    36   17   46 1
    37   17   47 1
    38   18   19 1
    39   18   48 1
    40   18   49 1
    41   19   20 1
    42   19   50 1
    43   19   51 1
    44   20   25 ar
    45   20   21 ar
    46   21   22 ar
    47   21   52 1
    48   22   23 ar
    49   22   53 1
    50   23   24 ar
    51   23   54 1
    52   24   25 ar
    53   24   26 1
    54   25   55 1
    55   26   30 am
    56   26   27 1
    57   27   28 1
    58   27   56 1
    59   27   57 1
    60   28   29 1
    61   28   58 1
    62   28   59 1
    63   29   30 am
    64   29   60 1
    65   30   31 2
@<TRIPOS>MOLECULE
ZINC34451922
   60    64     0     0     0
SMALL
USER_CHARGES

@<TRIPOS>ATOM
      1 C1         -0.0321    1.4340    0.0669 C.3       1 <0>        -0.1087
      2 C2         -0.0231   -0.0728    0.0484 C.ar      1 <0>         0.1614
      3 C3         -0.0155   -0.7357   -1.1761 C.ar      1 <0>        -0.1790
      4 C4         -0.0069   -2.1021   -1.2116 C.ar      1 <0>        -0.0439
      5 C5         -0.0060   -2.7975    0.0093 C.ar      1 <0>        -0.1162
      6 C6         -0.0140   -2.0623    1.2203 C.ar      1 <0>         0.1383
      7 N1         -0.0173   -0.7252    1.1858 N.ar      1 <0>        -0.4780
      8 C7         -0.0131   -2.7542    2.4430 C.ar      1 <0>        -0.1017
      9 C8         -0.0042   -4.1162    2.4563 C.ar      1 <0>        -0.0895
     10 C9          0.0042   -4.8477    1.2736 C.ar      1 <0>        -0.1280
     11 C10         0.0032   -4.2076    0.0512 C.ar      1 <0>         0.1972
     12 N2          0.0115   -4.9458   -1.1288 N.pl3     1 <0>        -0.6786
     13 C11         1.2784   -5.3431   -1.7618 C.3       1 <0>         0.1496
     14 C12         1.2359   -4.9304   -3.2369 C.3       1 <0>         0.0396
     15 N3          0.0281   -5.4851   -3.8627 N.3       1 <0>        -0.5337
     16 C13        -1.1893   -4.9364   -3.2504 C.3       1 <0>         0.0347
     17 C14        -1.2462   -5.3545   -1.7725 C.3       1 <0>         0.1493
     18 C15         0.0356   -5.2584   -5.3140 C.3       1 <0>         0.0625
     19 C16        -1.0979   -6.0570   -5.9608 C.3       1 <0>        -0.0749
     20 C17        -1.0902   -5.8244   -7.4498 C.ar      1 <0>        -0.0542
     21 C18        -1.8204   -4.7814   -7.9898 C.ar      1 <0>        -0.1431
     22 C19        -1.8159   -4.5647   -9.3553 C.ar      1 <0>        -0.0866
     23 C20        -1.0816   -5.3899  -10.1846 C.ar      1 <0>        -0.1581
     24 C21        -0.3474   -6.4379   -9.6456 C.ar      1 <0>         0.1910
     25 C22        -0.3495   -6.6495   -8.2729 C.ar      1 <0>        -0.1551
     26 N4          0.3976   -7.2758  -10.4831 N.am      1 <0>        -0.5709
     27 C23         1.3021   -8.3444  -10.0332 C.3       1 <0>         0.0845
     28 C24         1.8522   -8.9388  -11.3442 C.3       1 <0>         0.0912
     29 N5          1.1993   -8.1420  -12.3936 N.am      1 <0>        -0.7361
     30 C25         0.3956   -7.2356  -11.8220 C.2       1 <0>         0.6995
     31 O1         -0.2721   -6.4452  -12.4605 O.2       1 <0>        -0.5652
     32 H1          0.9934    1.8035    0.0696 H         1 <0>         0.0813
     33 H2         -0.5496    1.8052   -0.8177 H         1 <0>         0.0768
     34 H3         -0.5465    1.7834    0.9621 H         1 <0>         0.0795
     35 H4         -0.0168   -0.1709   -2.0966 H         1 <0>         0.1342
     36 H5         -0.0012   -2.6326   -2.1523 H         1 <0>         0.1348
     37 H6         -0.0192   -2.2057    3.3733 H         1 <0>         0.1347
     38 H7         -0.0032   -4.6373    3.4022 H         1 <0>         0.1312
     39 H8          0.0116   -5.9269    1.3122 H         1 <0>         0.1282
     40 H9          2.1089   -4.8415   -1.2650 H         1 <0>         0.0717
     41 H10         1.4019   -6.4235   -1.6872 H         1 <0>         0.0627
     42 H11         1.2167   -3.8430   -3.3100 H         1 <0>         0.0346
     43 H12         2.1191   -5.3142   -3.7476 H         1 <0>         0.0822
     44 H13        -1.1747   -3.8489   -3.3233 H         1 <0>         0.0351
     45 H14        -2.0649   -5.3244   -3.7708 H         1 <0>         0.0854
     46 H15        -1.3606   -6.4360   -1.6990 H         1 <0>         0.0631
     47 H16        -2.0854   -4.8605   -1.2829 H         1 <0>         0.0716
     48 H17        -0.1062   -4.1968   -5.5167 H         1 <0>         0.0355
     49 H18         0.9905   -5.5828   -5.7275 H         1 <0>         0.0763
     50 H19        -0.9561   -7.1185   -5.7582 H         1 <0>         0.0819
     51 H20        -2.0528   -5.7326   -5.5474 H         1 <0>         0.0744
     52 H21        -2.3957   -4.1350   -7.3435 H         1 <0>         0.1206
     53 H22        -2.3875   -3.7496   -9.7740 H         1 <0>         0.1267
     54 H23        -1.0788   -5.2204  -11.2512 H         1 <0>         0.1568
     55 H24         0.2243   -7.4609   -7.8501 H         1 <0>         0.1245
     56 H25         2.1115   -7.9321   -9.4307 H         1 <0>         0.0924
     57 H26         0.7524   -9.0998   -9.4716 H         1 <0>         0.0923
     58 H27         2.9348   -8.8217  -11.3927 H         1 <0>         0.0897
     59 H28         1.5757   -9.9893  -11.4336 H         1 <0>         0.0895
     60 H29         1.3270   -8.2573  -13.3482 H         1 <0>         0.4348
@<TRIPOS>BOND
     1    1    2 1
     2    1   32 1
     3    1   33 1
     4    1   34 1
     5    2    7 ar
     6    2    3 ar
     7    3    4 ar
     8    3   35 1
     9    4    5 ar
    10    4   36 1
    11    5   11 ar
    12    5    6 ar
    13    6    7 ar
    14    6    8 ar
    15    8    9 ar
    16    8   37 1
    17    9   10 ar
    18    9   38 1
    19   10   11 ar
    20   10   39 1
    21   11   12 1
    22   12   17 1
    23   12   13 1
    24   13   14 1
    25   13   40 1
    26   13   41 1
    27   14   15 1
    28   14   42 1
    29   14   43 1
    30   15   16 1
    31   15   18 1
    32   16   17 1
    33   16   44 1
    34   16   45 1
    35   17   46 1
    36   17   47 1
    37   18   19 1
    38   18   48 1
    39   18   49 1
    40   19   20 1
    41   19   50 1
    42   19   51 1
    43   20   25 ar
    44   20   21 ar
    45   21   22 ar
    46   21   52 1
    47   22   23 ar
    48   22   53 1
    49   23   24 ar
    50   23   54 1
    51   24   25 ar
    52   24   26 1
    53   25   55 1
    54   26   30 am
    55   26   27 1
    56   27   28 1
    57   27   56 1
    58   27   57 1
    59   28   29 1
    60   28   58 1
    61   28   59 1
    62   29   30 am
    63   29   60 1
    64   30   31 2
@<TRIPOS>MOLECULE
ZINC34451922
   62    66     0     0     0
SMALL
USER_CHARGES

@<TRIPOS>ATOM
      1 C1         -0.0312    1.4376    0.0625 C.3       1 <0>        -0.1610
      2 C2         -0.0229   -0.0693    0.0447 C.ar      1 <0>         0.2542
      3 C3         -0.0155   -0.7327   -1.1794 C.ar      1 <0>        -0.1670
      4 C4         -0.0074   -2.0992   -1.2143 C.ar      1 <0>         0.0386
      5 C5         -0.0068   -2.7940    0.0070 C.ar      1 <0>        -0.0964
      6 C6         -0.0145   -2.0581    1.2176 C.ar      1 <0>         0.1451
      7 N1         -0.0173   -0.7211    1.1825 N.ar      1 <0>        -0.4584
      8 C7         -0.0139   -2.7495    2.4406 C.ar      1 <0>        -0.1305
      9 C8         -0.0055   -4.1115    2.4546 C.ar      1 <0>        -0.0263
     10 C9          0.0026   -4.8435    1.2722 C.ar      1 <0>        -0.0895
     11 C10         0.0018   -4.2041    0.0495 C.ar      1 <0>         0.2051
     12 N2          0.0100   -4.9428   -1.1301 N.pl3     1 <0>        -0.6830
     13 C11         1.2761   -5.3417   -1.7641 C.3       1 <0>         0.1133
     14 C12         1.2238   -4.9473   -3.2438 C.3       1 <0>        -0.0251
     15 N3          0.0263   -5.5297   -3.8626 N.4       1 <0>        -0.3836
     16 C13        -1.1805   -4.9526   -3.2570 C.3       1 <0>        -0.0322
     17 C14        -1.2473   -5.3521   -1.7749 C.3       1 <0>         0.1142
     18 C15         0.0336   -5.2439   -5.3035 C.3       1 <0>        -0.0083
     19 C16        -1.1461   -5.9543   -5.9703 C.3       1 <0>        -0.0958
     20 C17        -1.1386   -5.6610   -7.4485 C.ar      1 <0>        -0.0824
     21 C18        -1.8170   -4.5596   -7.9377 C.ar      1 <0>        -0.1409
     22 C19        -1.8126   -4.2871   -9.2931 C.ar      1 <0>        -0.0796
     23 C20        -1.1300   -5.1148  -10.1632 C.ar      1 <0>        -0.1415
     24 C21        -0.4479   -6.2214   -9.6753 C.ar      1 <0>         0.2063
     25 C22        -0.4497   -6.4892   -8.3125 C.ar      1 <0>        -0.1564
     26 N4          0.2445   -7.0619  -10.5542 N.am      1 <0>        -0.5752
     27 C23         1.0949   -8.1943  -10.1579 C.3       1 <0>         0.0862
     28 C24         1.6017   -8.7621  -11.4979 C.3       1 <0>         0.0880
     29 N5          0.9830   -7.8894  -12.5069 N.am      1 <0>        -0.7302
     30 C25         0.2334   -6.9663  -11.8902 C.2       1 <0>         0.6992
     31 O1         -0.3969   -6.1161  -12.4888 O.2       1 <0>        -0.5578
     32 H1          0.9944    1.8066    0.0650 H         1 <0>         0.1292
     33 H2         -0.5487    1.8085   -0.8223 H         1 <0>         0.1262
     34 H3         -0.5455    1.7876    0.9576 H         1 <0>         0.1073
     35 H4         -0.0165   -0.1684   -2.1002 H         1 <0>         0.1869
     36 H5         -0.0019   -2.6302   -2.1547 H         1 <0>         0.1595
     37 H6         -0.0198   -2.2006    3.3707 H         1 <0>         0.1627
     38 H7         -0.0048   -4.6322    3.4007 H         1 <0>         0.1641
     39 H8          0.0096   -5.9228    1.3114 H         1 <0>         0.1565
     40 H9          2.1065   -4.8299   -1.2777 H         1 <0>         0.1196
     41 H10         1.4054   -6.4205   -1.6769 H         1 <0>         0.0952
     42 H11         1.1855   -3.8614   -3.3293 H         1 <0>         0.1261
     43 H12         2.1133   -5.3208   -3.7511 H         1 <0>         0.1471
     44 H13        -1.1461   -3.8665   -3.3421 H         1 <0>         0.1272
     45 H14        -2.0627   -5.3301   -3.7741 H         1 <0>         0.1488
     46 H15        -1.3685   -6.4320   -1.6889 H         1 <0>         0.0958
     47 H16        -2.0861   -4.8472   -1.2958 H         1 <0>         0.1195
     48 H17        -0.0535   -4.1688   -5.4611 H         1 <0>         0.1321
     49 H18         0.9665   -5.6007   -5.7400 H         1 <0>         0.1368
     50 H19        -1.0590   -7.0293   -5.8127 H         1 <0>         0.0966
     51 H20        -2.0789   -5.5974   -5.5338 H         1 <0>         0.0955
     52 H21        -2.3517   -3.9111   -7.2594 H         1 <0>         0.1224
     53 H22        -2.3436   -3.4264   -9.6721 H         1 <0>         0.1347
     54 H23        -1.1272   -4.9017  -11.2220 H         1 <0>         0.1647
     55 H24         0.0839   -7.3464   -7.9293 H         1 <0>         0.1263
     56 H25         1.9301   -7.8505   -9.5478 H         1 <0>         0.0912
     57 H26         0.5107   -8.9423   -9.6219 H         1 <0>         0.0923
     58 H27         2.6885   -8.7002  -11.5531 H         1 <0>         0.0940
     59 H28         1.2691   -9.7921  -11.6273 H         1 <0>         0.0943
     60 H29         1.0964   -7.9716  -13.4667 H         1 <0>         0.4403
     61 H30         0.0277   -6.5286   -3.7203 H         1 <0>         0.4274
     62 H31        -0.0190   -0.2237    2.0152 H         1 <0>         0.4506
@<TRIPOS>BOND
     1    1    2 1
     2    1   32 1
     3    1   33 1
     4    1   34 1
     5    2    7 ar
     6    2    3 ar
     7    3    4 ar
     8    3   35 1
     9    4    5 ar
    10    4   36 1
    11    5   11 ar
    12    5    6 ar
    13    6    7 ar
    14    6    8 ar
    15    7   62 1
    16    8    9 ar
    17    8   37 1
    18    9   10 ar
    19    9   38 1
    20   10   11 ar
    21   10   39 1
    22   11   12 1
    23   12   17 1
    24   12   13 1
    25   13   14 1
    26   13   40 1
    27   13   41 1
    28   14   15 1
    29   14   42 1
    30   14   43 1
    31   15   16 1
    32   15   18 1
    33   15   61 1
    34   16   17 1
    35   16   44 1
    36   16   45 1
    37   17   46 1
    38   17   47 1
    39   18   19 1
    40   18   48 1
    41   18   49 1
    42   19   20 1
    43   19   50 1
    44   19   51 1
    45   20   25 ar
    46   20   21 ar
    47   21   22 ar
    48   21   52 1
    49   22   23 ar
    50   22   53 1
    51   23   24 ar
    52   23   54 1
    53   24   25 ar
    54   24   26 1
    55   25   55 1
    56   26   30 am
    57   26   27 1
    58   27   28 1
    59   27   56 1
    60   27   57 1
    61   28   29 1
    62   28   58 1
    63   28   59 1
    64   29   30 am
    65   29   60 1
    66   30   31 2
@<TRIPOS>MOLECULE
ZINC00347781
   35    37     0     0     0
SMALL
USER_CHARGES
2-(methylBLAHyl)ethanamine
@<TRIPOS>ATOM
      1 C1          1.7411   -1.8531   -0.0162 C.3       1 <0>        -0.1052
      2 C2          1.2936   -0.4141   -0.0086 C.2       1 <0>         0.1245
      3 C3          2.1238    0.6549   -0.0109 C.2       1 <0>        -0.2175
      4 C4          1.2901    1.8572   -0.0003 C.ar      1 <0>        -0.0818
      5 C5          1.4732    3.2422    0.0020 C.ar      1 <0>        -0.0893
      6 C6          0.3800    4.0671    0.0147 C.ar      1 <0>        -0.1266
      7 C7         -0.9238    3.5709    0.0265 C.ar      1 <0>        -0.0972
      8 C8         -1.1286    2.2191    0.0300 C.ar      1 <0>        -0.0818
      9 C9         -0.0167    1.3810    0.0096 C.ar      1 <0>         0.0729
     10 N1          0.0021   -0.0041    0.0020 N.pl3     1 <0>        -0.4737
     11 C10        -1.2747   -0.7301    0.0037 C.3       1 <0>         0.1103
     12 C11        -2.3445    0.1615   -0.6333 C.3       1 <0>        -0.1348
     13 C12        -2.4644    1.5253    0.0543 C.3       1 <0>        -0.0831
     14 C13         3.6302    0.6142   -0.0227 C.3       1 <0>        -0.0575
     15 C14         4.1288    0.6059   -1.4691 C.3       1 <0>        -0.0041
     16 H1          1.8416   -2.1969   -1.0456 H         1 <0>         0.0808
     17 H2          2.7026   -1.9372    0.4905 H         1 <0>         0.0847
     18 H3          1.0030   -2.4659    0.5012 H         1 <0>         0.0761
     19 H4          2.4694    3.6593   -0.0057 H         1 <0>         0.1189
     20 H5          0.5321    5.1363    0.0153 H         1 <0>         0.1247
     21 H6         -1.7644    4.2489    0.0363 H         1 <0>         0.1316
     22 H7         -1.1725   -1.6522   -0.5684 H         1 <0>         0.0939
     23 H8         -1.5629   -0.9618    1.0291 H         1 <0>         0.0848
     24 H9         -3.3069   -0.3471   -0.5774 H         1 <0>         0.0956
     25 H10        -2.0888    0.3167   -1.6815 H         1 <0>         0.0729
     26 H11        -2.7819    1.3845    1.0875 H         1 <0>         0.0833
     27 H12        -3.1996    2.1341   -0.4719 H         1 <0>         0.0888
     28 H13         4.0214    1.4920    0.4915 H         1 <0>         0.0914
     29 H14         3.9733   -0.2873    0.4850 H         1 <0>         0.0882
     30 H15         3.7376   -0.2719   -1.9833 H         1 <0>         0.1287
     31 H16         3.7857    1.5074   -1.9768 H         1 <0>         0.1347
     32 H17         5.9514    0.5601   -2.4254 H         1 <0>         0.4390
     33 H18         5.9839    1.3355   -0.9545 H         1 <0>         0.4368
     34 N2          5.6011    0.5441   -1.4690 N.4       1 <0>        -0.6478
     35 H19         5.9022   -0.3270   -1.0165 H         1 <0>         0.4378
@<TRIPOS>BOND
     1    1    2 1
     2    1   16 1
     3    1   17 1
     4    1   18 1
     5    2   10 1
     6    2    3 2
     7    3    4 1
     8    3   14 1
     9    4    9 ar
    10    4    5 ar
    11    5    6 ar
    12    5   19 1
    13    6    7 ar
    14    6   20 1
    15    7    8 ar
    16    7   21 1
    17    8   13 1
    18    8    9 ar
    19    9   10 1
    20   10   11 1
    21   11   12 1
    22   11   22 1
    23   11   23 1
    24   12   13 1
    25   12   24 1
    26   12   25 1
    27   13   26 1
    28   13   27 1
    29   14   15 1
    30   14   28 1
    31   14   29 1
    32   15   30 1
    33   15   31 1
    34   15   34 1
    35   32   34 1
    36   33   34 1
    37   34   35 1
@<TRIPOS>MOLECULE
ZINC22014599
   32    34     0     0     0
SMALL
USER_CHARGES
2-BLAHylethanamine
@<TRIPOS>ATOM
      1 C1          1.1717    2.0943    0.0021 C.ar      1 <0>        -0.1308
      2 C2         -0.0165    1.3656    0.0096 C.ar      1 <0>        -0.0974
      3 C3          0.0021   -0.0041    0.0020 C.ar      1 <0>        -0.0822
      4 C4          1.2603   -0.6010   -0.0119 C.ar      1 <0>         0.0722
      5 C5          2.4661    0.1165   -0.0210 C.ar      1 <0>        -0.0886
      6 C6          2.4198    1.5136   -0.0132 C.ar      1 <0>        -0.0864
      7 C7          3.5004   -0.8998   -0.0364 C.2       1 <0>        -0.2118
      8 C8          2.8816   -2.1080   -0.0342 C.2       1 <0>         0.0839
      9 N1          1.5311   -1.9467   -0.0180 N.pl3     1 <0>        -0.4722
     10 C9          0.4238   -2.9124   -0.0062 C.3       1 <0>         0.1095
     11 C10        -0.7872   -2.2558    0.6685 C.3       1 <0>        -0.1361
     12 C11        -1.1779   -0.9303    0.0048 C.3       1 <0>        -0.0838
     13 C12         4.9880   -0.6590   -0.0511 C.3       1 <0>        -0.0579
     14 C13         5.4866   -0.4598    1.3816 C.3       1 <0>        -0.0013
     15 N2          6.9367   -0.2251    1.3672 N.4       1 <0>        -0.6878
     16 H1          1.1099    3.1725    0.0090 H         1 <0>         0.1206
     17 H2         -0.9624    1.8868    0.0168 H         1 <0>         0.1280
     18 H3          3.3207    2.1093   -0.0194 H         1 <0>         0.1252
     19 H4          3.3891   -3.0613   -0.0433 H         1 <0>         0.1660
     20 H5          0.1714   -3.1935   -1.0393 H         1 <0>         0.0877
     21 H6          0.7255   -3.8094    0.5545 H         1 <0>         0.0965
     22 H7         -1.6518   -2.9332    0.6094 H         1 <0>         0.0978
     23 H8         -0.5530   -2.0514    1.7237 H         1 <0>         0.0750
     24 H9         -2.0044   -0.4695    0.5657 H         1 <0>         0.0903
     25 H10        -1.4980   -1.1195   -1.0304 H         1 <0>         0.0845
     26 H11         5.4954   -1.5263   -0.4987 H         1 <0>         0.0878
     27 H12         5.2080    0.2408   -0.6443 H         1 <0>         0.0897
     28 H13         4.9792    0.4075    1.8291 H         1 <0>         0.1277
     29 H14         5.2666   -1.3596    1.9748 H         1 <0>         0.1259
     30 H15         7.2952   -0.0819    2.3972 H         1 <0>         0.4582
     31 H16         7.1566    0.6747    0.7740 H         1 <0>         0.4553
     32 H17         7.4441   -1.0924    0.9196 H         1 <0>         0.4544
@<TRIPOS>BOND
     1    1    6 ar
     2    1    2 ar
     3    1   16 1
     4    2    3 ar
     5    2   17 1
     6    3   12 1
     7    3    4 ar
     8    4    9 1
     9    4    5 ar
    10    5    6 ar
    11    5    7 1
    12    6   18 1
    13    7    8 2
    14    7   13 1
    15    8    9 1
    16    8   19 1
    17    9   10 1
    18   10   11 1
    19   10   20 1
    20   10   21 1
    21   11   12 1
    22   11   22 1
    23   11   23 1
    24   12   24 1
    25   12   25 1
    26   13   14 1
    27   13   26 1
    28   13   27 1
    29   14   15 1
    30   14   28 1
    31   14   29 1
    32   15   30 1
    33   15   31 1
    34   15   32 1
@<TRIPOS>MOLECULE
ZINC03775140
   62    64     0     0     0
SMALL
USER_CHARGES

@<TRIPOS>ATOM
      1 C1         -0.0173    1.4248    0.0099 C.3       1 <0>         0.0171
      2 O1          0.0021   -0.0041    0.0020 O.3       1 <0>        -0.2760
      3 C2          0.6048   -0.6061   -1.0540 C.ar      1 <0>         0.2490
      4 C3          1.1714    0.1577   -2.0595 C.ar      1 <0>        -0.2968
      5 C4          1.7875   -0.4643   -3.1379 C.ar      1 <0>         0.3045
      6 C5          1.8368   -1.8562   -3.2112 C.ar      1 <0>        -0.1599
      7 C6          1.2804   -2.6188   -2.2247 C.ar      1 <0>         0.0104
      8 C7          0.6619   -2.0064   -1.1291 C.ar      1 <0>        -0.2378
      9 C8          0.0677   -2.8282   -0.0619 C.2       1 <0>         0.5777
     10 O2         -0.4739   -2.2937    0.8871 O.2       1 <0>        -0.5075
     11 N1          0.1238   -4.1727   -0.1363 N.am      1 <0>        -0.7330
     12 C9         -0.4675   -4.9905    0.9257 C.3       1 <0>         0.1404
     13 H1         -1.3642   -4.5012    1.3060 H         1 <0>         0.1248
     14 C10         0.5437   -5.1622    2.0629 C.3       1 <0>        -0.1546
     15 C11         1.7671   -5.9184    1.5404 C.3       1 <0>        -0.0167
     16 N2          1.3566   -7.2378    1.0453 N.4       1 <0>        -0.3759
     17 C12         0.4423   -7.0806   -0.0921 C.3       1 <0>        -0.0388
     18 C13        -0.8339   -6.3685    0.3670 C.3       1 <0>         0.0659
     19 H2         -1.3203   -6.9585    1.1438 H         1 <0>         0.1015
     20 O3         -1.7219   -6.2131   -0.7418 O.3       1 <0>        -0.3502
     21 C14        -2.6322   -7.3011   -0.9143 C.3       1 <0>         0.0179
     22 C15         2.5438   -7.9895    0.6171 C.3       1 <0>        -0.0062
     23 C16         3.4343   -8.2703    1.8292 C.3       1 <0>        -0.1507
     24 C17         4.6708   -9.0533    1.3832 C.3       1 <0>         0.0614
     25 O4          5.5024   -9.3155    2.5152 O.3       1 <0>        -0.3099
     26 C18         6.6507  -10.0076    2.2904 C.ar      1 <0>         0.1104
     27 C19         6.9722  -10.4203    1.0058 C.ar      1 <0>        -0.1786
     28 C20         8.1394  -11.1237    0.7787 C.ar      1 <0>        -0.1136
     29 C21         8.9878  -11.4170    1.8328 C.ar      1 <0>         0.0730
     30 C22         8.6679  -11.0061    3.1156 C.ar      1 <0>        -0.1109
     31 C23         7.5046  -10.2969    3.3445 C.ar      1 <0>        -0.1156
     32 F1         10.1287  -12.1053    1.6094 F         1 <0>        -0.1339
     33 Cl1         2.6089   -2.6229   -4.5639 Cl        1 <0>        -0.0623
     34 N3          2.3569    0.3038   -4.1485 N.pl3     1 <0>        -0.8495
     35 H3          1.0053    1.8021    0.0021 H         1 <0>         0.0609
     36 H4         -0.5445    1.7859   -0.8732 H         1 <0>         0.0614
     37 H5         -0.5275    1.7763    0.9067 H         1 <0>         0.1085
     38 H6          1.1342    1.2357   -2.0059 H         1 <0>         0.1464
     39 H7          1.3215   -3.6961   -2.2880 H         1 <0>         0.1333
     40 H8          0.5557   -4.5989   -0.8931 H         1 <0>         0.3942
     41 H9          0.8503   -4.1821    2.4284 H         1 <0>         0.1283
     42 H10         0.0859   -5.7273    2.8748 H         1 <0>         0.1026
     43 H11         2.2242   -5.3523    0.7288 H         1 <0>         0.1317
     44 H12         2.4891   -6.0421    2.3475 H         1 <0>         0.1399
     45 H13         0.9276   -6.4898   -0.8690 H         1 <0>         0.1341
     46 H14         0.1862   -8.0624   -0.4903 H         1 <0>         0.1380
     47 H15        -2.0715   -8.2215   -1.0778 H         1 <0>         0.0481
     48 H16        -3.2481   -7.4047   -0.0210 H         1 <0>         0.0566
     49 H17        -3.2712   -7.1071   -1.7758 H         1 <0>         0.1042
     50 H18         2.2339   -8.9329    0.1676 H         1 <0>         0.1368
     51 H19         3.1003   -7.4039   -0.1147 H         1 <0>         0.1356
     52 H20         3.7442   -7.3269    2.2786 H         1 <0>         0.1012
     53 H21         2.8778   -8.8559    2.5610 H         1 <0>         0.1013
     54 H22         4.3608   -9.9967    0.9337 H         1 <0>         0.0740
     55 H23         5.2272   -8.4676    0.6514 H         1 <0>         0.0740
     56 H24         6.3103  -10.1922    0.1835 H         1 <0>         0.1353
     57 H25         8.3900  -11.4451   -0.2214 H         1 <0>         0.1422
     58 H26         9.3304  -11.2359    3.9370 H         1 <0>         0.1482
     59 H27         7.2577   -9.9722    4.3445 H         1 <0>         0.1439
     60 H28         2.3233    1.2719   -4.0992 H         1 <0>         0.4097
     61 H29         2.7876   -0.1289   -4.9023 H         1 <0>         0.4089
     62 H30         0.8896   -7.7426    1.7837 H         1 <0>         0.4252
@<TRIPOS>BOND
     1    1    2 1
     2    1   35 1
     3    1   36 1
     4    1   37 1
     5    2    3 1
     6    3    8 ar
     7    3    4 ar
     8    4    5 ar
     9    4   38 1
    10    5    6 ar
    11    5   34 1
    12    6    7 ar
    13    6   33 1
    14    7    8 ar
    15    7   39 1
    16    8    9 1
    17    9   10 2
    18    9   11 am
    19   11   12 1
    20   11   40 1
    21   12   13 1
    22   12   18 1
    23   12   14 1
    24   14   15 1
    25   14   41 1
    26   14   42 1
    27   15   16 1
    28   15   43 1
    29   15   44 1
    30   16   17 1
    31   16   22 1
    32   16   62 1
    33   17   18 1
    34   17   45 1
    35   17   46 1
    36   18   19 1
    37   18   20 1
    38   20   21 1
    39   21   47 1
    40   21   48 1
    41   21   49 1
    42   22   23 1
    43   22   50 1
    44   22   51 1
    45   23   24 1
    46   23   52 1
    47   23   53 1
    48   24   25 1
    49   24   54 1
    50   24   55 1
    51   25   26 1
    52   26   31 ar
    53   26   27 ar
    54   27   28 ar
    55   27   56 1
    56   28   29 ar
    57   28   57 1
    58   29   30 ar
    59   29   32 1
    60   30   31 ar
    61   30   58 1
    62   31   59 1
    63   34   60 1
    64   34   61 1
@<TRIPOS>MOLECULE
ZINC03830564
   62    64     0     0     0
SMALL
USER_CHARGES

@<TRIPOS>ATOM
      1 C1         -0.0173    1.4248    0.0099 C.3       1 <0>         0.0173
      2 O1          0.0021   -0.0041    0.0020 O.3       1 <0>        -0.2768
      3 C2          0.6048   -0.6061   -1.0540 C.ar      1 <0>         0.2482
      4 C3          1.1714    0.1577   -2.0595 C.ar      1 <0>        -0.2974
      5 C4          1.7875   -0.4643   -3.1379 C.ar      1 <0>         0.3044
      6 C5          1.8368   -1.8562   -3.2112 C.ar      1 <0>        -0.1594
      7 C6          1.2804   -2.6188   -2.2247 C.ar      1 <0>         0.0124
      8 C7          0.6619   -2.0064   -1.1291 C.ar      1 <0>        -0.2376
      9 C8          0.0677   -2.8282   -0.0619 C.2       1 <0>         0.5803
     10 O2         -0.4739   -2.2937    0.8871 O.2       1 <0>        -0.5144
     11 N1          0.1238   -4.1727   -0.1363 N.am      1 <0>        -0.7279
     12 C9         -0.4675   -4.9905    0.9257 C.3       1 <0>         0.1426
     13 H1         -0.3382   -4.4904    1.8855 H         1 <0>         0.1147
     14 C10        -1.9606   -5.1884    0.6484 C.3       1 <0>        -0.1574
     15 C11        -2.5547   -6.1082    1.7173 C.3       1 <0>        -0.0121
     16 N2         -1.8729   -7.4076    1.6837 N.4       1 <0>        -0.3780
     17 C12        -0.4544   -7.2346    2.0193 C.3       1 <0>        -0.0308
     18 C13         0.2219   -6.3574    0.9634 C.3       1 <0>         0.0634
     19 H2          0.1375   -6.8346   -0.0130 H         1 <0>         0.0897
     20 O3          1.6015   -6.1871    1.2946 O.3       1 <0>        -0.3498
     21 C14         2.4612   -7.1803    0.7321 C.3       1 <0>         0.0175
     22 C15        -2.4981   -8.3123    2.6576 C.3       1 <0>        -0.0056
     23 C16        -3.9400   -8.5999    2.2341 C.3       1 <0>        -0.1510
     24 C17        -4.5912   -9.5422    3.2484 C.3       1 <0>         0.0612
     25 O4         -5.9378   -9.8107    2.8528 O.3       1 <0>        -0.3101
     26 C18        -6.6627  -10.6375    3.6523 C.ar      1 <0>         0.1103
     27 C19        -6.0908  -11.1740    4.7964 C.ar      1 <0>        -0.1786
     28 C20        -6.8286  -12.0140    5.6079 C.ar      1 <0>        -0.1136
     29 C21        -8.1381  -12.3209    5.2793 C.ar      1 <0>         0.0729
     30 C22        -8.7100  -11.7865    4.1373 C.ar      1 <0>        -0.1110
     31 C23        -7.9767  -10.9409    3.3276 C.ar      1 <0>        -0.1157
     32 F1         -8.8583  -13.1429    6.0736 F         1 <0>        -0.1339
     33 Cl1         2.6089   -2.6229   -4.5639 Cl        1 <0>        -0.0612
     34 N3          2.3569    0.3038   -4.1485 N.pl3     1 <0>        -0.8498
     35 H3          1.0053    1.8021    0.0021 H         1 <0>         0.0610
     36 H4         -0.5445    1.7859   -0.8732 H         1 <0>         0.0608
     37 H5         -0.5275    1.7763    0.9067 H         1 <0>         0.1075
     38 H6          1.1342    1.2357   -2.0059 H         1 <0>         0.1460
     39 H7          1.3215   -3.6961   -2.2880 H         1 <0>         0.1366
     40 H8          0.5557   -4.5989   -0.8931 H         1 <0>         0.4011
     41 H9         -2.4669   -4.2235    0.6762 H         1 <0>         0.1280
     42 H10        -2.0914   -5.6407   -0.3346 H         1 <0>         0.0936
     43 H11        -2.4236   -5.6548    2.6998 H         1 <0>         0.1373
     44 H12        -3.6177   -6.2510    1.5230 H         1 <0>         0.1408
     45 H13        -0.3681   -6.7573    2.9954 H         1 <0>         0.1434
     46 H14         0.0331   -8.2090    2.0480 H         1 <0>         0.1370
     47 H15         2.1631   -8.1650    1.0923 H         1 <0>         0.0484
     48 H16         2.3857   -7.1529   -0.3549 H         1 <0>         0.0550
     49 H17         3.4905   -6.9808    1.0300 H         1 <0>         0.1046
     50 H18        -1.9380   -9.2465    2.6975 H         1 <0>         0.1365
     51 H19        -2.4951   -7.8445    3.6421 H         1 <0>         0.1371
     52 H20        -4.5001   -7.6657    2.1942 H         1 <0>         0.1015
     53 H21        -3.9430   -9.0676    1.2495 H         1 <0>         0.1005
     54 H22        -4.0310  -10.4764    3.2882 H         1 <0>         0.0740
     55 H23        -4.5881   -9.0744    4.2329 H         1 <0>         0.0745
     56 H24        -5.0691  -10.9353    5.0526 H         1 <0>         0.1356
     57 H25        -6.3836  -12.4318    6.4989 H         1 <0>         0.1423
     58 H26        -9.7315  -12.0270    3.8820 H         1 <0>         0.1482
     59 H27        -8.4246  -10.5203    2.4394 H         1 <0>         0.1438
     60 H28         2.3233    1.2719   -4.0992 H         1 <0>         0.4092
     61 H29         2.7876   -0.1289   -4.9023 H         1 <0>         0.4089
     62 H30        -1.9528   -7.8044    0.7595 H         1 <0>         0.4239
@<TRIPOS>BOND
     1    1    2 1
     2    1   35 1
     3    1   36 1
     4    1   37 1
     5    2    3 1
     6    3    8 ar
     7    3    4 ar
     8    4    5 ar
     9    4   38 1
    10    5    6 ar
    11    5   34 1
    12    6    7 ar
    13    6   33 1
    14    7    8 ar
    15    7   39 1
    16    8    9 1
    17    9   10 2
    18    9   11 am
    19   11   12 1
    20   11   40 1
    21   12   13 1
    22   12   18 1
    23   12   14 1
    24   14   15 1
    25   14   41 1
    26   14   42 1
    27   15   16 1
    28   15   43 1
    29   15   44 1
    30   16   17 1
    31   16   22 1
    32   16   62 1
    33   17   18 1
    34   17   45 1
    35   17   46 1
    36   18   19 1
    37   18   20 1
    38   20   21 1
    39   21   47 1
    40   21   48 1
    41   21   49 1
    42   22   23 1
    43   22   50 1
    44   22   51 1
    45   23   24 1
    46   23   52 1
    47   23   53 1
    48   24   25 1
    49   24   54 1
    50   24   55 1
    51   25   26 1
    52   26   31 ar
    53   26   27 ar
    54   27   28 ar
    55   27   56 1
    56   28   29 ar
    57   28   57 1
    58   29   30 ar
    59   29   32 1
    60   30   31 ar
    61   30   58 1
    62   31   59 1
    63   34   60 1
    64   34   61 1
@<TRIPOS>MOLECULE
ZINC00597434
   59    62     0     0     0
SMALL
USER_CHARGES

@<TRIPOS>ATOM
      1 C1          0.2574    1.3680   -0.2592 C.3       1 <0>        -0.1918
      2 C2          0.2032   -0.1599   -0.2023 C.3       1 <0>        -0.0116
      3 N1         -1.1980   -0.5989   -0.1585 N.4       1 <0>        -0.3867
      4 C3         -1.8662   -0.2228   -1.4107 C.3       1 <0>        -0.0293
      5 C4         -3.3543   -0.5770   -1.3207 C.3       1 <0>         0.0945
      6 N2         -3.4743   -2.0012   -0.9725 N.pl3     1 <0>        -0.6218
      7 C5         -2.7047   -2.5010    0.1773 C.3       1 <0>         0.0806
      8 C6         -1.2473   -2.0560    0.0166 C.3       1 <0>        -0.0210
      9 C7         -4.2922   -2.8505   -1.7086 C.ar      1 <0>         0.4501
     10 C8         -5.1103   -2.3435   -2.7084 C.ar      1 <0>        -0.1990
     11 C9         -5.9080   -3.2206   -3.4287 C.ar      1 <0>         0.1244
     12 C10        -5.8855   -4.6142   -3.1438 C.ar      1 <0>        -0.0726
     13 C11        -5.0617   -5.0181   -2.1292 C.ar      1 <0>         0.1899
     14 N3         -4.3030   -4.1434   -1.4640 N.ar      1 <0>        -0.5088
     15 C12        -4.9193   -6.4364   -1.6314 C.3       1 <0>        -0.1009
     16 C13        -4.1126   -7.2940   -2.5849 C.3       1 <0>        -0.1246
     17 C14        -4.2386   -6.8700   -4.0397 C.3       1 <0>        -0.1261
     18 C15        -5.5223   -7.5060   -4.5235 C.3       1 <0>        -0.1320
     19 C16        -6.7596   -6.9160   -3.8539 C.3       1 <0>        -0.1306
     20 C17        -6.7980   -5.4109   -4.0420 C.3       1 <0>        -0.0856
     21 C18        -6.7853   -2.6756   -4.4937 C.ar      1 <0>        -0.1284
     22 C19        -8.1600   -2.9006   -4.4499 C.ar      1 <0>        -0.0533
     23 C20        -8.9722   -2.3920   -5.4423 C.ar      1 <0>        -0.1484
     24 C21        -8.4230   -1.6588   -6.4819 C.ar      1 <0>         0.1452
     25 C22        -7.0567   -1.4330   -6.5296 C.ar      1 <0>        -0.1513
     26 C23        -6.2379   -1.9323   -5.5378 C.ar      1 <0>        -0.0539
     27 F1         -9.2219   -1.1629   -7.4519 F         1 <0>        -0.1191
     28 H1          1.2971    1.6938   -0.2917 H         1 <0>         0.1142
     29 H2         -0.2607    1.7169   -1.1525 H         1 <0>         0.0813
     30 H3         -0.2255    1.7820    0.6260 H         1 <0>         0.0847
     31 H4          0.6861   -0.5739   -1.0875 H         1 <0>         0.1329
     32 H5          0.7214   -0.5088    0.6910 H         1 <0>         0.1384
     33 H6         -1.7571    0.8495   -1.5730 H         1 <0>         0.1603
     34 H7         -1.4133   -0.7642   -2.2412 H         1 <0>         0.1403
     35 H8         -3.8293    0.0299   -0.5499 H         1 <0>         0.1187
     36 H9         -3.8333   -0.3935   -2.2825 H         1 <0>         0.1406
     37 H10        -3.1141   -2.0885    1.0994 H         1 <0>         0.1232
     38 H11        -2.7542   -3.5895    0.2059 H         1 <0>         0.1173
     39 H12        -0.8131   -2.5419   -0.8571 H         1 <0>         0.1393
     40 H13        -0.6821   -2.3345    0.9060 H         1 <0>         0.1583
     41 H14        -5.1273   -1.2848   -2.9232 H         1 <0>         0.1812
     42 H15        -4.3910   -6.4065   -0.6655 H         1 <0>         0.0893
     43 H16        -5.8951   -6.8735   -1.4467 H         1 <0>         0.1276
     44 H17        -3.0580   -7.2474   -2.2957 H         1 <0>         0.0680
     45 H18        -4.4394   -8.3335   -2.4900 H         1 <0>         0.0964
     46 H19        -4.2700   -5.7890   -4.1410 H         1 <0>         0.0604
     47 H20        -3.3912   -7.2605   -4.6162 H         1 <0>         0.0807
     48 H21        -5.6027   -7.3643   -5.6038 H         1 <0>         0.0684
     49 H22        -5.4864   -8.5786   -4.3199 H         1 <0>         0.0765
     50 H23        -7.6503   -7.3469   -4.3361 H         1 <0>         0.0859
     51 H24        -6.7949   -7.1783   -2.8050 H         1 <0>         0.0748
     52 H25        -7.8279   -5.0798   -3.8800 H         1 <0>         0.1033
     53 H26        -6.5329   -5.2062   -5.0846 H         1 <0>         0.1033
     54 H27        -8.5888   -3.4726   -3.6403 H         1 <0>         0.1437
     55 H28       -10.0376   -2.5659   -5.4091 H         1 <0>         0.1536
     56 H29        -6.6326   -0.8616   -7.3420 H         1 <0>         0.1516
     57 H30        -5.1737   -1.7518   -5.5732 H         1 <0>         0.1380
     58 H31        -3.7269   -4.4852   -0.7611 H         1 <0>         0.4317
     59 H32        -1.6650   -0.1523    0.6165 H         1 <0>         0.4282
@<TRIPOS>BOND
     1    1    2 1
     2    1   28 1
     3    1   29 1
     4    1   30 1
     5    2    3 1
     6    2   31 1
     7    2   32 1
     8    3    8 1
     9    3    4 1
    10    3   59 1
    11    4    5 1
    12    4   33 1
    13    4   34 1
    14    5    6 1
    15    5   35 1
    16    5   36 1
    17    6    7 1
    18    6    9 1
    19    7    8 1
    20    7   37 1
    21    7   38 1
    22    8   39 1
    23    8   40 1
    24    9   14 ar
    25    9   10 ar
    26   10   11 ar
    27   10   41 1
    28   11   12 ar
    29   11   21 1
    30   12   20 1
    31   12   13 ar
    32   13   14 ar
    33   13   15 1
    34   14   58 1
    35   15   16 1
    36   15   42 1
    37   15   43 1
    38   16   17 1
    39   16   44 1
    40   16   45 1
    41   17   18 1
    42   17   46 1
    43   17   47 1
    44   18   19 1
    45   18   48 1
    46   18   49 1
    47   19   20 1
    48   19   50 1
    49   19   51 1
    50   20   52 1
    51   20   53 1
    52   21   26 ar
    53   21   22 ar
    54   22   23 ar
    55   22   54 1
    56   23   24 ar
    57   23   55 1
    58   24   25 ar
    59   24   27 1
    60   25   26 ar
    61   25   56 1
    62   26   57 1
@<TRIPOS>MOLECULE
ZINC00597434
   58    61     0     0     0
SMALL
USER_CHARGES

@<TRIPOS>ATOM
      1 C1          0.2525    1.3500   -0.2528 C.3       1 <0>        -0.1535
      2 C2          0.1978   -0.1779   -0.1946 C.3       1 <0>         0.0509
      3 N1         -1.2036   -0.6165   -0.1538 N.3       1 <0>        -0.5375
      4 C3         -1.8966   -0.2822   -1.4052 C.3       1 <0>         0.0318
      5 C4         -3.3904   -0.5892   -1.2557 C.3       1 <0>         0.1156
      6 N2         -3.5389   -1.9850   -0.8163 N.pl3     1 <0>        -0.5865
      7 C5         -2.7667   -2.4323    0.3528 C.3       1 <0>         0.1041
      8 C6         -1.2974   -2.0527    0.1400 C.3       1 <0>         0.0374
      9 C7         -4.3868   -2.8580   -1.4879 C.ar      1 <0>         0.4602
     10 C8         -5.2064   -2.3941   -2.5072 C.ar      1 <0>        -0.2027
     11 C9         -6.0345   -3.2944   -3.1614 C.ar      1 <0>         0.1090
     12 C10        -6.0411   -4.6677   -2.7905 C.ar      1 <0>        -0.0936
     13 C11        -5.2131   -5.0280   -1.7630 C.ar      1 <0>         0.1854
     14 N3         -4.4247   -4.1326   -1.1631 N.ar      1 <0>        -0.5203
     15 C12        -5.0973   -6.4157   -1.1796 C.3       1 <0>        -0.0985
     16 C13        -4.3245   -7.3504   -2.0876 C.3       1 <0>        -0.1227
     17 C14        -4.4606   -7.0145   -3.5644 C.3       1 <0>        -0.1274
     18 C15        -5.7656   -7.6476   -3.9916 C.3       1 <0>        -0.1279
     19 C16        -6.9791   -6.9871   -3.3448 C.3       1 <0>        -0.1287
     20 C17        -6.9845   -5.4960   -3.6259 C.3       1 <0>        -0.0777
     21 C18        -6.9134   -2.7952   -4.2474 C.ar      1 <0>        -0.1118
     22 C19        -8.2923   -2.9834   -4.1726 C.ar      1 <0>        -0.0571
     23 C20        -9.1059   -2.5176   -5.1847 C.ar      1 <0>        -0.1502
     24 C21        -8.5540   -1.8639   -6.2747 C.ar      1 <0>         0.1342
     25 C22        -7.1836   -1.6750   -6.3533 C.ar      1 <0>        -0.1509
     26 C23        -6.3632   -2.1317   -5.3425 C.ar      1 <0>        -0.0563
     27 F1         -9.3543   -1.4097   -7.2638 F         1 <0>        -0.1249
     28 H1          1.2923    1.6755   -0.2831 H         1 <0>         0.0678
     29 H2         -0.2634    1.6983   -1.1476 H         1 <0>         0.0556
     30 H3         -0.2324    1.7649    0.6309 H         1 <0>         0.0677
     31 H4          0.6827   -0.5927   -1.0783 H         1 <0>         0.0396
     32 H5          0.7137   -0.5261    0.7002 H         1 <0>         0.0833
     33 H6         -1.7631    0.7775   -1.6230 H         1 <0>         0.1094
     34 H7         -1.4829   -0.8763   -2.2200 H         1 <0>         0.0465
     35 H8         -3.8287    0.0771   -0.5127 H         1 <0>         0.1043
     36 H9         -3.8902   -0.4521   -2.2146 H         1 <0>         0.1025
     37 H10        -3.1450   -1.9432    1.2504 H         1 <0>         0.1096
     38 H11        -2.8540   -3.5138    0.4573 H         1 <0>         0.0792
     39 H12        -0.8920   -2.6223   -0.6963 H         1 <0>         0.0457
     40 H13        -0.7293   -2.2772    1.0428 H         1 <0>         0.1053
     41 H14        -5.2013   -1.3506   -2.7873 H         1 <0>         0.1785
     42 H15        -4.5551   -6.3389   -0.2240 H         1 <0>         0.0874
     43 H16        -6.0806   -6.8166   -0.9559 H         1 <0>         0.1216
     44 H17        -3.2652   -7.3117   -1.8149 H         1 <0>         0.0671
     45 H18        -4.6744   -8.3737   -1.9241 H         1 <0>         0.0911
     46 H19        -4.4679   -5.9414   -3.7325 H         1 <0>         0.0652
     47 H20        -3.6308   -7.4605   -4.1259 H         1 <0>         0.0772
     48 H21        -5.8577   -7.5713   -5.0776 H         1 <0>         0.0651
     49 H22        -5.7523   -8.7060   -3.7220 H         1 <0>         0.0720
     50 H23        -7.8864   -7.4251   -3.7882 H         1 <0>         0.0800
     51 H24        -7.0062   -7.1829   -2.2813 H         1 <0>         0.0740
     52 H25        -8.0040   -5.1304   -3.4722 H         1 <0>         0.0966
     53 H26        -6.7292   -5.3630   -4.6824 H         1 <0>         0.0962
     54 H27        -8.7232   -3.4934   -3.3238 H         1 <0>         0.1425
     55 H28       -10.1746   -2.6630   -5.1276 H         1 <0>         0.1495
     56 H29        -6.7574   -1.1656   -7.2049 H         1 <0>         0.1487
     57 H30        -5.2956   -1.9798   -5.4022 H         1 <0>         0.1391
     58 H31        -3.8472   -4.4441   -0.4475 H         1 <0>         0.4317
@<TRIPOS>BOND
     1    1    2 1
     2    1   28 1
     3    1   29 1
     4    1   30 1
     5    2    3 1
     6    2   31 1
     7    2   32 1
     8    3    8 1
     9    3    4 1
    10    4    5 1
    11    4   33 1
    12    4   34 1
    13    5    6 1
    14    5   35 1
    15    5   36 1
    16    6    7 1
    17    6    9 1
    18    7    8 1
    19    7   37 1
    20    7   38 1
    21    8   39 1
    22    8   40 1
    23    9   14 ar
    24    9   10 ar
    25   10   11 ar
    26   10   41 1
    27   11   12 ar
    28   11   21 1
    29   12   20 1
    30   12   13 ar
    31   13   14 ar
    32   13   15 1
    33   14   58 1
    34   15   16 1
    35   15   42 1
    36   15   43 1
    37   16   17 1
    38   16   44 1
    39   16   45 1
    40   17   18 1
    41   17   46 1
    42   17   47 1
    43   18   19 1
    44   18   48 1
    45   18   49 1
    46   19   20 1
    47   19   50 1
    48   19   51 1
    49   20   52 1
    50   20   53 1
    51   21   26 ar
    52   21   22 ar
    53   22   23 ar
    54   22   54 1
    55   23   24 ar
    56   23   55 1
    57   24   25 ar
    58   24   27 1
    59   25   26 ar
    60   25   56 1
    61   26   57 1
@<TRIPOS>MOLECULE
ZINC00597434
   58    61     0     0     0
SMALL
USER_CHARGES

@<TRIPOS>ATOM
      1 C1          0.4656    1.0973   -0.1713 C.3       1 <0>        -0.1891
      2 C2          0.2697   -0.4093    0.0090 C.3       1 <0>        -0.0108
      3 N1         -1.1632   -0.7273   -0.0502 N.4       1 <0>        -0.3837
      4 C3         -1.6769   -0.4162   -1.3901 C.3       1 <0>        -0.0263
      5 C4         -3.1926   -0.6388   -1.4194 C.3       1 <0>         0.1052
      6 N2         -3.4713   -2.0101   -0.9656 N.pl3     1 <0>        -0.6276
      7 C5         -2.8587   -2.4617    0.2933 C.3       1 <0>         0.1062
      8 C6         -1.3588   -2.1530    0.2417 C.3       1 <0>        -0.0213
      9 C7         -4.2907   -2.8550   -1.7052 C.ar      1 <0>         0.3996
     10 C8         -5.0287   -2.3595   -2.7712 C.ar      1 <0>        -0.2185
     11 C9         -5.8306   -3.2321   -3.4922 C.ar      1 <0>         0.0302
     12 C10        -5.8932   -4.6094   -3.1419 C.ar      1 <0>        -0.1257
     13 C11        -5.1444   -5.0017   -2.0666 C.ar      1 <0>         0.1959
     14 N3         -4.3793   -4.1319   -1.4022 N.ar      1 <0>        -0.5442
     15 C12        -5.0964   -6.3987   -1.4962 C.3       1 <0>        -0.0718
     16 C13        -4.2868   -7.3397   -2.3648 C.3       1 <0>        -0.1124
     17 C14        -4.3181   -6.9827   -3.8425 C.3       1 <0>        -0.1227
     18 C15        -5.6063   -7.5800   -4.3627 C.3       1 <0>        -0.1217
     19 C16        -6.8444   -6.8990   -3.7879 C.3       1 <0>        -0.1250
     20 C17        -6.7972   -5.4051   -4.0495 C.3       1 <0>        -0.0724
     21 C18        -6.6225   -2.6991   -4.6280 C.ar      1 <0>        -0.0747
     22 C19        -8.0072   -2.8555   -4.6487 C.ar      1 <0>        -0.0687
     23 C20        -8.7397   -2.3584   -5.7069 C.ar      1 <0>        -0.1500
     24 C21        -8.1005   -1.7049   -6.7482 C.ar      1 <0>         0.1134
     25 C22        -6.7240   -1.5476   -6.7318 C.ar      1 <0>        -0.1523
     26 C23        -5.9844   -2.0357   -5.6744 C.ar      1 <0>        -0.0717
     27 F1         -8.8216   -1.2200   -7.7827 F         1 <0>        -0.1325
     28 H1          1.5289    1.3333   -0.1274 H         1 <0>         0.1072
     29 H2          0.0653    1.4027   -1.1381 H         1 <0>         0.0800
     30 H3         -0.0578    1.6294    0.6231 H         1 <0>         0.0812
     31 H4          0.7931   -0.9414   -0.7854 H         1 <0>         0.1282
     32 H5          0.6700   -0.7146    0.9757 H         1 <0>         0.1319
     33 H6         -1.4576    0.6241   -1.6309 H         1 <0>         0.1435
     34 H7         -1.1997   -1.0673   -2.1226 H         1 <0>         0.1324
     35 H8         -3.6803    0.0735   -0.7539 H         1 <0>         0.0920
     36 H9         -3.5626   -0.5071   -2.4362 H         1 <0>         0.1256
     37 H10        -3.3128   -1.9335    1.1317 H         1 <0>         0.0852
     38 H11        -3.0080   -3.5353    0.4088 H         1 <0>         0.1379
     39 H12        -0.8912   -2.7516   -0.5401 H         1 <0>         0.1316
     40 H13        -0.9051   -2.3927    1.2034 H         1 <0>         0.1407
     41 H14        -4.9805   -1.3132   -3.0361 H         1 <0>         0.1323
     42 H15        -4.6140   -6.3438   -0.5073 H         1 <0>         0.0799
     43 H16        -6.1000   -6.7803   -1.3405 H         1 <0>         0.0871
     44 H17        -3.2468   -7.3287   -2.0230 H         1 <0>         0.0566
     45 H18        -4.6691   -8.3565   -2.2384 H         1 <0>         0.0724
     46 H19        -4.2903   -5.9078   -3.9960 H         1 <0>         0.0691
     47 H20        -3.4636   -7.4411   -4.3547 H         1 <0>         0.0640
     48 H21        -5.6249   -7.4889   -5.4512 H         1 <0>         0.0568
     49 H22        -5.6346   -8.6416   -4.1069 H         1 <0>         0.0644
     50 H23        -7.7304   -7.3105   -4.2949 H         1 <0>         0.0672
     51 H24        -6.9450   -7.1057   -2.7309 H         1 <0>         0.0732
     52 H25        -7.8160   -5.0173   -3.9594 H         1 <0>         0.0788
     53 H26        -6.4684   -5.2660   -5.0847 H         1 <0>         0.0768
     54 H27        -8.5060   -3.3654   -3.8378 H         1 <0>         0.1382
     55 H28        -9.8128   -2.4792   -5.7238 H         1 <0>         0.1431
     56 H29        -6.2297   -1.0382   -7.5459 H         1 <0>         0.1411
     57 H30        -4.9120   -1.9084   -5.6601 H         1 <0>         0.1318
     58 H31        -1.6577   -0.1743    0.6337 H         1 <0>         0.4223
@<TRIPOS>BOND
     1    1    2 1
     2    1   28 1
     3    1   29 1
     4    1   30 1
     5    2    3 1
     6    2   31 1
     7    2   32 1
     8    3    8 1
     9    3    4 1
    10    3   58 1
    11    4    5 1
    12    4   33 1
    13    4   34 1
    14    5    6 1
    15    5   35 1
    16    5   36 1
    17    6    7 1
    18    6    9 1
    19    7    8 1
    20    7   37 1
    21    7   38 1
    22    8   39 1
    23    8   40 1
    24    9   14 ar
    25    9   10 ar
    26   10   11 ar
    27   10   41 1
    28   11   12 ar
    29   11   21 1
    30   12   20 1
    31   12   13 ar
    32   13   14 ar
    33   13   15 1
    34   15   16 1
    35   15   42 1
    36   15   43 1
    37   16   17 1
    38   16   44 1
    39   16   45 1
    40   17   18 1
    41   17   46 1
    42   17   47 1
    43   18   19 1
    44   18   48 1
    45   18   49 1
    46   19   20 1
    47   19   50 1
    48   19   51 1
    49   20   52 1
    50   20   53 1
    51   21   26 ar
    52   21   22 ar
    53   22   23 ar
    54   22   54 1
    55   23   24 ar
    56   23   55 1
    57   24   25 ar
    58   24   27 1
    59   25   26 ar
    60   25   56 1
    61   26   57 1
@<TRIPOS>MOLECULE
ZINC52619107
   59    62     0     0     0
SMALL
USER_CHARGES

@<TRIPOS>ATOM
      1 C1         -0.0167    1.3800    0.0096 C.ar      1 <0>        -0.0718
      2 C2          1.1935    2.0589    0.0017 C.ar      1 <0>        -0.1708
      3 C3          2.3747    1.3394   -0.0134 C.ar      1 <0>         0.1057
      4 N1          2.3643    0.0223   -0.0208 N.ar      1 <0>        -0.4761
      5 C4          1.2291   -0.6644   -0.0137 C.ar      1 <0>         0.1591
      6 C5          0.0021   -0.0041    0.0020 C.ar      1 <0>        -0.1591
      7 C6          1.2664   -2.1468   -0.0230 C.ar      1 <0>        -0.0227
      8 C7          0.0760   -2.8740   -0.0213 C.ar      1 <0>        -0.1086
      9 C8          0.1095   -4.2506   -0.0295 C.ar      1 <0>        -0.0602
     10 C9          1.3360   -4.9187   -0.0400 C.ar      1 <0>        -0.1263
     11 C10         2.5274   -4.1897   -0.0421 C.ar      1 <0>        -0.0900
     12 C11         2.4917   -2.8132   -0.0392 C.ar      1 <0>        -0.0872
     13 C12         1.3732   -6.3961   -0.0483 C.2       1 <0>         0.5581
     14 O1          0.3360   -7.0302   -0.0460 O.2       1 <0>        -0.5332
     15 N2          2.5569   -7.0404   -0.0583 N.am      1 <0>        -0.7231
     16 C13         2.5937   -8.5049   -0.0666 C.3       1 <0>         0.1519
     17 C14         4.0267   -8.9713   -0.0771 C.2       1 <0>        -0.1829
     18 C15         4.4532   -9.7979    0.8454 C.2       1 <0>        -0.1138
     19 C16         5.8862  -10.2643    0.8349 C.3       1 <0>         0.0804
     20 N3          6.5056   -9.9726    2.1346 N.3       1 <0>        -0.5294
     21 C17         6.6037   -8.5239    2.3577 C.3       1 <0>         0.0395
     22 C18         7.0840   -8.2623    3.7892 C.3       1 <0>         0.1519
     23 N4          8.3309   -9.0111    4.0078 N.pl3     1 <0>        -0.6750
     24 C19         8.3497  -10.4437    3.6756 C.3       1 <0>         0.1521
     25 C20         7.8196  -10.6195    2.2486 C.3       1 <0>         0.0385
     26 C21         9.4675   -8.3781    4.5182 C.ar      1 <0>         0.1934
     27 C22         9.6818   -8.3321    5.8897 C.ar      1 <0>        -0.1091
     28 C23        10.8059   -7.7060    6.3917 C.ar      1 <0>        -0.0961
     29 C24        11.7187   -7.1246    5.5309 C.ar      1 <0>        -0.1045
     30 C25        11.5093   -7.1675    4.1636 C.ar      1 <0>        -0.0286
     31 C26        10.3887   -7.7984    3.6542 C.ar      1 <0>        -0.0428
     32 Cl1        10.1296   -7.8592    1.9388 Cl        1 <0>        -0.0438
     33 Cl2        12.6577   -6.4358    3.0868 Cl        1 <0>        -0.0489
     34 H1         -0.9522    1.9194    0.0259 H         1 <0>         0.1389
     35 H2          1.2130    3.1387    0.0070 H         1 <0>         0.1383
     36 H3          3.3183    1.8647   -0.0196 H         1 <0>         0.1604
     37 H4         -0.9212   -0.5643    0.0082 H         1 <0>         0.1395
     38 H5         -0.8722   -2.3571   -0.0132 H         1 <0>         0.1352
     39 H6         -0.8122   -4.8134   -0.0275 H         1 <0>         0.1417
     40 H7          3.4763   -4.7055   -0.0502 H         1 <0>         0.1287
     41 H8          3.4128   -2.2492   -0.0453 H         1 <0>         0.1423
     42 H9          3.3845   -6.5344   -0.0601 H         1 <0>         0.4011
     43 H10         2.0941   -8.8859    0.8241 H         1 <0>         0.0749
     44 H11         2.0843   -8.8762   -0.9558 H         1 <0>         0.0778
     45 H12         4.7020   -8.6241   -0.8451 H         1 <0>         0.1143
     46 H13         3.7779  -10.1451    1.6134 H         1 <0>         0.1204
     47 H14         5.9174  -11.3381    0.6504 H         1 <0>         0.0869
     48 H15         6.4318   -9.7443    0.0475 H         1 <0>         0.0387
     49 H16         7.3142   -8.0945    1.6514 H         1 <0>         0.0400
     50 H17         5.6249   -8.0666    2.2131 H         1 <0>         0.0812
     51 H18         7.2683   -7.1966    3.9245 H         1 <0>         0.0710
     52 H19         6.3261   -8.5984    4.4968 H         1 <0>         0.0626
     53 H20         9.3708  -10.8202    3.7358 H         1 <0>         0.0720
     54 H21         7.7135  -10.9895    4.3723 H         1 <0>         0.0634
     55 H22         7.7226  -11.6819    2.0249 H         1 <0>         0.0813
     56 H23         8.5132  -10.1608    1.5439 H         1 <0>         0.0409
     57 H24         8.9696   -8.7854    6.5633 H         1 <0>         0.1388
     58 H25        10.9721   -7.6701    7.4582 H         1 <0>         0.1404
     59 H26        12.5967   -6.6358    5.9265 H         1 <0>         0.1425
@<TRIPOS>BOND
     1    1    6 ar
     2    1    2 ar
     3    1   34 1
     4    2    3 ar
     5    2   35 1
     6    3    4 ar
     7    3   36 1
     8    4    5 ar
     9    5    6 ar
    10    5    7 1
    11    6   37 1
    12    7   12 ar
    13    7    8 ar
    14    8    9 ar
    15    8   38 1
    16    9   10 ar
    17    9   39 1
    18   10   11 ar
    19   10   13 1
    20   11   12 ar
    21   11   40 1
    22   12   41 1
    23   13   14 2
    24   13   15 am
    25   15   16 1
    26   15   42 1
    27   16   17 1
    28   16   43 1
    29   16   44 1
    30   17   18 2
    31   17   45 1
    32   18   19 1
    33   18   46 1
    34   19   20 1
    35   19   47 1
    36   19   48 1
    37   20   25 1
    38   20   21 1
    39   21   22 1
    40   21   49 1
    41   21   50 1
    42   22   23 1
    43   22   51 1
    44   22   52 1
    45   23   24 1
    46   23   26 1
    47   24   25 1
    48   24   53 1
    49   24   54 1
    50   25   55 1
    51   25   56 1
    52   26   31 ar
    53   26   27 ar
    54   27   28 ar
    55   27   57 1
    56   28   29 ar
    57   28   58 1
    58   29   30 ar
    59   29   59 1
    60   30   31 ar
    61   30   33 1
    62   31   32 1
@<TRIPOS>MOLECULE
ZINC28463701
   31    33     0     0     0
SMALL
USER_CHARGES

@<TRIPOS>ATOM
      1 C1         -0.0184    1.5028    0.0103 C.3       1 <0>        -0.1245
      2 C2          0.0021   -0.0041    0.0020 C.ar      1 <0>        -0.1242
      3 C3         -0.0986   -0.6848   -1.1937 C.ar      1 <0>         0.0061
      4 C4         -0.0779   -2.0684   -1.2112 C.ar      1 <0>        -0.1366
      5 C5          0.0532   -2.7680   -0.0259 C.ar      1 <0>        -0.0517
      6 C6          0.1599   -2.0913    1.1728 C.ar      1 <0>        -0.1579
      7 C7          0.1285   -0.7030    1.2036 C.ar      1 <0>         0.1951
      8 N1          0.1830   -0.2275    2.5084 N.pl3     1 <0>        -0.6424
      9 C8         -0.0774    1.1415    2.9801 C.3       1 <0>         0.1041
     10 C9         -1.0713    1.0311    4.1467 C.3       1 <0>        -0.0254
     11 N2         -0.5833    0.0552    5.1269 N.4       1 <0>        -0.5035
     12 C10        -0.5514   -1.2975    4.5514 C.3       1 <0>        -0.0185
     13 C11         0.4960   -1.3323    3.4339 C.3       1 <0>         0.1298
     14 H1          1.5034   -1.2336    3.8382 H         1 <0>         0.1081
     15 C12         0.3354   -2.6011    2.5871 C.3       1 <0>        -0.0747
     16 Cl1        -0.2523    0.1970   -2.6811 Cl        1 <0>        -0.0472
     17 H2          0.9749    1.8783    0.2562 H         1 <0>         0.0739
     18 H3         -0.3112    1.8676   -0.9742 H         1 <0>         0.0836
     19 H4         -0.7336    1.8523    0.7549 H         1 <0>         0.0666
     20 H5         -0.1643   -2.5998   -2.1474 H         1 <0>         0.1425
     21 H6          0.0719   -3.8478   -0.0377 H         1 <0>         0.1378
     22 H7          0.8502    1.5995    3.3235 H         1 <0>         0.0919
     23 H8         -0.5117    1.7358    2.1762 H         1 <0>         0.1370
     24 H9         -1.1765    2.0043    4.6262 H         1 <0>         0.1461
     25 H10        -2.0409    0.7091    3.7671 H         1 <0>         0.1345
     26 H11         0.3478    0.3140    5.4171 H         1 <0>         0.4285
     27 H12        -0.2846   -2.0176    5.3250 H         1 <0>         0.1467
     28 H13        -1.5311   -1.5437    4.1420 H         1 <0>         0.1370
     29 H14        -0.5410   -3.1695    2.8984 H         1 <0>         0.0984
     30 H15         1.2338   -3.2138    2.6621 H         1 <0>         0.1044
     31 H16        -1.1933    0.0592    5.9306 H         1 <0>         0.4346
@<TRIPOS>BOND
     1    1    2 1
     2    1   17 1
     3    1   18 1
     4    1   19 1
     5    2    7 ar
     6    2    3 ar
     7    3    4 ar
     8    3   16 1
     9    4    5 ar
    10    4   20 1
    11    5    6 ar
    12    5   21 1
    13    6   15 1
    14    6    7 ar
    15    7    8 1
    16    8   13 1
    17    8    9 1
    18    9   10 1
    19    9   22 1
    20    9   23 1
    21   10   11 1
    22   10   24 1
    23   10   25 1
    24   11   12 1
    25   11   26 1
    26   11   31 1
    27   12   13 1
    28   12   27 1
    29   12   28 1
    30   13   14 1
    31   13   15 1
    32   15   29 1
    33   15   30 1
@<TRIPOS>MOLECULE
ZINC01714738
   49    50     0     0     0
SMALL
USER_CHARGES

@<TRIPOS>ATOM
      1 C1         -0.0467    1.4769    0.0229 C.3       1 <0>        -0.0475
      2 N1         -0.0215    0.0082    0.0086 N.4       1 <0>        -0.3868
      3 C2          0.6979   -0.4807    1.1924 C.3       1 <0>        -0.0541
      4 C3         -1.3977   -0.5054    0.0251 C.3       1 <0>        -0.0063
      5 C4         -1.3752   -2.0288   -0.1154 C.3       1 <0>        -0.1338
      6 C5         -2.8086   -2.5637   -0.0982 C.3       1 <0>        -0.1120
      7 S1         -2.7820   -4.3698   -0.2648 S.3       1 <0>        -0.1081
      8 C6         -4.4834   -4.8264   -0.2280 C.ar      1 <0>        -0.1291
      9 C7         -5.4630   -3.8519   -0.0994 C.ar      1 <0>        -0.1103
     10 C8         -6.7968   -4.2126   -0.0714 C.ar      1 <0>        -0.1204
     11 C9         -7.1600   -5.5434   -0.1706 C.ar      1 <0>        -0.0897
     12 C10        -6.1911   -6.5212   -0.2990 C.ar      1 <0>        -0.1142
     13 C11        -4.8504   -6.1686   -0.3339 C.ar      1 <0>         0.1802
     14 N2         -3.8676   -7.1568   -0.4692 N.am      1 <0>        -0.6663
     15 C12        -4.1713   -8.3342   -1.0505 C.2       1 <0>         0.5530
     16 O1         -5.2696   -8.5020   -1.5477 O.2       1 <0>        -0.5168
     17 C13        -3.1805   -9.4113   -1.0839 C.2       1 <0>        -0.2326
     18 C14        -3.4844  -10.5891   -1.6654 C.2       1 <0>         0.0088
     19 C15        -2.4880  -11.6722   -1.6990 C.ar      1 <0>        -0.0896
     20 C16        -1.2272  -11.4852   -1.1238 C.ar      1 <0>        -0.0979
     21 C17        -0.2992  -12.5045   -1.1593 C.ar      1 <0>        -0.1240
     22 C18        -0.6128  -13.7100   -1.7626 C.ar      1 <0>        -0.1005
     23 C19        -1.8585  -13.9027   -2.3341 C.ar      1 <0>        -0.1218
     24 C20        -2.7994  -12.8952   -2.3012 C.ar      1 <0>        -0.0883
     25 H1          0.9744    1.8580    0.0106 H         1 <0>         0.1261
     26 H2         -0.5805    1.8397   -0.8556 H         1 <0>         0.1242
     27 H3         -0.5529    1.8228    0.9241 H         1 <0>         0.1227
     28 H4          0.7166   -1.5705    1.1819 H         1 <0>         0.1248
     29 H5          1.7190   -0.0996    1.1802 H         1 <0>         0.1262
     30 H6          0.1917   -0.1348    2.0937 H         1 <0>         0.1236
     31 H7         -1.8754   -0.2344    0.9666 H         1 <0>         0.1333
     32 H8         -1.9571   -0.0723   -0.8041 H         1 <0>         0.1345
     33 H9         -0.8975   -2.2998   -1.0569 H         1 <0>         0.0988
     34 H10        -0.8158   -2.4619    0.7138 H         1 <0>         0.0989
     35 H11        -3.2863   -2.2926    0.8433 H         1 <0>         0.0993
     36 H12        -3.3680   -2.1306   -0.9274 H         1 <0>         0.0998
     37 H13        -5.1830   -2.8118   -0.0210 H         1 <0>         0.1225
     38 H14        -7.5579   -3.4530    0.0288 H         1 <0>         0.1302
     39 H15        -8.2038   -5.8197   -0.1474 H         1 <0>         0.1345
     40 H16        -6.4786   -7.5594   -0.3759 H         1 <0>         0.1551
     41 H17        -2.9681   -6.9940   -0.1446 H         1 <0>         0.4115
     42 H18        -2.2060   -9.2624   -0.6427 H         1 <0>         0.1329
     43 H19        -4.4588  -10.7380   -2.1066 H         1 <0>         0.1394
     44 H20        -0.9807  -10.5448   -0.6532 H         1 <0>         0.1261
     45 H21         0.6750  -12.3617   -0.7155 H         1 <0>         0.1275
     46 H22         0.1185  -14.5043   -1.7879 H         1 <0>         0.1276
     47 H23        -2.0957  -14.8460   -2.8034 H         1 <0>         0.1299
     48 H24        -3.7727  -13.0487   -2.7433 H         1 <0>         0.1305
     49 H25         0.4470   -0.3120   -0.8257 H         1 <0>         0.4283
@<TRIPOS>BOND
     1    1    2 1
     2    1   25 1
     3    1   26 1
     4    1   27 1
     5    2    3 1
     6    2    4 1
     7    2   49 1
     8    3   28 1
     9    3   29 1
    10    3   30 1
    11    4    5 1
    12    4   31 1
    13    4   32 1
    14    5    6 1
    15    5   33 1
    16    5   34 1
    17    6    7 1
    18    6   35 1
    19    6   36 1
    20    7    8 1
    21    8   13 ar
    22    8    9 ar
    23    9   10 ar
    24    9   37 1
    25   10   11 ar
    26   10   38 1
    27   11   12 ar
    28   11   39 1
    29   12   13 ar
    30   12   40 1
    31   13   14 1
    32   14   15 am
    33   14   41 1
    34   15   16 2
    35   15   17 1
    36   17   18 2
    37   17   42 1
    38   18   19 1
    39   18   43 1
    40   19   24 ar
    41   19   20 ar
    42   20   21 ar
    43   20   44 1
    44   21   22 ar
    45   21   45 1
    46   22   23 ar
    47   22   46 1
    48   23   24 ar
    49   23   47 1
    50   24   48 1
@<TRIPOS>MOLECULE
ZINC00008795
   28    30     0     0     0
SMALL
USER_CHARGES
chloroBLAH
@<TRIPOS>ATOM
      1 C1          1.1682    2.0848    0.0021 C.ar      1 <0>        -0.1222
      2 C2         -0.0166    1.3705    0.0096 C.ar      1 <0>        -0.0577
      3 C3          0.0021   -0.0041    0.0020 C.ar      1 <0>        -0.1392
      4 C4          1.2198   -0.6989    0.0012 C.ar      1 <0>         0.1213
      5 C5          2.4046    0.0308   -0.0234 C.ar      1 <0>        -0.1335
      6 C6          2.3767    1.4109   -0.0213 C.ar      1 <0>        -0.0015
      7 Cl1         3.8643    2.3052   -0.0479 Cl        1 <0>        -0.0472
      8 N1          0.9601   -2.0492    0.0477 N.pl3     1 <0>        -0.5130
      9 C7          1.9078   -3.0272   -0.4388 C.3       1 <0>         0.0445
     10 C8          1.4145   -4.4151    0.0057 C.3       1 <0>         0.0022
     11 C9         -0.8930   -3.5894    0.0184 C.3       1 <0>         0.0175
     12 C10        -0.3768   -2.2739   -0.5580 C.3       1 <0>         0.0527
     13 H1         -0.3358   -2.2909   -1.6471 H         1 <0>         0.0994
     14 C11        -1.1211   -1.0337   -0.0321 C.3       1 <0>        -0.0630
     15 H2          1.1501    3.1646    0.0148 H         1 <0>         0.1448
     16 H3         -0.9605    1.8952    0.0169 H         1 <0>         0.1398
     17 H4          3.3526   -0.4864   -0.0447 H         1 <0>         0.1326
     18 H5          1.9584   -2.9837   -1.5267 H         1 <0>         0.0725
     19 H6          2.8922   -2.8312   -0.0139 H         1 <0>         0.1263
     20 H7          2.0606   -5.1797   -0.4257 H         1 <0>         0.1410
     21 H8          1.4600   -4.4800    1.0928 H         1 <0>         0.1390
     22 H9         -0.9020   -3.5409    1.1073 H         1 <0>         0.1454
     23 H10        -1.8971   -3.7909   -0.3547 H         1 <0>         0.1448
     24 H11        -1.5206   -1.2108    0.9665 H         1 <0>         0.1027
     25 H12        -1.9107   -0.7294   -0.7191 H         1 <0>         0.1001
     26 N2          0.0283   -4.6659   -0.4446 N.4       1 <0>        -0.5233
     27 H13        -0.2896   -5.5651   -0.0643 H         1 <0>         0.4417
     28 H14         0.0111   -4.7029   -1.4705 H         1 <0>         0.4323
@<TRIPOS>BOND
     1    1    6 ar
     2    1    2 ar
     3    1   15 1
     4    2    3 ar
     5    2   16 1
     6    3   14 1
     7    3    4 ar
     8    4    5 ar
     9    4    8 1
    10    5    6 ar
    11    5   17 1
    12    6    7 1
    13    8   12 1
    14    8    9 1
    15    9   10 1
    16    9   18 1
    17    9   19 1
    18   10   20 1
    19   10   21 1
    20   10   26 1
    21   11   12 1
    22   11   22 1
    23   11   23 1
    24   11   26 1
    25   12   13 1
    26   12   14 1
    27   14   24 1
    28   14   25 1
    29   26   27 1
    30   26   28 1
@<TRIPOS>MOLECULE
ZINC00026029
   28    30     0     0     0
SMALL
USER_CHARGES
chloroBLAH
@<TRIPOS>ATOM
      1 C1          4.8254    4.3522   -2.0238 C.ar      1 <0>        -0.1321
      2 C2          3.7198    4.5848   -1.2135 C.ar      1 <0>        -0.0487
      3 C3          2.8504    3.5360   -1.0158 C.ar      1 <0>        -0.1479
      4 C4          3.0481    2.2754   -1.6202 C.ar      1 <0>         0.1347
      5 C5          4.1692    2.0571   -2.4207 C.ar      1 <0>        -0.1379
      6 C6          5.0424    3.1185   -2.6048 C.ar      1 <0>         0.0004
      7 Cl1         6.4495    2.8897   -3.5955 Cl        1 <0>        -0.0530
      8 N1          2.0184    1.4529   -1.2796 N.pl3     1 <0>        -0.5266
      9 C7          2.1146    0.0125   -1.2887 C.3       1 <0>         0.0527
     10 C8          0.6890   -0.5542   -1.1707 C.3       1 <0>         0.0013
     11 C9         -0.0180    1.4732    0.0101 C.3       1 <0>         0.0151
     12 C10         1.4363    1.9375   -0.0013 C.3       1 <0>         0.0583
     13 H1          1.9849    1.5678    0.8651 H         1 <0>         0.0998
     14 C11         1.5896    3.4612   -0.1840 C.3       1 <0>        -0.0658
     15 H2          5.5285    5.1523   -2.2022 H         1 <0>         0.1408
     16 H3          3.5498    5.5492   -0.7580 H         1 <0>         0.1470
     17 H4          4.3504    1.0968   -2.8805 H         1 <0>         0.1396
     18 H5          2.7163   -0.3227   -0.4439 H         1 <0>         0.0730
     19 H6          2.5689   -0.3222   -2.2213 H         1 <0>         0.1261
     20 H7          0.7413   -1.6391   -1.0790 H         1 <0>         0.1415
     21 H8          0.1268   -0.2973   -2.0684 H         1 <0>         0.1388
     22 H9         -0.5337    1.8433   -0.8760 H         1 <0>         0.1447
     23 H10        -0.5166    1.8337    0.9099 H         1 <0>         0.1446
     24 H11         0.7393    3.8783   -0.7236 H         1 <0>         0.1020
     25 H12         1.7233    3.9592    0.7763 H         1 <0>         0.1005
     26 N2         -0.0072   -0.0170    0.0183 N.4       1 <0>        -0.5230
     27 H13         0.4744   -0.3437    0.8642 H         1 <0>         0.4323
     28 H14        -0.9754   -0.3588    0.0221 H         1 <0>         0.4415
@<TRIPOS>BOND
     1    1    6 ar
     2    1    2 ar
     3    1   15 1
     4    2    3 ar
     5    2   16 1
     6    3   14 1
     7    3    4 ar
     8    4    5 ar
     9    4    8 1
    10    5    6 ar
    11    5   17 1
    12    6    7 1
    13    8   12 1
    14    8    9 1
    15    9   10 1
    16    9   18 1
    17    9   19 1
    18   10   20 1
    19   10   21 1
    20   10   26 1
    21   11   12 1
    22   11   22 1
    23   11   23 1
    24   11   26 1
    25   12   13 1
    26   12   14 1
    27   14   24 1
    28   14   25 1
    29   26   27 1
    30   26   28 1
@<TRIPOS>MOLECULE
ZINC01481850
   48    50     0     0     0
SMALL
USER_CHARGES
(1-phenethyl-4-piperidyl)-phenyl-methanol
@<TRIPOS>ATOM
      1 C1         -2.0785    2.5007   -3.4529 C.ar      1 <0>        -0.1042
      2 C2         -1.0663    3.2585   -2.8942 C.ar      1 <0>        -0.1137
      3 C3         -0.3980    2.8008   -1.7740 C.ar      1 <0>        -0.1102
      4 C4         -0.7416    1.5850   -1.2129 C.ar      1 <0>        -0.1087
      5 C5         -1.7499    0.8246   -1.7750 C.ar      1 <0>        -0.1104
      6 C6         -2.4217    1.2848   -2.8921 C.ar      1 <0>        -0.1141
      7 C7         -0.0127    1.0858    0.0080 C.3       1 <0>        -0.1004
      8 C8         -0.7288    1.5792    1.2668 C.3       1 <0>        -0.0015
      9 C9         -0.0965   -0.3705    2.5549 C.3       1 <0>        -0.0024
     10 C10         0.7723   -0.8523    3.7190 C.3       1 <0>        -0.1539
     11 C11         0.2799   -0.2080    5.0178 C.3       1 <0>        -0.1277
     12 C12         0.3258    1.3155    4.8720 C.3       1 <0>        -0.1404
     13 C13        -0.5302    1.7344    3.6745 C.3       1 <0>        -0.0007
     14 C14         1.1823   -0.6382    6.1761 C.3       1 <0>         0.1566
     15 H1          0.8344   -0.1747    7.0992 H         1 <0>         0.1175
     16 C15         1.1363   -2.1377    6.3186 C.ar      1 <0>        -0.1293
     17 C16         1.9640   -2.9311    5.5463 C.ar      1 <0>        -0.1184
     18 C17         1.9253   -4.3064    5.6805 C.ar      1 <0>        -0.1139
     19 C18         1.0513   -4.8888    6.5794 C.ar      1 <0>        -0.1108
     20 C19         0.2199   -4.0956    7.3478 C.ar      1 <0>        -0.1115
     21 C20         0.2624   -2.7201    7.2174 C.ar      1 <0>        -0.1082
     22 O1          2.5248   -0.2257    5.9125 O.3       1 <0>        -0.5460
     23 H2         -2.6009    2.8585   -4.3278 H         1 <0>         0.1298
     24 H3         -0.7979    4.2083   -3.3326 H         1 <0>         0.1296
     25 H4          0.3927    3.3928   -1.3375 H         1 <0>         0.1241
     26 H5         -2.0153   -0.1273   -1.3392 H         1 <0>         0.1232
     27 H6         -3.2122    0.6925   -3.3288 H         1 <0>         0.1294
     28 H7          0.0021   -0.0041    0.0020 H         1 <0>         0.0937
     29 H8          1.0099    1.4631    0.0003 H         1 <0>         0.0942
     30 H9         -0.7436    2.6691    1.2728 H         1 <0>         0.1307
     31 H10        -1.7514    1.2020    1.2746 H         1 <0>         0.1319
     32 H11        -1.1310   -0.6682    2.7263 H         1 <0>         0.1310
     33 H12         0.2604   -0.8163    1.6265 H         1 <0>         0.1304
     34 H13         1.8092   -0.5669    3.5415 H         1 <0>         0.0875
     35 H14         0.7024   -1.9369    3.8014 H         1 <0>         0.1190
     36 H15        -0.7440   -0.5242    5.2170 H         1 <0>         0.1002
     37 H16         1.3556    1.6350    4.7127 H         1 <0>         0.0964
     38 H17        -0.0635    1.7803    5.7778 H         1 <0>         0.1138
     39 H18        -0.4882    2.8175    3.5592 H         1 <0>         0.1299
     40 H19        -1.5626    1.4268    3.8407 H         1 <0>         0.1296
     41 H20         2.6436   -2.4763    4.8409 H         1 <0>         0.1176
     42 H21         2.5746   -4.9261    5.0799 H         1 <0>         0.1268
     43 H22         1.0179   -5.9635    6.6810 H         1 <0>         0.1277
     44 H23        -0.4632   -4.5507    8.0498 H         1 <0>         0.1282
     45 H24        -0.3875   -2.1005    7.8175 H         1 <0>         0.1247
     46 H25         2.9000   -0.6008    5.1040 H         1 <0>         0.3709
     47 N1          0.0104    1.1004    2.4531 N.4       1 <0>        -0.3945
     48 H26         0.9999    1.3564    2.3551 H         1 <0>         0.4262
@<TRIPOS>BOND
     1    1    6 ar
     2    1    2 ar
     3    1   23 1
     4    2    3 ar
     5    2   24 1
     6    3    4 ar
     7    3   25 1
     8    4    5 ar
     9    4    7 1
    10    5    6 ar
    11    5   26 1
    12    6   27 1
    13    7    8 1
    14    7   28 1
    15    7   29 1
    16    8   30 1
    17    8   31 1
    18    8   47 1
    19    9   10 1
    20    9   32 1
    21    9   33 1
    22    9   47 1
    23   10   11 1
    24   10   34 1
    25   10   35 1
    26   11   12 1
    27   11   14 1
    28   11   36 1
    29   12   13 1
    30   12   37 1
    31   12   38 1
    32   13   39 1
    33   13   40 1
    34   13   47 1
    35   14   15 1
    36   14   16 1
    37   14   22 1
    38   16   21 ar
    39   16   17 ar
    40   17   18 ar
    41   17   41 1
    42   18   19 ar
    43   18   42 1
    44   19   20 ar
    45   19   43 1
    46   20   21 ar
    47   20   44 1
    48   21   45 1
    49   22   46 1
    50   47   48 1
@<TRIPOS>MOLECULE
ZINC01843091
   48    50     0     0     0
SMALL
USER_CHARGES

@<TRIPOS>ATOM
      1 C1         -0.0167    1.3781    0.0096 C.ar      1 <0>        -0.1042
      2 C2          1.1709    2.0855    0.0021 C.ar      1 <0>        -0.1140
      3 C3          2.3773    1.4107   -0.0130 C.ar      1 <0>        -0.1104
      4 C4          2.3960    0.0285   -0.0201 C.ar      1 <0>        -0.1085
      5 C5          1.2084   -0.6789   -0.0117 C.ar      1 <0>        -0.1102
      6 C6          0.0021   -0.0041    0.0020 C.ar      1 <0>        -0.1137
      7 C7          3.7112   -0.7071   -0.0376 C.3       1 <0>        -0.0995
      8 C8          4.1714   -0.9633    1.3989 C.3       1 <0>        -0.0062
      9 N1          5.4533   -1.6804    1.3819 N.4       1 <0>        -0.3835
     10 C9          6.4835   -0.8239    0.7821 C.3       1 <0>        -0.0117
     11 C10         7.8018   -1.5949    0.6878 C.3       1 <0>        -0.1376
     12 C11         8.2414   -2.0174    2.0926 C.3       1 <0>        -0.1290
     13 C12         7.1280   -2.8482    2.7370 C.3       1 <0>        -0.1421
     14 C13         5.8346   -2.0307    2.7554 C.3       1 <0>        -0.0039
     15 C14         9.5171   -2.8568    1.9987 C.3       1 <0>         0.1587
     16 H1          9.3243   -3.7447    1.3966 H         1 <0>         0.1108
     17 C15         9.9484   -3.2717    3.3818 C.ar      1 <0>        -0.1301
     18 C16        10.6292   -2.3805    4.1900 C.ar      1 <0>        -0.1127
     19 C17        11.0248   -2.7610    5.4587 C.ar      1 <0>        -0.1121
     20 C18        10.7391   -4.0327    5.9194 C.ar      1 <0>        -0.1107
     21 C19        10.0575   -4.9236    5.1115 C.ar      1 <0>        -0.1140
     22 C20         9.6582   -4.5416    3.8445 C.ar      1 <0>        -0.1119
     23 O1         10.5525   -2.0833    1.3889 O.3       1 <0>        -0.5464
     24 H2         -0.9591    1.9053    0.0259 H         1 <0>         0.1298
     25 H3          1.1563    3.1654    0.0076 H         1 <0>         0.1294
     26 H4          3.3051    1.9634   -0.0196 H         1 <0>         0.1233
     27 H5          1.2231   -1.7588   -0.0176 H         1 <0>         0.1240
     28 H6         -0.9258   -0.5567    0.0082 H         1 <0>         0.1296
     29 H7          3.5884   -1.6586   -0.5549 H         1 <0>         0.0947
     30 H8          4.4573   -0.1052   -0.5563 H         1 <0>         0.0947
     31 H9          4.2941   -0.0118    1.9163 H         1 <0>         0.1304
     32 H10         3.4252   -1.5652    1.9176 H         1 <0>         0.1321
     33 H11         6.1677   -0.5214   -0.2163 H         1 <0>         0.1332
     34 H12         6.6246    0.0619    1.4015 H         1 <0>         0.1283
     35 H13         7.6618   -2.4808    0.0684 H         1 <0>         0.0902
     36 H14         8.5658   -0.9567    0.2439 H         1 <0>         0.1186
     37 H15         8.4309   -1.1305    2.6973 H         1 <0>         0.0929
     38 H16         6.9740   -3.7601    2.1601 H         1 <0>         0.0910
     39 H17         7.4103   -3.1057    3.7578 H         1 <0>         0.1163
     40 H18         5.9896   -1.1192    3.3326 H         1 <0>         0.1282
     41 H19         5.0398   -2.6192    3.2137 H         1 <0>         0.1317
     42 H20        10.8523   -1.3870    3.8300 H         1 <0>         0.1193
     43 H21        11.5573   -2.0650    6.0898 H         1 <0>         0.1273
     44 H22        11.0488   -4.3302    6.9103 H         1 <0>         0.1275
     45 H23         9.8347   -5.9172    5.4714 H         1 <0>         0.1274
     46 H24         9.1224   -5.2364    3.2147 H         1 <0>         0.1224
     47 H25        10.7769   -1.2762    1.8719 H         1 <0>         0.3784
     48 H26         5.3590   -2.5229    0.8348 H         1 <0>         0.4223
@<TRIPOS>BOND
     1    1    6 ar
     2    1    2 ar
     3    1   24 1
     4    2    3 ar
     5    2   25 1
     6    3    4 ar
     7    3   26 1
     8    4    5 ar
     9    4    7 1
    10    5    6 ar
    11    5   27 1
    12    6   28 1
    13    7    8 1
    14    7   29 1
    15    7   30 1
    16    8    9 1
    17    8   31 1
    18    8   32 1
    19    9   14 1
    20    9   10 1
    21    9   48 1
    22   10   11 1
    23   10   33 1
    24   10   34 1
    25   11   12 1
    26   11   35 1
    27   11   36 1
    28   12   13 1
    29   12   15 1
    30   12   37 1
    31   13   14 1
    32   13   38 1
    33   13   39 1
    34   14   40 1
    35   14   41 1
    36   15   16 1
    37   15   17 1
    38   15   23 1
    39   17   22 ar
    40   17   18 ar
    41   18   19 ar
    42   18   42 1
    43   19   20 ar
    44   19   43 1
    45   20   21 ar
    46   20   44 1
    47   21   22 ar
    48   21   45 1
    49   22   46 1
    50   23   47 1
@<TRIPOS>MOLECULE
ZINC01542568
   52    54     0     0     0
SMALL
USER_CHARGES

@<TRIPOS>ATOM
      1 C1         -0.0167    1.3781    0.0096 C.ar      1 <0>        -0.1173
      2 C2          1.1709    2.0855    0.0021 C.ar      1 <0>        -0.1159
      3 C3          2.3773    1.4107   -0.0130 C.ar      1 <0>        -0.1175
      4 C4          2.3960    0.0285   -0.0201 C.ar      1 <0>        -0.0953
      5 C5          1.2084   -0.6789   -0.0117 C.ar      1 <0>        -0.1176
      6 C6          0.0021   -0.0041    0.0020 C.ar      1 <0>        -0.1161
      7 C7          3.7112   -0.7071   -0.0376 C.3       1 <0>        -0.0783
      8 C8          4.1714   -0.9633    1.3989 C.3       1 <0>        -0.1115
      9 C9          5.5066   -1.7102    1.3812 C.3       1 <0>        -0.1504
     10 C10         5.9667   -1.9663    2.8177 C.3       1 <0>        -0.0100
     11 N1          7.2487   -2.6834    2.8007 N.4       1 <0>        -0.3854
     12 C11         7.0575   -4.0103    2.2028 C.3       1 <0>        -0.0092
     13 C12         8.4045   -4.7302    2.1084 C.3       1 <0>        -0.1367
     14 C13         8.9956   -4.8819    3.5130 C.3       1 <0>        -0.1479
     15 C14         9.1213   -3.4974    4.1555 C.3       1 <0>        -0.1370
     16 C15         7.7478   -2.8231    4.1740 C.3       1 <0>        -0.0030
     17 C16        10.3577   -5.5200    3.4204 C.2       1 <0>         0.4081
     18 O1         11.0447   -5.3427    2.4369 O.2       1 <0>        -0.4344
     19 C17        10.8536   -6.3574    4.5222 C.ar      1 <0>        -0.1964
     20 C18        10.0610   -6.5686    5.6560 C.ar      1 <0>        -0.0461
     21 C19        10.5316   -7.3543    6.6849 C.ar      1 <0>        -0.1663
     22 C20        11.7884   -7.9352    6.5991 C.ar      1 <0>         0.1461
     23 C21        12.5791   -7.7298    5.4781 C.ar      1 <0>        -0.1630
     24 C22        12.1179   -6.9514    4.4394 C.ar      1 <0>        -0.0243
     25 F1         12.2445   -8.7040    7.6121 F         1 <0>        -0.1245
     26 H1         -0.9591    1.9053    0.0259 H         1 <0>         0.1251
     27 H2          1.1563    3.1654    0.0076 H         1 <0>         0.1247
     28 H3          3.3051    1.9634   -0.0196 H         1 <0>         0.1203
     29 H4          1.2231   -1.7588   -0.0176 H         1 <0>         0.1201
     30 H5         -0.9258   -0.5567    0.0082 H         1 <0>         0.1246
     31 H6          3.5884   -1.6586   -0.5549 H         1 <0>         0.0753
     32 H7          4.4573   -0.1052   -0.5563 H         1 <0>         0.0757
     33 H8          4.2941   -0.0118    1.9163 H         1 <0>         0.0758
     34 H9          3.4252   -1.5652    1.9176 H         1 <0>         0.0755
     35 H10         5.3838   -2.6617    0.8639 H         1 <0>         0.0882
     36 H11         6.2527   -1.1082    0.8625 H         1 <0>         0.0883
     37 H12         6.0895   -1.0148    3.3350 H         1 <0>         0.1321
     38 H13         5.2206   -2.5682    3.3364 H         1 <0>         0.1305
     39 H14         6.3771   -4.5933    2.8234 H         1 <0>         0.1314
     40 H15         6.6338   -3.9008    1.2045 H         1 <0>         0.1369
     41 H16         8.2601   -5.7159    1.6659 H         1 <0>         0.1162
     42 H17         9.0857   -4.1481    1.4878 H         1 <0>         0.1009
     43 H18         8.3395   -5.5067    4.1191 H         1 <0>         0.1162
     44 H19         9.4893   -3.6018    5.1761 H         1 <0>         0.1201
     45 H20         9.8173   -2.8897    3.5773 H         1 <0>         0.0967
     46 H21         7.8336   -1.8373    4.6309 H         1 <0>         0.1364
     47 H22         7.0526   -3.4315    4.7526 H         1 <0>         0.1324
     48 H23         9.0826   -6.1164    5.7243 H         1 <0>         0.1390
     49 H24         9.9209   -7.5182    7.5605 H         1 <0>         0.1472
     50 H25        13.5567   -8.1849    5.4175 H         1 <0>         0.1491
     51 H26        12.7327   -6.7959    3.5652 H         1 <0>         0.1470
     52 H27         7.9169   -2.1628    2.2524 H         1 <0>         0.4242
@<TRIPOS>BOND
     1    1    6 ar
     2    1    2 ar
     3    1   26 1
     4    2    3 ar
     5    2   27 1
     6    3    4 ar
     7    3   28 1
     8    4    5 ar
     9    4    7 1
    10    5    6 ar
    11    5   29 1
    12    6   30 1
    13    7    8 1
    14    7   31 1
    15    7   32 1
    16    8    9 1
    17    8   33 1
    18    8   34 1
    19    9   10 1
    20    9   35 1
    21    9   36 1
    22   10   11 1
    23   10   37 1
    24   10   38 1
    25   11   16 1
    26   11   12 1
    27   11   52 1
    28   12   13 1
    29   12   39 1
    30   12   40 1
    31   13   14 1
    32   13   41 1
    33   13   42 1
    34   14   15 1
    35   14   17 1
    36   14   43 1
    37   15   16 1
    38   15   44 1
    39   15   45 1
    40   16   46 1
    41   16   47 1
    42   17   18 2
    43   17   19 1
    44   19   24 ar
    45   19   20 ar
    46   20   21 ar
    47   20   48 1
    48   21   22 ar
    49   21   49 1
    50   22   23 ar
    51   22   25 1
    52   23   24 ar
    53   23   50 1
    54   24   51 1
@<TRIPOS>MOLECULE
ZINC13613346
   70    73     0     0     0
SMALL
USER_CHARGES
1-(5-acetyl-4-methyl-thiazol-2-yl)-3-[(1R,2S)-2-[[(3S)-3-[(4-fluorophenyl)methyl]-1-piperidyl]methyl]cyclohexyl]urea
@<TRIPOS>ATOM
      1 C1         -5.6728    3.5355   10.4423 C.3       1 <0>        -0.0985
      2 C2         -4.6582    2.4944   10.0451 C.2       1 <0>         0.1933
      3 C3         -3.7716    1.9589   10.9773 C.2       1 <0>        -0.3113
      4 S1         -2.8609    0.8186    9.9455 S.3       1 <0>         0.1442
      5 C4         -3.6901    1.1481    8.4559 C.2       1 <0>         0.3169
      6 N1         -4.5788    2.0630    8.8160 N.2       1 <0>        -0.5137
      7 N2         -3.4800    0.5913    7.2086 N.am      1 <0>        -0.6248
      8 C5         -4.2380    0.9759    6.1626 C.2       1 <0>         0.6890
      9 O1         -5.1064    1.8126    6.3164 O.2       1 <0>        -0.4745
     10 N3         -4.0331    0.4330    4.9462 N.am      1 <0>        -0.7457
     11 C6         -4.8570    0.8510    3.8092 C.3       1 <0>         0.1464
     12 H1         -5.0943    1.9108    3.9027 H         1 <0>         0.1167
     13 C7         -6.1528    0.0378    3.7921 C.3       1 <0>        -0.1315
     14 C8         -7.0133    0.4744    2.6047 C.3       1 <0>        -0.1229
     15 C9         -6.2447    0.2367    1.3032 C.3       1 <0>        -0.1247
     16 C10        -4.9489    1.0500    1.3204 C.3       1 <0>        -0.1077
     17 C11        -4.0884    0.6134    2.5078 C.3       1 <0>        -0.1184
     18 H2         -3.8511   -0.4464    2.4143 H         1 <0>         0.1014
     19 C12        -2.7926    1.4266    2.5249 C.3       1 <0>        -0.0042
     20 C13        -1.3448   -0.3944    3.1945 C.3       1 <0>        -0.0167
     21 C14        -0.5437   -0.9679    4.3656 C.3       1 <0>        -0.1472
     22 C15         0.5823    0.0038    4.7329 C.3       1 <0>        -0.1376
     23 C16        -0.0241    1.3672    5.0765 C.3       1 <0>        -0.1063
     24 H3         -0.6734    1.2679    5.9463 H         1 <0>         0.0863
     25 C17        -0.8401    1.8730    3.8848 C.3       1 <0>        -0.0032
     26 C18         1.0969    2.3613    5.3868 C.3       1 <0>        -0.0692
     27 C19         1.8243    1.9254    6.6325 C.ar      1 <0>        -0.1091
     28 C20         1.4045    2.3751    7.8705 C.ar      1 <0>        -0.0849
     29 C21         2.0679    1.9722    9.0140 C.ar      1 <0>        -0.1488
     30 C22         3.1598    1.1261    8.9185 C.ar      1 <0>         0.1092
     31 C23         3.5825    0.6806    7.6776 C.ar      1 <0>        -0.1504
     32 C24         2.9144    1.0806    6.5359 C.ar      1 <0>        -0.0842
     33 F1          3.8119    0.7354   10.0353 F         1 <0>        -0.1325
     34 C25        -3.6351    2.2352   12.3519 C.2       1 <0>         0.4350
     35 O2         -4.3618    3.0514   12.8826 O.2       1 <0>        -0.4405
     36 C26        -2.5875    1.5183   13.1641 C.3       1 <0>        -0.1890
     37 H4         -6.5941    3.0442   10.7553 H         1 <0>         0.0902
     38 H5         -5.2797    4.1299   11.2671 H         1 <0>         0.1003
     39 H6         -5.8785    4.1855    9.5918 H         1 <0>         0.0817
     40 H7         -2.7871   -0.0763    7.0859 H         1 <0>         0.4219
     41 H8         -3.3401   -0.2346    4.8235 H         1 <0>         0.3858
     42 H9         -6.7004    0.2071    4.7192 H         1 <0>         0.0818
     43 H10        -5.9155   -1.0220    3.6986 H         1 <0>         0.0717
     44 H11        -7.2506    1.5341    2.6981 H         1 <0>         0.0725
     45 H12        -7.9365   -0.1050    2.5924 H         1 <0>         0.0786
     46 H13        -6.8577    0.5478    0.4573 H         1 <0>         0.0807
     47 H14        -6.0074   -0.8230    1.2097 H         1 <0>         0.0694
     48 H15        -5.1862    2.1097    1.4138 H         1 <0>         0.0813
     49 H16        -4.4013    0.8806    0.3932 H         1 <0>         0.0849
     50 H17        -3.0228    2.4727    2.7269 H         1 <0>         0.1320
     51 H18        -2.2987    1.3436    1.5568 H         1 <0>         0.1388
     52 H19        -2.1556   -1.0770    2.9402 H         1 <0>         0.1264
     53 H20        -0.6897   -0.2715    2.3320 H         1 <0>         0.1378
     54 H21        -1.2013   -1.1039    5.2242 H         1 <0>         0.0746
     55 H22        -0.1160   -1.9284    4.0782 H         1 <0>         0.1198
     56 H23         1.2618    0.1101    3.8873 H         1 <0>         0.0892
     57 H24         1.1288   -0.3794    5.5946 H         1 <0>         0.1011
     58 H25        -1.2845    2.8372    4.1319 H         1 <0>         0.1269
     59 H26        -0.1875    1.9851    3.0190 H         1 <0>         0.1349
     60 H27         1.7955    2.3937    4.5507 H         1 <0>         0.0889
     61 H28         0.6708    3.3523    5.5428 H         1 <0>         0.0863
     62 H29         0.5554    3.0383    7.9444 H         1 <0>         0.1302
     63 H30         1.7372    2.3204    9.9814 H         1 <0>         0.1395
     64 H31         4.4339    0.0203    7.6019 H         1 <0>         0.1399
     65 H32         3.2442    0.7335    5.5679 H         1 <0>         0.1333
     66 H33        -1.7354    2.0413   13.1451 H         1 <0>         0.0904
     67 H34        -2.9307    1.4200   14.1940 H         1 <0>         0.0983
     68 H35        -2.4155    0.5280   12.7424 H         1 <0>         0.0792
     69 N4         -1.9210    0.9057    3.5983 N.4       1 <0>        -0.4126
     70 H36        -2.4820    0.7719    4.4478 H         1 <0>         0.4031
@<TRIPOS>BOND
     1    1    2 1
     2    1   37 1
     3    1   38 1
     4    1   39 1
     5    2    6 1
     6    2    3 2
     7    3    4 1
     8    3   34 1
     9    4    5 1
    10    5    6 2
    11    5    7 1
    12    7    8 am
    13    7   40 1
    14    8    9 2
    15    8   10 am
    16   10   11 1
    17   10   41 1
    18   11   12 1
    19   11   17 1
    20   11   13 1
    21   13   14 1
    22   13   42 1
    23   13   43 1
    24   14   15 1
    25   14   44 1
    26   14   45 1
    27   15   16 1
    28   15   46 1
    29   15   47 1
    30   16   17 1
    31   16   48 1
    32   16   49 1
    33   17   18 1
    34   17   19 1
    35   19   50 1
    36   19   51 1
    37   19   69 1
    38   20   21 1
    39   20   52 1
    40   20   53 1
    41   20   69 1
    42   21   22 1
    43   21   54 1
    44   21   55 1
    45   22   23 1
    46   22   56 1
    47   22   57 1
    48   23   24 1
    49   23   25 1
    50   23   26 1
    51   25   58 1
    52   25   59 1
    53   25   69 1
    54   26   27 1
    55   26   60 1
    56   26   61 1
    57   27   32 ar
    58   27   28 ar
    59   28   29 ar
    60   28   62 1
    61   29   30 ar
    62   29   63 1
    63   30   31 ar
    64   30   33 1
    65   31   32 ar
    66   31   64 1
    67   32   65 1
    68   34   35 2
    69   34   36 1
    70   36   66 1
    71   36   67 1
    72   36   68 1
    73   69   70 1
@<TRIPOS>MOLECULE
ZINC13679050
   28    29     0     0     0
SMALL
USER_CHARGES
1-[(2S)-2-aminopropyl]-7-fluoro-indazol-6-ol
@<TRIPOS>ATOM
      1 C1         -0.0127    1.0858    0.0080 C.3       1 <0>        -0.1820
      2 C2         -0.7288    1.5792    1.2668 C.3       1 <0>         0.0135
      3 H1         -1.7514    1.2020    1.2746 H         1 <0>         0.1421
      4 C3          0.0111    1.0724    2.5063 C.3       1 <0>         0.1217
      5 N1         -0.7392    1.4432    3.7087 N.pl3     1 <0>        -0.4330
      6 C4         -1.7120    0.6828    4.3060 C.ar      1 <0>         0.1084
      7 C5         -2.1662    1.4099    5.4232 C.ar      1 <0>        -0.1641
      8 C6         -3.1728    0.8783    6.2376 C.ar      1 <0>        -0.0205
      9 C7         -3.7092   -0.3415    5.9463 C.ar      1 <0>        -0.1486
     10 C8         -3.2644   -1.0669    4.8427 C.ar      1 <0>         0.1473
     11 C9         -2.2715   -0.5615    4.0238 C.ar      1 <0>         0.0346
     12 F1         -1.8464   -1.2705    2.9553 F         1 <0>        -0.1316
     13 O1         -3.8115   -2.2811    4.5686 O.3       1 <0>        -0.4825
     14 C10        -1.3966    2.6500    5.4452 C.2       1 <0>         0.1192
     15 N2         -0.5746    2.6269    4.4354 N.2       1 <0>        -0.2739
     16 H2          0.0021   -0.0041    0.0020 H         1 <0>         0.1116
     17 H3          1.0099    1.4631    0.0003 H         1 <0>         0.0885
     18 H4         -0.5399    1.4469   -0.8751 H         1 <0>         0.0921
     19 H5          0.1037   -0.0125    2.4560 H         1 <0>         0.1362
     20 H6          1.0041    1.5203    2.5452 H         1 <0>         0.1222
     21 H7         -3.5243    1.4331    7.0949 H         1 <0>         0.1508
     22 H8         -4.4856   -0.7490    6.5769 H         1 <0>         0.1540
     23 H9         -3.3568   -3.0220    4.9921 H         1 <0>         0.4070
     24 H10        -1.4890    3.4432    6.1723 H         1 <0>         0.2130
     25 H11        -1.2723    3.3983    2.0632 H         1 <0>         0.4369
     26 H12         0.1882    3.4225    1.2680 H         1 <0>         0.4372
     27 N3         -0.7608    3.0524    1.2530 N.4       1 <0>        -0.6421
     28 H13        -1.2315    3.3718    0.3982 H         1 <0>         0.4420
@<TRIPOS>BOND
     1    1    2 1
     2    1   16 1
     3    1   17 1
     4    1   18 1
     5    2    3 1
     6    2    4 1
     7    2   27 1
     8    4    5 1
     9    4   19 1
    10    4   20 1
    11    5   15 1
    12    5    6 1
    13    6   11 ar
    14    6    7 ar
    15    7    8 ar
    16    7   14 1
    17    8    9 ar
    18    8   21 1
    19    9   10 ar
    20    9   22 1
    21   10   11 ar
    22   10   13 1
    23   11   12 1
    24   13   23 1
    25   14   15 2
    26   14   24 1
    27   25   27 1
    28   26   27 1
    29   27   28 1
@<TRIPOS>MOLECULE
ZINC13985099
   35    36     0     0     0
SMALL
USER_CHARGES
3-(2-dimethylaminoethyl)-1-methyl-indol-4-ol
@<TRIPOS>ATOM
      1 C1          1.6984   -1.8610   -0.0237 C.3       1 <0>         0.0712
      2 N1          1.2958   -0.4525   -0.0127 N.pl3     1 <0>        -0.4791
      3 C2          0.0021   -0.0041    0.0020 C.2       1 <0>         0.0803
      4 C3         -0.0161    1.3379    0.0094 C.2       1 <0>        -0.1937
      5 C4          1.3788    1.7850   -0.0015 C.ar      1 <0>        -0.1237
      6 C5          2.1620    0.6179   -0.0153 C.ar      1 <0>         0.1108
      7 C6          3.5497    0.7248   -0.0275 C.ar      1 <0>        -0.1285
      8 C7          4.1454    1.9669   -0.0262 C.ar      1 <0>        -0.0784
      9 C8          3.3765    3.1217   -0.0122 C.ar      1 <0>        -0.1586
     10 C9          1.9973    3.0412    0.0002 C.ar      1 <0>         0.1368
     11 O1          1.2462    4.1734    0.0143 O.3       1 <0>        -0.4929
     12 C10        -1.2395    2.2178    0.0202 C.3       1 <0>        -0.0613
     13 C11        -1.5876    2.6249   -1.4130 C.3       1 <0>        -0.0010
     14 C12        -3.0071    4.0849   -2.7229 C.3       1 <0>        -0.0425
     15 C13        -3.9625    2.7348   -0.9546 C.3       1 <0>        -0.0467
     16 H1          1.7887   -2.2051   -1.0540 H         1 <0>         0.0770
     17 H2          2.6587   -1.9684    0.4807 H         1 <0>         0.0876
     18 H3          0.9473   -2.4576    0.4940 H         1 <0>         0.0891
     19 H4         -0.8735   -0.6363    0.0064 H         1 <0>         0.1717
     20 H5          4.1596   -0.1665   -0.0384 H         1 <0>         0.1272
     21 H6          5.2227    2.0425   -0.0357 H         1 <0>         0.1370
     22 H7          3.8585    4.0882   -0.0106 H         1 <0>         0.1342
     23 H8          1.0205    4.5067   -0.8650 H         1 <0>         0.3789
     24 H9         -2.0761    1.6716    0.4561 H         1 <0>         0.0889
     25 H10        -1.0399    3.1103    0.6132 H         1 <0>         0.0983
     26 H11        -0.7510    3.1711   -1.8488 H         1 <0>         0.1239
     27 H12        -1.7872    1.7324   -2.0059 H         1 <0>         0.1290
     28 H13        -3.1500    3.2967   -3.4621 H         1 <0>         0.1216
     29 H14        -3.8959    4.7149   -2.6870 H         1 <0>         0.1223
     30 H15        -2.1437    4.6901   -2.9995 H         1 <0>         0.1207
     31 H16        -3.7938    2.3584    0.0543 H         1 <0>         0.1225
     32 H17        -4.8311    3.3934   -0.9562 H         1 <0>         0.1221
     33 H18        -4.1401    1.8976   -1.6297 H         1 <0>         0.1222
     34 N2         -2.7755    3.5039   -1.3837 N.4       1 <0>        -0.3991
     35 H19        -2.6110    4.2647   -0.7140 H         1 <0>         0.4320
@<TRIPOS>BOND
     1    1    2 1
     2    1   16 1
     3    1   17 1
     4    1   18 1
     5    2    6 1
     6    2    3 1
     7    3    4 2
     8    3   19 1
     9    4    5 1
    10    4   12 1
    11    5   10 ar
    12    5    6 ar
    13    6    7 ar
    14    7    8 ar
    15    7   20 1
    16    8    9 ar
    17    8   21 1
    18    9   10 ar
    19    9   22 1
    20   10   11 1
    21   11   23 1
    22   12   13 1
    23   12   24 1
    24   12   25 1
    25   13   26 1
    26   13   27 1
    27   13   34 1
    28   14   28 1
    29   14   29 1
    30   14   30 1
    31   14   34 1
    32   15   31 1
    33   15   32 1
    34   15   33 1
    35   15   34 1
    36   34   35 1
