@<TRIPOS>MOLECULE
ZINC01548097
   59    62     0     0     0
SMALL
USER_CHARGES
1-[4-[3-[4-(6-fluorobenzo[d]isoxazol-3-yl)-1-piperidyl]propoxy]-3-methoxy-phenyl]ethanone
@<TRIPOS>ATOM
      1 C1          5.4534   19.1223    1.8869 C.3       1 <0>        -0.1922
      2 C2          4.3501   18.7399    2.8395 C.2       1 <0>         0.3932
      3 O1          4.0275   19.4980    3.7297 O.2       1 <0>        -0.4508
      4 C3          3.6653   17.4493    2.6899 C.ar      1 <0>        -0.1605
      5 C4          4.0360   16.5727    1.6630 C.ar      1 <0>        -0.0670
      6 C5          3.3928   15.3632    1.5254 C.ar      1 <0>        -0.1853
      7 C6          2.3755   15.0095    2.4028 C.ar      1 <0>         0.1243
      8 C7          1.9965   15.8797    3.4249 C.ar      1 <0>         0.0954
      9 C8          2.6401   17.0916    3.5742 C.ar      1 <0>        -0.1155
     10 O2          0.9963   15.5315    4.2781 O.3       1 <0>        -0.3070
     11 C9          0.6601   16.4707    5.3013 C.3       1 <0>         0.0217
     12 O3          1.7447   13.8158    2.2616 O.3       1 <0>        -0.2975
     13 C10         2.1786   12.9754    1.1904 C.3       1 <0>         0.0594
     14 C11         1.3580   11.6841    1.1907 C.3       1 <0>        -0.1527
     15 C12         1.8225   10.7843    0.0437 C.3       1 <0>        -0.0007
     16 C13         1.2834    8.7626   -1.1738 C.3       1 <0>         0.0027
     17 C14         0.3423    7.5563   -1.2082 C.3       1 <0>        -0.1449
     18 C15         0.5821    6.6925    0.0332 C.3       1 <0>        -0.0235
     19 C16         0.3647    7.5425    1.2881 C.3       1 <0>        -0.1441
     20 C17         1.3040    8.7501    1.2493 C.3       1 <0>        -0.0044
     21 C18        -0.3830    5.5351    0.0354 C.2       1 <0>         0.1306
     22 C19        -0.0312    4.1126    0.0244 C.ar      1 <0>        -0.2138
     23 C20         1.1811    3.4182    0.0091 C.ar      1 <0>        -0.0102
     24 C21         1.1816    2.0526    0.0018 C.ar      1 <0>        -0.1747
     25 C22        -0.0162    1.3468    0.0094 C.ar      1 <0>         0.1754
     26 C23        -1.2242    2.0150    0.0188 C.ar      1 <0>        -0.1636
     27 C24        -1.2442    3.4039    0.0322 C.ar      1 <0>         0.1189
     28 O4         -2.2366    4.3165    0.0466 O.3       1 <0>        -0.0742
     29 N1         -1.6781    5.6150    0.0482 N.2       1 <0>        -0.2747
     30 F1          0.0021   -0.0041    0.0020 F         1 <0>        -0.1150
     31 H1          5.0645   19.6089    1.1046 H         1 <0>         0.0900
     32 H2          6.1673   19.7681    2.3983 H         1 <0>         0.0928
     33 H3          5.9614   18.2228    1.5394 H         1 <0>         0.0866
     34 H4          4.8261   16.8453    0.9790 H         1 <0>         0.1431
     35 H5          3.6796   14.6878    0.7329 H         1 <0>         0.1405
     36 H6          2.3502   17.7645    4.3677 H         1 <0>         0.1507
     37 H7         -0.1505   16.0700    5.9101 H         1 <0>         0.1071
     38 H8          1.5320   16.6506    5.9301 H         1 <0>         0.0600
     39 H9          0.3422   17.4077    4.8442 H         1 <0>         0.0600
     40 H10         3.2338   12.7354    1.3213 H         1 <0>         0.0747
     41 H11         2.0390   13.4944    0.2421 H         1 <0>         0.0748
     42 H12         0.3028   11.9241    1.0598 H         1 <0>         0.1006
     43 H13         1.4976   11.1651    2.1390 H         1 <0>         0.1001
     44 H14         2.8777   10.5443    0.1746 H         1 <0>         0.1370
     45 H15         1.6829   11.3033   -0.9046 H         1 <0>         0.1353
     46 H16         2.3172    8.4170   -1.1787 H         1 <0>         0.1364
     47 H17         1.1053    9.3872   -2.0491 H         1 <0>         0.1367
     48 H18         0.5379    6.9676   -2.1045 H         1 <0>         0.1205
     49 H19        -0.6917    7.9008   -1.2176 H         1 <0>         0.0993
     50 H20         1.6044    6.3144    0.0219 H         1 <0>         0.1178
     51 H21        -0.6688    7.8874    1.3195 H         1 <0>         0.0992
     52 H22         0.5762    6.9440    2.1742 H         1 <0>         0.1203
     53 H23         2.3377    8.4046    1.2331 H         1 <0>         0.1369
     54 H24         1.1407    9.3656    2.1340 H         1 <0>         0.1376
     55 H25         2.1154    3.9600    0.0035 H         1 <0>         0.1452
     56 H26         2.1193    1.5169   -0.0097 H         1 <0>         0.1544
     57 H27        -2.1505    1.4597    0.0202 H         1 <0>         0.1585
     58 N2          1.0059    9.5530    0.0442 N.4       1 <0>        -0.3961
     59 H28         0.0123    9.8119    0.0539 H         1 <0>         0.4307
@<TRIPOS>BOND
     1    1    2 1
     2    1   31 1
     3    1   32 1
     4    1   33 1
     5    2    3 2
     6    2    4 1
     7    4    9 ar
     8    4    5 ar
     9    5    6 ar
    10    5   34 1
    11    6    7 ar
    12    6   35 1
    13    7    8 ar
    14    7   12 1
    15    8    9 ar
    16    8   10 1
    17    9   36 1
    18   10   11 1
    19   11   37 1
    20   11   38 1
    21   11   39 1
    22   12   13 1
    23   13   14 1
    24   13   40 1
    25   13   41 1
    26   14   15 1
    27   14   42 1
    28   14   43 1
    29   15   44 1
    30   15   45 1
    31   15   58 1
    32   16   17 1
    33   16   46 1
    34   16   47 1
    35   16   58 1
    36   17   18 1
    37   17   48 1
    38   17   49 1
    39   18   19 1
    40   18   21 1
    41   18   50 1
    42   19   20 1
    43   19   51 1
    44   19   52 1
    45   20   53 1
    46   20   54 1
    47   20   58 1
    48   21   29 2
    49   21   22 1
    50   22   27 ar
    51   22   23 ar
    52   23   24 ar
    53   23   55 1
    54   24   25 ar
    55   24   56 1
    56   25   26 ar
    57   25   30 1
    58   26   27 ar
    59   26   57 1
    60   27   28 1
    61   28   29 1
    62   58   59 1
@<TRIPOS>MOLECULE
ZINC03775140
   62    64     0     0     0
SMALL
USER_CHARGES

@<TRIPOS>ATOM
      1 C1         -0.0173    1.4248    0.0099 C.3       1 <0>         0.0171
      2 O1          0.0021   -0.0041    0.0020 O.3       1 <0>        -0.2760
      3 C2          0.6048   -0.6061   -1.0540 C.ar      1 <0>         0.2490
      4 C3          1.1714    0.1577   -2.0595 C.ar      1 <0>        -0.2968
      5 C4          1.7875   -0.4643   -3.1379 C.ar      1 <0>         0.3045
      6 C5          1.8368   -1.8562   -3.2112 C.ar      1 <0>        -0.1599
      7 C6          1.2804   -2.6188   -2.2247 C.ar      1 <0>         0.0104
      8 C7          0.6619   -2.0064   -1.1291 C.ar      1 <0>        -0.2378
      9 C8          0.0677   -2.8282   -0.0619 C.2       1 <0>         0.5777
     10 O2         -0.4739   -2.2937    0.8871 O.2       1 <0>        -0.5075
     11 N1          0.1238   -4.1727   -0.1363 N.am      1 <0>        -0.7330
     12 C9         -0.4675   -4.9905    0.9257 C.3       1 <0>         0.1404
     13 H1         -1.3642   -4.5012    1.3060 H         1 <0>         0.1248
     14 C10         0.5437   -5.1622    2.0629 C.3       1 <0>        -0.1546
     15 C11         1.7671   -5.9184    1.5404 C.3       1 <0>        -0.0167
     16 N2          1.3566   -7.2378    1.0453 N.4       1 <0>        -0.3759
     17 C12         0.4423   -7.0806   -0.0921 C.3       1 <0>        -0.0388
     18 C13        -0.8339   -6.3685    0.3670 C.3       1 <0>         0.0659
     19 H2         -1.3203   -6.9585    1.1438 H         1 <0>         0.1015
     20 O3         -1.7219   -6.2131   -0.7418 O.3       1 <0>        -0.3502
     21 C14        -2.6322   -7.3011   -0.9143 C.3       1 <0>         0.0179
     22 C15         2.5438   -7.9895    0.6171 C.3       1 <0>        -0.0062
     23 C16         3.4343   -8.2703    1.8292 C.3       1 <0>        -0.1507
     24 C17         4.6708   -9.0533    1.3832 C.3       1 <0>         0.0614
     25 O4          5.5024   -9.3155    2.5152 O.3       1 <0>        -0.3099
     26 C18         6.6507  -10.0076    2.2904 C.ar      1 <0>         0.1104
     27 C19         6.9722  -10.4203    1.0058 C.ar      1 <0>        -0.1786
     28 C20         8.1394  -11.1237    0.7787 C.ar      1 <0>        -0.1136
     29 C21         8.9878  -11.4170    1.8328 C.ar      1 <0>         0.0730
     30 C22         8.6679  -11.0061    3.1156 C.ar      1 <0>        -0.1109
     31 C23         7.5046  -10.2969    3.3445 C.ar      1 <0>        -0.1156
     32 F1         10.1287  -12.1053    1.6094 F         1 <0>        -0.1339
     33 Cl1         2.6089   -2.6229   -4.5639 Cl        1 <0>        -0.0623
     34 N3          2.3569    0.3038   -4.1485 N.pl3     1 <0>        -0.8495
     35 H3          1.0053    1.8021    0.0021 H         1 <0>         0.0609
     36 H4         -0.5445    1.7859   -0.8732 H         1 <0>         0.0614
     37 H5         -0.5275    1.7763    0.9067 H         1 <0>         0.1085
     38 H6          1.1342    1.2357   -2.0059 H         1 <0>         0.1464
     39 H7          1.3215   -3.6961   -2.2880 H         1 <0>         0.1333
     40 H8          0.5557   -4.5989   -0.8931 H         1 <0>         0.3942
     41 H9          0.8503   -4.1821    2.4284 H         1 <0>         0.1283
     42 H10         0.0859   -5.7273    2.8748 H         1 <0>         0.1026
     43 H11         2.2242   -5.3523    0.7288 H         1 <0>         0.1317
     44 H12         2.4891   -6.0421    2.3475 H         1 <0>         0.1399
     45 H13         0.9276   -6.4898   -0.8690 H         1 <0>         0.1341
     46 H14         0.1862   -8.0624   -0.4903 H         1 <0>         0.1380
     47 H15        -2.0715   -8.2215   -1.0778 H         1 <0>         0.0481
     48 H16        -3.2481   -7.4047   -0.0210 H         1 <0>         0.0566
     49 H17        -3.2712   -7.1071   -1.7758 H         1 <0>         0.1042
     50 H18         2.2339   -8.9329    0.1676 H         1 <0>         0.1368
     51 H19         3.1003   -7.4039   -0.1147 H         1 <0>         0.1356
     52 H20         3.7442   -7.3269    2.2786 H         1 <0>         0.1012
     53 H21         2.8778   -8.8559    2.5610 H         1 <0>         0.1013
     54 H22         4.3608   -9.9967    0.9337 H         1 <0>         0.0740
     55 H23         5.2272   -8.4676    0.6514 H         1 <0>         0.0740
     56 H24         6.3103  -10.1922    0.1835 H         1 <0>         0.1353
     57 H25         8.3900  -11.4451   -0.2214 H         1 <0>         0.1422
     58 H26         9.3304  -11.2359    3.9370 H         1 <0>         0.1482
     59 H27         7.2577   -9.9722    4.3445 H         1 <0>         0.1439
     60 H28         2.3233    1.2719   -4.0992 H         1 <0>         0.4097
     61 H29         2.7876   -0.1289   -4.9023 H         1 <0>         0.4089
     62 H30         0.8896   -7.7426    1.7837 H         1 <0>         0.4252
@<TRIPOS>BOND
     1    1    2 1
     2    1   35 1
     3    1   36 1
     4    1   37 1
     5    2    3 1
     6    3    8 ar
     7    3    4 ar
     8    4    5 ar
     9    4   38 1
    10    5    6 ar
    11    5   34 1
    12    6    7 ar
    13    6   33 1
    14    7    8 ar
    15    7   39 1
    16    8    9 1
    17    9   10 2
    18    9   11 am
    19   11   12 1
    20   11   40 1
    21   12   13 1
    22   12   18 1
    23   12   14 1
    24   14   15 1
    25   14   41 1
    26   14   42 1
    27   15   16 1
    28   15   43 1
    29   15   44 1
    30   16   17 1
    31   16   22 1
    32   16   62 1
    33   17   18 1
    34   17   45 1
    35   17   46 1
    36   18   19 1
    37   18   20 1
    38   20   21 1
    39   21   47 1
    40   21   48 1
    41   21   49 1
    42   22   23 1
    43   22   50 1
    44   22   51 1
    45   23   24 1
    46   23   52 1
    47   23   53 1
    48   24   25 1
    49   24   54 1
    50   24   55 1
    51   25   26 1
    52   26   31 ar
    53   26   27 ar
    54   27   28 ar
    55   27   56 1
    56   28   29 ar
    57   28   57 1
    58   29   30 ar
    59   29   32 1
    60   30   31 ar
    61   30   58 1
    62   31   59 1
    63   34   60 1
    64   34   61 1
@<TRIPOS>MOLECULE
ZINC03830564
   62    64     0     0     0
SMALL
USER_CHARGES

@<TRIPOS>ATOM
      1 C1         -0.0173    1.4248    0.0099 C.3       1 <0>         0.0173
      2 O1          0.0021   -0.0041    0.0020 O.3       1 <0>        -0.2768
      3 C2          0.6048   -0.6061   -1.0540 C.ar      1 <0>         0.2482
      4 C3          1.1714    0.1577   -2.0595 C.ar      1 <0>        -0.2974
      5 C4          1.7875   -0.4643   -3.1379 C.ar      1 <0>         0.3044
      6 C5          1.8368   -1.8562   -3.2112 C.ar      1 <0>        -0.1594
      7 C6          1.2804   -2.6188   -2.2247 C.ar      1 <0>         0.0124
      8 C7          0.6619   -2.0064   -1.1291 C.ar      1 <0>        -0.2376
      9 C8          0.0677   -2.8282   -0.0619 C.2       1 <0>         0.5803
     10 O2         -0.4739   -2.2937    0.8871 O.2       1 <0>        -0.5144
     11 N1          0.1238   -4.1727   -0.1363 N.am      1 <0>        -0.7279
     12 C9         -0.4675   -4.9905    0.9257 C.3       1 <0>         0.1426
     13 H1         -0.3382   -4.4904    1.8855 H         1 <0>         0.1147
     14 C10        -1.9606   -5.1884    0.6484 C.3       1 <0>        -0.1574
     15 C11        -2.5547   -6.1082    1.7173 C.3       1 <0>        -0.0121
     16 N2         -1.8729   -7.4076    1.6837 N.4       1 <0>        -0.3780
     17 C12        -0.4544   -7.2346    2.0193 C.3       1 <0>        -0.0308
     18 C13         0.2219   -6.3574    0.9634 C.3       1 <0>         0.0634
     19 H2          0.1375   -6.8346   -0.0130 H         1 <0>         0.0897
     20 O3          1.6015   -6.1871    1.2946 O.3       1 <0>        -0.3498
     21 C14         2.4612   -7.1803    0.7321 C.3       1 <0>         0.0175
     22 C15        -2.4981   -8.3123    2.6576 C.3       1 <0>        -0.0056
     23 C16        -3.9400   -8.5999    2.2341 C.3       1 <0>        -0.1510
     24 C17        -4.5912   -9.5422    3.2484 C.3       1 <0>         0.0612
     25 O4         -5.9378   -9.8107    2.8528 O.3       1 <0>        -0.3101
     26 C18        -6.6627  -10.6375    3.6523 C.ar      1 <0>         0.1103
     27 C19        -6.0908  -11.1740    4.7964 C.ar      1 <0>        -0.1786
     28 C20        -6.8286  -12.0140    5.6079 C.ar      1 <0>        -0.1136
     29 C21        -8.1381  -12.3209    5.2793 C.ar      1 <0>         0.0729
     30 C22        -8.7100  -11.7865    4.1373 C.ar      1 <0>        -0.1110
     31 C23        -7.9767  -10.9409    3.3276 C.ar      1 <0>        -0.1157
     32 F1         -8.8583  -13.1429    6.0736 F         1 <0>        -0.1339
     33 Cl1         2.6089   -2.6229   -4.5639 Cl        1 <0>        -0.0612
     34 N3          2.3569    0.3038   -4.1485 N.pl3     1 <0>        -0.8498
     35 H3          1.0053    1.8021    0.0021 H         1 <0>         0.0610
     36 H4         -0.5445    1.7859   -0.8732 H         1 <0>         0.0608
     37 H5         -0.5275    1.7763    0.9067 H         1 <0>         0.1075
     38 H6          1.1342    1.2357   -2.0059 H         1 <0>         0.1460
     39 H7          1.3215   -3.6961   -2.2880 H         1 <0>         0.1366
     40 H8          0.5557   -4.5989   -0.8931 H         1 <0>         0.4011
     41 H9         -2.4669   -4.2235    0.6762 H         1 <0>         0.1280
     42 H10        -2.0914   -5.6407   -0.3346 H         1 <0>         0.0936
     43 H11        -2.4236   -5.6548    2.6998 H         1 <0>         0.1373
     44 H12        -3.6177   -6.2510    1.5230 H         1 <0>         0.1408
     45 H13        -0.3681   -6.7573    2.9954 H         1 <0>         0.1434
     46 H14         0.0331   -8.2090    2.0480 H         1 <0>         0.1370
     47 H15         2.1631   -8.1650    1.0923 H         1 <0>         0.0484
     48 H16         2.3857   -7.1529   -0.3549 H         1 <0>         0.0550
     49 H17         3.4905   -6.9808    1.0300 H         1 <0>         0.1046
     50 H18        -1.9380   -9.2465    2.6975 H         1 <0>         0.1365
     51 H19        -2.4951   -7.8445    3.6421 H         1 <0>         0.1371
     52 H20        -4.5001   -7.6657    2.1942 H         1 <0>         0.1015
     53 H21        -3.9430   -9.0676    1.2495 H         1 <0>         0.1005
     54 H22        -4.0310  -10.4764    3.2882 H         1 <0>         0.0740
     55 H23        -4.5881   -9.0744    4.2329 H         1 <0>         0.0745
     56 H24        -5.0691  -10.9353    5.0526 H         1 <0>         0.1356
     57 H25        -6.3836  -12.4318    6.4989 H         1 <0>         0.1423
     58 H26        -9.7315  -12.0270    3.8820 H         1 <0>         0.1482
     59 H27        -8.4246  -10.5203    2.4394 H         1 <0>         0.1438
     60 H28         2.3233    1.2719   -4.0992 H         1 <0>         0.4092
     61 H29         2.7876   -0.1289   -4.9023 H         1 <0>         0.4089
     62 H30        -1.9528   -7.8044    0.7595 H         1 <0>         0.4239
@<TRIPOS>BOND
     1    1    2 1
     2    1   35 1
     3    1   36 1
     4    1   37 1
     5    2    3 1
     6    3    8 ar
     7    3    4 ar
     8    4    5 ar
     9    4   38 1
    10    5    6 ar
    11    5   34 1
    12    6    7 ar
    13    6   33 1
    14    7    8 ar
    15    7   39 1
    16    8    9 1
    17    9   10 2
    18    9   11 am
    19   11   12 1
    20   11   40 1
    21   12   13 1
    22   12   18 1
    23   12   14 1
    24   14   15 1
    25   14   41 1
    26   14   42 1
    27   15   16 1
    28   15   43 1
    29   15   44 1
    30   16   17 1
    31   16   22 1
    32   16   62 1
    33   17   18 1
    34   17   45 1
    35   17   46 1
    36   18   19 1
    37   18   20 1
    38   20   21 1
    39   21   47 1
    40   21   48 1
    41   21   49 1
    42   22   23 1
    43   22   50 1
    44   22   51 1
    45   23   24 1
    46   23   52 1
    47   23   53 1
    48   24   25 1
    49   24   54 1
    50   24   55 1
    51   25   26 1
    52   26   31 ar
    53   26   27 ar
    54   27   28 ar
    55   27   56 1
    56   28   29 ar
    57   28   57 1
    58   29   30 ar
    59   29   32 1
    60   30   31 ar
    61   30   58 1
    62   31   59 1
    63   34   60 1
    64   34   61 1
@<TRIPOS>MOLECULE
ZINC19376338
   32    34     0     0     0
SMALL
USER_CHARGES

@<TRIPOS>ATOM
      1 C1         -0.0239    1.3370    0.2441 C.ar      1 <0>        -0.1256
      2 C2          1.1550    2.0478    0.4568 C.ar      1 <0>        -0.0782
      3 C3          2.3643    1.4231    0.4379 C.ar      1 <0>        -0.1141
      4 C4          2.4311    0.0393    0.2011 C.ar      1 <0>         0.1744
      5 C5          1.2312   -0.6814   -0.0144 C.ar      1 <0>        -0.1375
      6 C6          0.0018   -0.0048    0.0116 C.ar      1 <0>        -0.0809
      7 C7          1.2976   -2.0694   -0.2519 C.ar      1 <0>        -0.0096
      8 C8          2.5231   -2.6645   -0.2643 C.ar      1 <0>        -0.2222
      9 C9          3.6751   -1.8960   -0.0441 C.ar      1 <0>         0.4150
     10 N1          3.6064   -0.5993    0.1777 N.ar      1 <0>        -0.5363
     11 N2          4.9157   -2.5156   -0.0597 N.pl3     1 <0>        -0.6266
     12 C10         6.1561   -1.7247   -0.0617 C.3       1 <0>         0.1015
     13 C11         7.0719   -2.2550    1.0465 C.3       1 <0>        -0.0225
     14 N3          7.2730   -3.6982    0.8653 N.4       1 <0>        -0.5046
     15 C12         5.9976   -4.4059    1.0344 C.3       1 <0>        -0.0221
     16 C13         5.0286   -3.9823   -0.0687 C.3       1 <0>         0.0992
     17 H1         -0.9708    1.8557    0.2683 H         1 <0>         0.1324
     18 H2          1.1089    3.1113    0.6392 H         1 <0>         0.1343
     19 H3          3.2692    1.9888    0.6039 H         1 <0>         0.1349
     20 H4         -0.9189   -0.5453   -0.1515 H         1 <0>         0.1333
     21 H5          0.4000   -2.6463   -0.4193 H         1 <0>         0.1464
     22 H6          2.6072   -3.7262   -0.4432 H         1 <0>         0.1365
     23 H7          6.6530   -1.8250   -1.0266 H         1 <0>         0.0880
     24 H8          5.9227   -0.6768    0.1263 H         1 <0>         0.1390
     25 H9          8.0340   -1.7450    0.9980 H         1 <0>         0.1449
     26 H10         6.6116   -2.0712    2.0173 H         1 <0>         0.1341
     27 H11         7.6328   -3.8727   -0.0611 H         1 <0>         0.4286
     28 H12         6.1681   -5.4809    0.9769 H         1 <0>         0.1469
     29 H13         5.5698   -4.1571    2.0056 H         1 <0>         0.1344
     30 H14         4.0501   -4.4261    0.1146 H         1 <0>         0.1284
     31 H15         5.4097   -4.3144   -1.0344 H         1 <0>         0.0943
     32 H16         7.9351   -4.0327    1.5492 H         1 <0>         0.4339
@<TRIPOS>BOND
     1    1    6 ar
     2    1    2 ar
     3    1   17 1
     4    2    3 ar
     5    2   18 1
     6    3    4 ar
     7    3   19 1
     8    4   10 ar
     9    4    5 ar
    10    5    6 ar
    11    5    7 ar
    12    6   20 1
    13    7    8 ar
    14    7   21 1
    15    8    9 ar
    16    8   22 1
    17    9   10 ar
    18    9   11 1
    19   11   16 1
    20   11   12 1
    21   12   13 1
    22   12   23 1
    23   12   24 1
    24   13   14 1
    25   13   25 1
    26   13   26 1
    27   14   15 1
    28   14   27 1
    29   14   32 1
    30   15   16 1
    31   15   28 1
    32   15   29 1
    33   16   30 1
    34   16   31 1
@<TRIPOS>MOLECULE
ZINC13613346
   70    73     0     0     0
SMALL
USER_CHARGES
1-(5-acetyl-4-methyl-thiazol-2-yl)-3-[(1R,2S)-2-[[(3S)-3-[(4-fluorophenyl)methyl]-1-piperidyl]methyl]cyclohexyl]urea
@<TRIPOS>ATOM
      1 C1         -5.6728    3.5355   10.4423 C.3       1 <0>        -0.0985
      2 C2         -4.6582    2.4944   10.0451 C.2       1 <0>         0.1933
      3 C3         -3.7716    1.9589   10.9773 C.2       1 <0>        -0.3113
      4 S1         -2.8609    0.8186    9.9455 S.3       1 <0>         0.1442
      5 C4         -3.6901    1.1481    8.4559 C.2       1 <0>         0.3169
      6 N1         -4.5788    2.0630    8.8160 N.2       1 <0>        -0.5137
      7 N2         -3.4800    0.5913    7.2086 N.am      1 <0>        -0.6248
      8 C5         -4.2380    0.9759    6.1626 C.2       1 <0>         0.6890
      9 O1         -5.1064    1.8126    6.3164 O.2       1 <0>        -0.4745
     10 N3         -4.0331    0.4330    4.9462 N.am      1 <0>        -0.7457
     11 C6         -4.8570    0.8510    3.8092 C.3       1 <0>         0.1464
     12 H1         -5.0943    1.9108    3.9027 H         1 <0>         0.1167
     13 C7         -6.1528    0.0378    3.7921 C.3       1 <0>        -0.1315
     14 C8         -7.0133    0.4744    2.6047 C.3       1 <0>        -0.1229
     15 C9         -6.2447    0.2367    1.3032 C.3       1 <0>        -0.1247
     16 C10        -4.9489    1.0500    1.3204 C.3       1 <0>        -0.1077
     17 C11        -4.0884    0.6134    2.5078 C.3       1 <0>        -0.1184
     18 H2         -3.8511   -0.4464    2.4143 H         1 <0>         0.1014
     19 C12        -2.7926    1.4266    2.5249 C.3       1 <0>        -0.0042
     20 C13        -1.3448   -0.3944    3.1945 C.3       1 <0>        -0.0167
     21 C14        -0.5437   -0.9679    4.3656 C.3       1 <0>        -0.1472
     22 C15         0.5823    0.0038    4.7329 C.3       1 <0>        -0.1376
     23 C16        -0.0241    1.3672    5.0765 C.3       1 <0>        -0.1063
     24 H3         -0.6734    1.2679    5.9463 H         1 <0>         0.0863
     25 C17        -0.8401    1.8730    3.8848 C.3       1 <0>        -0.0032
     26 C18         1.0969    2.3613    5.3868 C.3       1 <0>        -0.0692
     27 C19         1.8243    1.9254    6.6325 C.ar      1 <0>        -0.1091
     28 C20         1.4045    2.3751    7.8705 C.ar      1 <0>        -0.0849
     29 C21         2.0679    1.9722    9.0140 C.ar      1 <0>        -0.1488
     30 C22         3.1598    1.1261    8.9185 C.ar      1 <0>         0.1092
     31 C23         3.5825    0.6806    7.6776 C.ar      1 <0>        -0.1504
     32 C24         2.9144    1.0806    6.5359 C.ar      1 <0>        -0.0842
     33 F1          3.8119    0.7354   10.0353 F         1 <0>        -0.1325
     34 C25        -3.6351    2.2352   12.3519 C.2       1 <0>         0.4350
     35 O2         -4.3618    3.0514   12.8826 O.2       1 <0>        -0.4405
     36 C26        -2.5875    1.5183   13.1641 C.3       1 <0>        -0.1890
     37 H4         -6.5941    3.0442   10.7553 H         1 <0>         0.0902
     38 H5         -5.2797    4.1299   11.2671 H         1 <0>         0.1003
     39 H6         -5.8785    4.1855    9.5918 H         1 <0>         0.0817
     40 H7         -2.7871   -0.0763    7.0859 H         1 <0>         0.4219
     41 H8         -3.3401   -0.2346    4.8235 H         1 <0>         0.3858
     42 H9         -6.7004    0.2071    4.7192 H         1 <0>         0.0818
     43 H10        -5.9155   -1.0220    3.6986 H         1 <0>         0.0717
     44 H11        -7.2506    1.5341    2.6981 H         1 <0>         0.0725
     45 H12        -7.9365   -0.1050    2.5924 H         1 <0>         0.0786
     46 H13        -6.8577    0.5478    0.4573 H         1 <0>         0.0807
     47 H14        -6.0074   -0.8230    1.2097 H         1 <0>         0.0694
     48 H15        -5.1862    2.1097    1.4138 H         1 <0>         0.0813
     49 H16        -4.4013    0.8806    0.3932 H         1 <0>         0.0849
     50 H17        -3.0228    2.4727    2.7269 H         1 <0>         0.1320
     51 H18        -2.2987    1.3436    1.5568 H         1 <0>         0.1388
     52 H19        -2.1556   -1.0770    2.9402 H         1 <0>         0.1264
     53 H20        -0.6897   -0.2715    2.3320 H         1 <0>         0.1378
     54 H21        -1.2013   -1.1039    5.2242 H         1 <0>         0.0746
     55 H22        -0.1160   -1.9284    4.0782 H         1 <0>         0.1198
     56 H23         1.2618    0.1101    3.8873 H         1 <0>         0.0892
     57 H24         1.1288   -0.3794    5.5946 H         1 <0>         0.1011
     58 H25        -1.2845    2.8372    4.1319 H         1 <0>         0.1269
     59 H26        -0.1875    1.9851    3.0190 H         1 <0>         0.1349
     60 H27         1.7955    2.3937    4.5507 H         1 <0>         0.0889
     61 H28         0.6708    3.3523    5.5428 H         1 <0>         0.0863
     62 H29         0.5554    3.0383    7.9444 H         1 <0>         0.1302
     63 H30         1.7372    2.3204    9.9814 H         1 <0>         0.1395
     64 H31         4.4339    0.0203    7.6019 H         1 <0>         0.1399
     65 H32         3.2442    0.7335    5.5679 H         1 <0>         0.1333
     66 H33        -1.7354    2.0413   13.1451 H         1 <0>         0.0904
     67 H34        -2.9307    1.4200   14.1940 H         1 <0>         0.0983
     68 H35        -2.4155    0.5280   12.7424 H         1 <0>         0.0792
     69 N4         -1.9210    0.9057    3.5983 N.4       1 <0>        -0.4126
     70 H36        -2.4820    0.7719    4.4478 H         1 <0>         0.4031
@<TRIPOS>BOND
     1    1    2 1
     2    1   37 1
     3    1   38 1
     4    1   39 1
     5    2    6 1
     6    2    3 2
     7    3    4 1
     8    3   34 1
     9    4    5 1
    10    5    6 2
    11    5    7 1
    12    7    8 am
    13    7   40 1
    14    8    9 2
    15    8   10 am
    16   10   11 1
    17   10   41 1
    18   11   12 1
    19   11   17 1
    20   11   13 1
    21   13   14 1
    22   13   42 1
    23   13   43 1
    24   14   15 1
    25   14   44 1
    26   14   45 1
    27   15   16 1
    28   15   46 1
    29   15   47 1
    30   16   17 1
    31   16   48 1
    32   16   49 1
    33   17   18 1
    34   17   19 1
    35   19   50 1
    36   19   51 1
    37   19   69 1
    38   20   21 1
    39   20   52 1
    40   20   53 1
    41   20   69 1
    42   21   22 1
    43   21   54 1
    44   21   55 1
    45   22   23 1
    46   22   56 1
    47   22   57 1
    48   23   24 1
    49   23   25 1
    50   23   26 1
    51   25   58 1
    52   25   59 1
    53   25   69 1
    54   26   27 1
    55   26   60 1
    56   26   61 1
    57   27   32 ar
    58   27   28 ar
    59   28   29 ar
    60   28   62 1
    61   29   30 ar
    62   29   63 1
    63   30   31 ar
    64   30   33 1
    65   31   32 ar
    66   31   64 1
    67   32   65 1
    68   34   35 2
    69   34   36 1
    70   36   66 1
    71   36   67 1
    72   36   68 1
    73   69   70 1
@<TRIPOS>MOLECULE
ZINC13737041
   45    46     0     0     0
SMALL
USER_CHARGES
(3S)-5-methoxy-N,N-dipropyl-chroman-3-amine
@<TRIPOS>ATOM
      1 C1          0.0113    1.5677   -2.3850 C.3       1 <0>        -0.1559
      2 C2         -0.7367    1.8857   -1.0887 C.3       1 <0>        -0.1648
      3 C3         -0.0629    1.1629    0.0794 C.3       1 <0>        -0.0113
      4 C4         -1.8742    0.6298    1.5952 C.3       1 <0>        -0.0186
      5 C5         -2.9350    0.8218    0.5094 C.3       1 <0>        -0.1545
      6 C6         -4.1861    0.0189    0.8711 C.3       1 <0>        -0.1575
      7 C7          0.2054    1.5192    2.4592 C.3       1 <0>        -0.0106
      8 H1          1.0935    2.0940    2.1965 H         1 <0>         0.1506
      9 C8         -0.4607    2.1338    3.6928 C.3       1 <0>        -0.0815
     10 C9          0.3834    1.8639    4.9128 C.ar      1 <0>        -0.2028
     11 C10         1.3520    0.8765    4.9160 C.ar      1 <0>         0.1536
     12 C11         2.1047    0.6520    6.0646 C.ar      1 <0>        -0.1718
     13 C12         1.8910    1.4111    7.1976 C.ar      1 <0>        -0.0321
     14 C13         0.9263    2.4000    7.1951 C.ar      1 <0>        -0.2274
     15 C14         0.1720    2.6275    6.0542 C.ar      1 <0>         0.1712
     16 O1         -0.7763    3.6009    6.0519 O.3       1 <0>        -0.3171
     17 C15        -0.9409    4.3491    7.2582 C.3       1 <0>         0.0237
     18 O2          1.5966    0.1104    3.8211 O.3       1 <0>        -0.2854
     19 C16         0.6038    0.0763    2.7948 C.3       1 <0>         0.0534
     20 H2         -0.4687    2.0827   -3.2172 H         1 <0>         0.0776
     21 H3          1.0454    1.9015   -2.2990 H         1 <0>         0.0665
     22 H4         -0.0099    0.4924   -2.5622 H         1 <0>         0.0671
     23 H5         -1.7708    1.5520   -1.1747 H         1 <0>         0.0994
     24 H6         -0.7155    2.9610   -0.9115 H         1 <0>         0.0860
     25 H7         -0.1299    0.0856   -0.0727 H         1 <0>         0.1327
     26 H8          0.9851    1.4577    0.1332 H         1 <0>         0.1310
     27 H9         -1.5315   -0.4050    1.5893 H         1 <0>         0.1330
     28 H10        -2.3042    0.8646    2.5688 H         1 <0>         0.1314
     29 H11        -3.1907    1.8788    0.4342 H         1 <0>         0.0864
     30 H12        -2.5436    0.4738   -0.4465 H         1 <0>         0.0964
     31 H13        -4.5775    0.3670    1.8271 H         1 <0>         0.0666
     32 H14        -4.9419    0.1558    0.0976 H         1 <0>         0.0782
     33 H15        -3.9305   -1.0380    0.9463 H         1 <0>         0.0673
     34 H16        -0.5622    3.2099    3.5520 H         1 <0>         0.1078
     35 H17        -1.4476    1.6919    3.8302 H         1 <0>         0.0961
     36 H18         2.8601   -0.1199    6.0697 H         1 <0>         0.1412
     37 H19         2.4784    1.2321    8.0861 H         1 <0>         0.1430
     38 H20         0.7596    2.9950    8.0810 H         1 <0>         0.1398
     39 H21        -1.2154    3.6747    8.0694 H         1 <0>         0.0630
     40 H22        -0.0057    4.8519    7.5044 H         1 <0>         0.0630
     41 H23        -1.7273    5.0913    7.1210 H         1 <0>         0.1077
     42 H24        -0.2692   -0.4733    3.1466 H         1 <0>         0.0885
     43 H25         1.0101   -0.4083    1.9070 H         1 <0>         0.1259
     44 N1         -0.7483    1.5500    1.3304 N.4       1 <0>        -0.3879
     45 H26        -1.1141    2.5040    1.2288 H         1 <0>         0.4308
@<TRIPOS>BOND
     1    1    2 1
     2    1   20 1
     3    1   21 1
     4    1   22 1
     5    2    3 1
     6    2   23 1
     7    2   24 1
     8    3   25 1
     9    3   26 1
    10    3   44 1
    11    4    5 1
    12    4   27 1
    13    4   28 1
    14    4   44 1
    15    5    6 1
    16    5   29 1
    17    5   30 1
    18    6   31 1
    19    6   32 1
    20    6   33 1
    21    7    8 1
    22    7   19 1
    23    7    9 1
    24    7   44 1
    25    9   10 1
    26    9   34 1
    27    9   35 1
    28   10   15 ar
    29   10   11 ar
    30   11   12 ar
    31   11   18 1
    32   12   13 ar
    33   12   36 1
    34   13   14 ar
    35   13   37 1
    36   14   15 ar
    37   14   38 1
    38   15   16 1
    39   16   17 1
    40   17   39 1
    41   17   40 1
    42   17   41 1
    43   18   19 1
    44   19   42 1
    45   19   43 1
    46   44   45 1
@<TRIPOS>MOLECULE
ZINC13737043
   45    46     0     0     0
SMALL
USER_CHARGES
(3R)-5-methoxy-N,N-dipropyl-chroman-3-amine
@<TRIPOS>ATOM
      1 C1          5.2890    8.1412    0.2925 C.3       1 <0>        -0.1561
      2 C2          5.5677    6.6764   -0.0502 C.3       1 <0>        -0.1491
      3 C3          4.4108    5.8072    0.4468 C.3       1 <0>        -0.0166
      4 C4          5.8394    3.8973    0.8639 C.3       1 <0>        -0.0145
      5 C5          5.5078    3.8573    2.3570 C.3       1 <0>        -0.1487
      6 C6          6.7540    3.4497    3.1455 C.3       1 <0>        -0.1548
      7 C7          3.4934    3.5680    0.3632 C.3       1 <0>        -0.0122
      8 H1          3.1504    3.7102    1.3880 H         1 <0>         0.1529
      9 C8          3.8418    2.0950    0.1335 C.3       1 <0>        -0.0785
     10 C9          2.5775    1.2748    0.0919 C.ar      1 <0>        -0.2029
     11 C10         1.3434    1.8622   -0.1208 C.ar      1 <0>         0.1532
     12 C11         0.2002    1.0700   -0.1641 C.ar      1 <0>        -0.1715
     13 C12         0.2922   -0.2965    0.0081 C.ar      1 <0>        -0.0323
     14 C13         1.5235   -0.8845    0.2250 C.ar      1 <0>        -0.2273
     15 C14         2.6664   -0.1006    0.2676 C.ar      1 <0>         0.1711
     16 O1          3.8773   -0.6794    0.4813 O.3       1 <0>        -0.3171
     17 C15         3.8970   -2.0978    0.6533 C.3       1 <0>         0.0237
     18 O2          1.2085    3.2039   -0.2859 O.3       1 <0>        -0.2846
     19 C16         2.3769    3.9566   -0.6145 C.3       1 <0>         0.0481
     20 H2          4.3639    8.4574   -0.1895 H         1 <0>         0.0676
     21 H3          5.1913    8.2494    1.3727 H         1 <0>         0.0671
     22 H4          6.1132    8.7604   -0.0616 H         1 <0>         0.0781
     23 H5          6.4928    6.3601    0.4318 H         1 <0>         0.0868
     24 H6          5.6654    6.5682   -1.1304 H         1 <0>         0.0866
     25 H7          3.4857    6.1234   -0.0352 H         1 <0>         0.1300
     26 H8          4.3131    5.9154    1.5270 H         1 <0>         0.1353
     27 H9          6.0850    2.8928    0.5192 H         1 <0>         0.1319
     28 H10         6.6914    4.5567    0.6985 H         1 <0>         0.1344
     29 H11         5.1785    4.8441    2.6826 H         1 <0>         0.0849
     30 H12         4.7130    3.1325    2.5334 H         1 <0>         0.0859
     31 H13         7.0833    2.4630    2.8199 H         1 <0>         0.0676
     32 H14         7.5487    4.1745    2.9691 H         1 <0>         0.0668
     33 H15         6.5177    3.4212    4.2092 H         1 <0>         0.0772
     34 H16         4.4764    1.7422    0.9465 H         1 <0>         0.1091
     35 H17         4.3733    1.9902   -0.8123 H         1 <0>         0.0951
     36 H18        -0.7632    1.5260   -0.3377 H         1 <0>         0.1412
     37 H19        -0.5985   -0.9063   -0.0272 H         1 <0>         0.1429
     38 H20         1.5957   -1.9535    0.3610 H         1 <0>         0.1397
     39 H21         3.2872   -2.3678    1.5155 H         1 <0>         0.0629
     40 H22         3.4965   -2.5778   -0.2396 H         1 <0>         0.0630
     41 H23         4.9225   -2.4299    0.8154 H         1 <0>         0.1075
     42 H24         2.6861    3.7282   -1.6344 H         1 <0>         0.0890
     43 H25         2.1644    5.0220   -0.5252 H         1 <0>         0.1269
     44 N1          4.6846    4.3993    0.0898 N.4       1 <0>        -0.3877
     45 H26         4.9058    4.3461   -0.9114 H         1 <0>         0.4277
@<TRIPOS>BOND
     1    1    2 1
     2    1   20 1
     3    1   21 1
     4    1   22 1
     5    2    3 1
     6    2   23 1
     7    2   24 1
     8    3   25 1
     9    3   26 1
    10    3   44 1
    11    4    5 1
    12    4   27 1
    13    4   28 1
    14    4   44 1
    15    5    6 1
    16    5   29 1
    17    5   30 1
    18    6   31 1
    19    6   32 1
    20    6   33 1
    21    7    8 1
    22    7   19 1
    23    7    9 1
    24    7   44 1
    25    9   10 1
    26    9   34 1
    27    9   35 1
    28   10   15 ar
    29   10   11 ar
    30   11   12 ar
    31   11   18 1
    32   12   13 ar
    33   12   36 1
    34   13   14 ar
    35   13   37 1
    36   14   15 ar
    37   14   38 1
    38   15   16 1
    39   16   17 1
    40   17   39 1
    41   17   40 1
    42   17   41 1
    43   18   19 1
    44   19   42 1
    45   19   43 1
    46   44   45 1
@<TRIPOS>MOLECULE
ZINC04632541
   54    57     0     0     0
SMALL
USER_CHARGES
3-[2-[4-(3,4-dimethylphenyl)piperazin-1-yl]ethyl]isoindolin-1-one
@<TRIPOS>ATOM
      1 C1          7.8495   -7.8113   -8.5815 C.3       1 <0>        -0.1249
      2 C2          7.5575   -7.0117   -7.3380 C.ar      1 <0>        -0.0892
      3 C3          8.2223   -5.8202   -7.1119 C.ar      1 <0>        -0.0896
      4 C4          7.9530   -5.0821   -5.9763 C.ar      1 <0>        -0.1644
      5 C5          7.0203   -5.5428   -5.0554 C.ar      1 <0>         0.0817
      6 C6          6.3545   -6.7398   -5.2856 C.ar      1 <0>        -0.1253
      7 C7          6.6252   -7.4706   -6.4259 C.ar      1 <0>        -0.0577
      8 C8          5.9032   -8.7695   -6.6765 C.3       1 <0>        -0.1254
      9 N1          6.7486   -4.8009   -3.9036 N.pl3     1 <0>        -0.4850
     10 C9          7.5607   -3.5769   -3.8617 C.3       1 <0>         0.0204
     11 C10         7.2927   -2.8347   -2.5503 C.3       1 <0>         0.0027
     12 C11         5.0490   -3.7410   -2.4959 C.3       1 <0>        -0.0019
     13 C12         5.3170   -4.4833   -3.8072 C.3       1 <0>         0.0256
     14 C13         5.5754   -1.7368   -1.2426 C.3       1 <0>        -0.0061
     15 C14         4.1385   -1.2144   -1.2995 C.3       1 <0>        -0.1573
     16 C15         3.8408   -0.4018   -0.0377 C.3       1 <0>         0.1875
     17 H1          4.0710   -0.9903    0.8504 H         1 <0>         0.1123
     18 C16         2.3920    0.0171   -0.0208 C.ar      1 <0>        -0.0963
     19 C17         1.2083   -0.6840   -0.0132 C.ar      1 <0>        -0.0985
     20 C18         0.0021   -0.0041    0.0020 C.ar      1 <0>        -0.0822
     21 C19        -0.0167    1.3796    0.0096 C.ar      1 <0>        -0.1135
     22 C20         1.1644    2.0922    0.0022 C.ar      1 <0>        -0.0412
     23 C21         2.3846    1.4137   -0.0132 C.ar      1 <0>        -0.1557
     24 C22         3.7831    1.8839   -0.0249 C.2       1 <0>         0.5626
     25 O1          4.1238    3.0507   -0.0221 O.2       1 <0>        -0.5036
     26 N2          4.6266    0.8374   -0.0391 N.am      1 <0>        -0.7316
     27 H2          7.1801   -7.4959   -9.3818 H         1 <0>         0.0752
     28 H3          8.8830   -7.6455   -8.8857 H         1 <0>         0.0699
     29 H4          7.6967   -8.8709   -8.3764 H         1 <0>         0.0750
     30 H5          8.9497   -5.4643   -7.8265 H         1 <0>         0.1290
     31 H6          8.4693   -4.1496   -5.8026 H         1 <0>         0.1255
     32 H7          5.6256   -7.0984   -4.5739 H         1 <0>         0.1268
     33 H8          4.9895   -8.5748   -7.2380 H         1 <0>         0.0765
     34 H9          6.5462   -9.4379   -7.2492 H         1 <0>         0.0775
     35 H10         5.6519   -9.2352   -5.7236 H         1 <0>         0.0695
     36 H11         7.2963   -2.9361   -4.7029 H         1 <0>         0.0707
     37 H12         8.6170   -3.8391   -3.9219 H         1 <0>         0.1300
     38 H13         7.8722   -1.9117   -2.5299 H         1 <0>         0.1378
     39 H14         7.5828   -3.4648   -1.7096 H         1 <0>         0.1419
     40 H15         5.3135   -4.3818   -1.6547 H         1 <0>         0.1427
     41 H16         3.9927   -3.4788   -2.4357 H         1 <0>         0.1379
     42 H17         5.0271   -3.8528   -4.6478 H         1 <0>         0.0684
     43 H18         4.7375   -5.4062   -3.8277 H         1 <0>         0.1280
     44 H19         6.2657   -0.8954   -1.1810 H         1 <0>         0.1289
     45 H20         5.6968   -2.3713   -0.3647 H         1 <0>         0.1391
     46 H21         3.4482   -2.0558   -1.3610 H         1 <0>         0.1062
     47 H22         4.0170   -0.5799   -2.1774 H         1 <0>         0.0980
     48 H23         1.2198   -1.7639   -0.0187 H         1 <0>         0.1322
     49 H24        -0.9267   -0.5552    0.0076 H         1 <0>         0.1396
     50 H25        -0.9607    1.9042    0.0169 H         1 <0>         0.1405
     51 H26         1.1453    3.1720    0.0078 H         1 <0>         0.1382
     52 H27         5.5950    0.8923   -0.0486 H         1 <0>         0.4229
     53 N3          5.8544   -2.5019   -2.4766 N.4       1 <0>        -0.3975
     54 H28         5.6026   -1.9274   -3.2894 H         1 <0>         0.4261
@<TRIPOS>BOND
     1    1    2 1
     2    1   27 1
     3    1   28 1
     4    1   29 1
     5    2    7 ar
     6    2    3 ar
     7    3    4 ar
     8    3   30 1
     9    4    5 ar
    10    4   31 1
    11    5    6 ar
    12    5    9 1
    13    6    7 ar
    14    6   32 1
    15    7    8 1
    16    8   33 1
    17    8   34 1
    18    8   35 1
    19    9   13 1
    20    9   10 1
    21   10   11 1
    22   10   36 1
    23   10   37 1
    24   11   38 1
    25   11   39 1
    26   11   53 1
    27   12   13 1
    28   12   40 1
    29   12   41 1
    30   12   53 1
    31   13   42 1
    32   13   43 1
    33   14   15 1
    34   14   44 1
    35   14   45 1
    36   14   53 1
    37   15   16 1
    38   15   46 1
    39   15   47 1
    40   16   17 1
    41   16   26 1
    42   16   18 1
    43   18   23 ar
    44   18   19 ar
    45   19   20 ar
    46   19   48 1
    47   20   21 ar
    48   20   49 1
    49   21   22 ar
    50   21   50 1
    51   22   23 ar
    52   22   51 1
    53   23   24 1
    54   24   25 2
    55   24   26 am
    56   26   52 1
    57   53   54 1
@<TRIPOS>MOLECULE
ZINC03827164
   54    57     0     0     0
SMALL
USER_CHARGES
3-[2-[4-(3,4-dimethylphenyl)piperazin-1-yl]ethyl]isoindolin-1-one
@<TRIPOS>ATOM
      1 C1          1.7632   -0.4862    5.8957 C.3       1 <0>        -0.1249
      2 C2          1.1087    0.0582    4.6522 C.ar      1 <0>        -0.0892
      3 C3          1.6104   -0.2734    3.4068 C.ar      1 <0>        -0.0896
      4 C4          1.0096    0.2191    2.2652 C.ar      1 <0>        -0.1641
      5 C5         -0.0939    1.0567    2.3690 C.ar      1 <0>         0.0816
      6 C6         -0.5952    1.3877    3.6213 C.ar      1 <0>        -0.1256
      7 C7          0.0077    0.8877    4.7590 C.ar      1 <0>        -0.0577
      8 C8         -0.5355    1.2463    6.1182 C.3       1 <0>        -0.1251
      9 N1         -0.7014    1.5602    1.2164 N.pl3     1 <0>        -0.4850
     10 C9         -0.0127    1.0858    0.0080 C.3       1 <0>         0.0204
     11 C10        -0.7538    1.5933   -1.2312 C.3       1 <0>         0.0026
     12 C11        -1.4953    3.5359    0.0077 C.3       1 <0>        -0.0018
     13 C12        -0.7542    3.0285    1.2469 C.3       1 <0>         0.0257
     14 C13        -1.4446    3.5911   -2.4129 C.3       1 <0>        -0.0061
     15 C14        -1.2602    5.1090   -2.4650 C.3       1 <0>        -0.1571
     16 C15        -1.9252    5.6605   -3.7277 C.3       1 <0>         0.1876
     17 H1         -2.9710    5.3555   -3.7636 H         1 <0>         0.1124
     18 C16        -1.8216    7.1650   -3.7532 C.ar      1 <0>        -0.0963
     19 C17        -2.2800    8.1556   -2.9157 C.ar      1 <0>        -0.0983
     20 C18        -2.0219    9.4839   -3.2096 C.ar      1 <0>        -0.0822
     21 C19        -1.3036    9.8187   -4.3441 C.ar      1 <0>        -0.1135
     22 C20        -0.8395    8.8333   -5.1904 C.ar      1 <0>        -0.0412
     23 C21        -1.0957    7.4917   -4.9008 C.ar      1 <0>        -0.1558
     24 C22        -0.7408    6.2396   -5.5959 C.2       1 <0>         0.5627
     25 O1         -0.1073    6.1753   -6.6313 O.2       1 <0>        -0.5036
     26 N2         -1.2186    5.1800   -4.9206 N.am      1 <0>        -0.7318
     27 H2          1.3010   -1.4364    6.1634 H         1 <0>         0.0763
     28 H3          2.8263   -0.6390    5.7096 H         1 <0>         0.0693
     29 H4          1.6358    0.2230    6.7136 H         1 <0>         0.0745
     30 H5          2.4708   -0.9213    3.3269 H         1 <0>         0.1290
     31 H6          1.3992   -0.0438    1.2928 H         1 <0>         0.1255
     32 H7         -1.4556    2.0350    3.7054 H         1 <0>         0.1268
     33 H8         -1.2863    0.5136    6.4143 H         1 <0>         0.0781
     34 H9          0.2767    1.2483    6.8451 H         1 <0>         0.0769
     35 H10        -0.9899    2.2362    6.0783 H         1 <0>         0.0684
     36 H11         0.0021   -0.0041    0.0020 H         1 <0>         0.1300
     37 H12         1.0098    1.4634    0.0003 H         1 <0>         0.0707
     38 H13        -0.2280    1.2668   -2.1285 H         1 <0>         0.1378
     39 H14        -1.7678    1.1933   -1.2378 H         1 <0>         0.1419
     40 H15        -1.5101    4.6258    0.0137 H         1 <0>         0.1379
     41 H16        -2.5177    3.1580    0.0152 H         1 <0>         0.1427
     42 H17         0.2597    3.4285    1.2535 H         1 <0>         0.0685
     43 H18        -1.2798    3.3552    2.1442 H         1 <0>         0.1280
     44 H19        -0.9858    3.1390   -3.2922 H         1 <0>         0.1288
     45 H20        -2.5086    3.3547   -2.3961 H         1 <0>         0.1391
     46 H21        -1.7190    5.5612   -1.5857 H         1 <0>         0.1063
     47 H22        -0.1963    5.3454   -2.4818 H         1 <0>         0.0978
     48 H23        -2.8409    7.8973   -2.0296 H         1 <0>         0.1322
     49 H24        -2.3818   10.2608   -2.5514 H         1 <0>         0.1396
     50 H25        -1.1059   10.8565   -4.5681 H         1 <0>         0.1405
     51 H26        -0.2790    9.0989   -6.0746 H         1 <0>         0.1382
     52 H27        -1.1138    4.2511   -5.1794 H         1 <0>         0.4228
     53 N3         -0.7798    3.0707   -1.1992 N.4       1 <0>        -0.3974
     54 H28         0.1850    3.4209   -1.1711 H         1 <0>         0.4261
@<TRIPOS>BOND
     1    1    2 1
     2    1   27 1
     3    1   28 1
     4    1   29 1
     5    2    7 ar
     6    2    3 ar
     7    3    4 ar
     8    3   30 1
     9    4    5 ar
    10    4   31 1
    11    5    6 ar
    12    5    9 1
    13    6    7 ar
    14    6   32 1
    15    7    8 1
    16    8   33 1
    17    8   34 1
    18    8   35 1
    19    9   13 1
    20    9   10 1
    21   10   11 1
    22   10   36 1
    23   10   37 1
    24   11   38 1
    25   11   39 1
    26   11   53 1
    27   12   13 1
    28   12   40 1
    29   12   41 1
    30   12   53 1
    31   13   42 1
    32   13   43 1
    33   14   15 1
    34   14   44 1
    35   14   45 1
    36   14   53 1
    37   15   16 1
    38   15   46 1
    39   15   47 1
    40   16   17 1
    41   16   26 1
    42   16   18 1
    43   18   23 ar
    44   18   19 ar
    45   19   20 ar
    46   19   48 1
    47   20   21 ar
    48   20   49 1
    49   21   22 ar
    50   21   50 1
    51   22   23 ar
    52   22   51 1
    53   23   24 1
    54   24   25 2
    55   24   26 am
    56   26   52 1
    57   53   54 1
@<TRIPOS>MOLECULE
ZINC19796155
   42    45     0     0     0
SMALL
USER_CHARGES

@<TRIPOS>ATOM
      1 C1         -0.0670    1.4396   -0.3852 C.3       1 <0>         0.0243
      2 N1         -0.0229   -0.0169   -0.1987 N.3       1 <0>        -0.5428
      3 C2          0.3808   -0.6943   -1.4380 C.3       1 <0>         0.0399
      4 C3          0.2401   -2.2095   -1.2572 C.3       1 <0>         0.1263
      5 N2          0.9912   -2.6085   -0.0572 N.pl3     1 <0>        -0.5953
      6 C4          0.7394   -1.8803    1.1955 C.3       1 <0>         0.1122
      7 C5          0.8604   -0.3781    0.9181 C.3       1 <0>         0.0393
      8 C6          1.9051   -3.6365   -0.1053 C.2       1 <0>         0.5098
      9 N3          2.1670   -4.1290   -1.2643 N.2       1 <0>        -0.6041
     10 C7          3.0130   -5.1503   -1.5719 C.ar      1 <0>         0.1655
     11 C8          2.6280   -6.0848   -2.5372 C.ar      1 <0>        -0.1058
     12 C9          3.4872   -7.1047   -2.8991 C.ar      1 <0>        -0.0230
     13 C10         4.7348   -7.2069   -2.3106 C.ar      1 <0>        -0.1209
     14 C11         5.1212   -6.2977   -1.3402 C.ar      1 <0>        -0.1017
     15 C12         4.2618   -5.2835   -0.9546 C.ar      1 <0>         0.1117
     16 N4          4.6314   -4.4326    0.1003 N.pl3     1 <0>        -0.7261
     17 C13         3.8434   -4.4184    1.2519 C.ar      1 <0>         0.2140
     18 C14         2.4943   -4.0640    1.1729 C.ar      1 <0>        -0.1453
     19 C15         1.7072   -4.1133    2.3240 C.ar      1 <0>        -0.0723
     20 C16         2.2727   -4.4729    3.5311 C.ar      1 <0>        -0.1389
     21 C17         3.6189   -4.7825    3.6069 C.ar      1 <0>        -0.0765
     22 C18         4.3974   -4.7629    2.4751 C.ar      1 <0>        -0.1433
     23 Cl1         2.9987   -8.2627   -4.0966 Cl        1 <0>        -0.0679
     24 H1          0.9359    1.8090   -0.5992 H         1 <0>         0.0255
     25 H2         -0.7279    1.6794   -1.2181 H         1 <0>         0.0711
     26 H3         -0.4416    1.9111    0.5233 H         1 <0>         0.0709
     27 H4         -0.2581   -0.3649   -2.2574 H         1 <0>         0.0878
     28 H5          1.4186   -0.4499   -1.6647 H         1 <0>         0.0378
     29 H6         -0.8117   -2.4673   -1.1334 H         1 <0>         0.0720
     30 H7          0.6453   -2.7216   -2.1299 H         1 <0>         0.1060
     31 H8         -0.2645   -2.1065    1.5551 H         1 <0>         0.0792
     32 H9          1.4746   -2.1748    1.9444 H         1 <0>         0.0984
     33 H10         1.8915   -0.1381    0.6586 H         1 <0>         0.0379
     34 H11         0.5693    0.1807    1.8075 H         1 <0>         0.0892
     35 H12         1.6558   -6.0097   -3.0016 H         1 <0>         0.1375
     36 H13         5.4083   -7.9971   -2.6081 H         1 <0>         0.1357
     37 H14         6.0961   -6.3802   -0.8829 H         1 <0>         0.1326
     38 H15         5.4169   -3.8679    0.0299 H         1 <0>         0.4097
     39 H16         0.6563   -3.8699    2.2709 H         1 <0>         0.1344
     40 H17         1.6613   -4.5124    4.4205 H         1 <0>         0.1323
     41 H18         4.0571   -5.0467    4.5580 H         1 <0>         0.1317
     42 H19         5.4473   -5.0071    2.5424 H         1 <0>         0.1313
@<TRIPOS>BOND
     1    1    2 1
     2    1   24 1
     3    1   25 1
     4    1   26 1
     5    2    7 1
     6    2    3 1
     7    3    4 1
     8    3   27 1
     9    3   28 1
    10    4    5 1
    11    4   29 1
    12    4   30 1
    13    5    6 1
    14    5    8 1
    15    6    7 1
    16    6   31 1
    17    6   32 1
    18    7   33 1
    19    7   34 1
    20    8   18 1
    21    8    9 2
    22    9   10 1
    23   10   15 ar
    24   10   11 ar
    25   11   12 ar
    26   11   35 1
    27   12   13 ar
    28   12   23 1
    29   13   14 ar
    30   13   36 1
    31   14   15 ar
    32   14   37 1
    33   15   16 1
    34   16   17 1
    35   16   38 1
    36   17   22 ar
    37   17   18 ar
    38   18   19 ar
    39   19   20 ar
    40   19   39 1
    41   20   21 ar
    42   20   40 1
    43   21   22 ar
    44   21   41 1
    45   22   42 1
@<TRIPOS>MOLECULE
ZINC19796155
   44    47     0     0     0
SMALL
USER_CHARGES

@<TRIPOS>ATOM
      1 C1         -1.5703   -0.0018   -1.9302 C.3       1 <0>        -0.0497
      2 N1         -0.7527   -0.7171   -0.9414 N.4       1 <0>        -0.3854
      3 C2         -1.0498   -2.1535   -1.0104 C.3       1 <0>        -0.0252
      4 C3         -0.2839   -2.8861    0.0962 C.3       1 <0>         0.1048
      5 N2          1.1441   -2.5548   -0.0269 N.pl3     1 <0>        -0.7052
      6 C4          1.5202   -1.1363   -0.1296 C.3       1 <0>         0.1049
      7 C5          0.6692   -0.4862   -1.2256 C.3       1 <0>        -0.0251
      8 C6          2.0831   -3.5253   -0.0448 C.2       1 <0>         0.6309
      9 C7          2.6112   -3.9094    1.2074 C.ar      1 <0>        -0.2438
     10 C8          2.0495   -3.1929    2.2728 C.ar      1 <0>         0.0055
     11 C9          2.4602   -3.4528    3.5483 C.ar      1 <0>        -0.1817
     12 C10         3.4265   -4.4148    3.8208 C.ar      1 <0>         0.0489
     13 C11         4.0101   -5.1439    2.8276 C.ar      1 <0>        -0.2233
     14 C12         3.6302   -4.9235    1.4921 C.ar      1 <0>         0.3343
     15 N3          4.2865   -5.7106    0.6358 N.pl3     1 <0>        -0.6131
     16 C13         4.1767   -5.7728   -0.7271 C.ar      1 <0>         0.1589
     17 C14         5.0408   -6.7320   -1.2562 C.ar      1 <0>        -0.1157
     18 C15         5.0795   -6.9478   -2.6222 C.ar      1 <0>        -0.0495
     19 C16         4.2642   -6.2154   -3.4643 C.ar      1 <0>        -0.0338
     20 C17         3.4016   -5.2585   -2.9468 C.ar      1 <0>        -0.0846
     21 C18         3.3520   -5.0321   -1.5848 C.ar      1 <0>         0.0769
     22 N4          2.4115   -4.0290   -1.2719 N.pl3     1 <0>        -0.5773
     23 Cl1         4.3195   -6.4929   -5.1771 Cl        1 <0>        -0.0159
     24 H1         -1.3348   -0.3678   -2.9295 H         1 <0>         0.1246
     25 H2         -2.6262   -0.1724   -1.7203 H         1 <0>         0.1321
     26 H3         -1.3566    1.0656   -1.8745 H         1 <0>         0.1321
     27 H4         -2.1201   -2.3101   -0.8766 H         1 <0>         0.1569
     28 H5         -0.7442   -2.5415   -1.9820 H         1 <0>         0.1344
     29 H6         -0.6518   -2.5648    1.0707 H         1 <0>         0.1155
     30 H7         -0.4211   -3.9618   -0.0138 H         1 <0>         0.1302
     31 H8          1.3345   -0.6383    0.8220 H         1 <0>         0.1155
     32 H9          2.5758   -1.0551   -0.3891 H         1 <0>         0.1302
     33 H10         0.9228   -0.9247   -2.1907 H         1 <0>         0.1344
     34 H11         0.8655    0.5856   -1.2504 H         1 <0>         0.1569
     35 H12         1.2975   -2.4405    2.0860 H         1 <0>         0.1502
     36 H13         2.0243   -2.8976    4.3657 H         1 <0>         0.1496
     37 H14         3.7223   -4.5886    4.8448 H         1 <0>         0.1558
     38 H15         4.7590   -5.8851    3.0650 H         1 <0>         0.1623
     39 H16         5.6790   -7.3052   -0.6001 H         1 <0>         0.1677
     40 H17         5.7487   -7.6901   -3.0316 H         1 <0>         0.1653
     41 H18         2.7675   -4.6896   -3.6107 H         1 <0>         0.1565
     42 H19         1.9393   -3.6432   -2.0263 H         1 <0>         0.4255
     43 H20         4.9278   -6.3202    1.0333 H         1 <0>         0.4372
     44 H21        -0.9695   -0.3754   -0.0171 H         1 <0>         0.4310
@<TRIPOS>BOND
     1    1    2 1
     2    1   24 1
     3    1   25 1
     4    1   26 1
     5    2    7 1
     6    2    3 1
     7    2   44 1
     8    3    4 1
     9    3   27 1
    10    3   28 1
    11    4    5 1
    12    4   29 1
    13    4   30 1
    14    5    6 1
    15    5    8 1
    16    6    7 1
    17    6   31 1
    18    6   32 1
    19    7   33 1
    20    7   34 1
    21    8   22 1
    22    8    9 2
    23    9   14 ar
    24    9   10 ar
    25   10   11 ar
    26   10   35 1
    27   11   12 ar
    28   11   36 1
    29   12   13 ar
    30   12   37 1
    31   13   14 ar
    32   13   38 1
    33   14   15 2
    34   15   16 1
    35   15   43 1
    36   16   21 ar
    37   16   17 ar
    38   17   18 ar
    39   17   39 1
    40   18   19 ar
    41   18   40 1
    42   19   20 ar
    43   19   23 1
    44   20   21 ar
    45   20   41 1
    46   21   22 1
    47   22   42 1
@<TRIPOS>MOLECULE
ZINC19796155
   43    46     0     0     0
SMALL
USER_CHARGES

@<TRIPOS>ATOM
      1 C1         -0.0523    1.4387   -0.3863 C.3       1 <0>        -0.0469
      2 N1         -0.0147   -0.0168   -0.1908 N.4       1 <0>        -0.3852
      3 C2          0.4863   -0.6601   -1.4120 C.3       1 <0>        -0.0213
      4 C3          0.4181   -2.1823   -1.2510 C.3       1 <0>         0.1002
      5 N2          1.1441   -2.5548   -0.0269 N.pl3     1 <0>        -0.6180
      6 C4          0.8178   -1.8405    1.2170 C.3       1 <0>         0.0860
      7 C5          0.8671   -0.3344    0.9395 C.3       1 <0>        -0.0221
      8 C6          2.1017   -3.5432   -0.0451 C.2       1 <0>         0.5019
      9 N3          2.4234   -4.0210   -1.1951 N.2       1 <0>        -0.5760
     10 C7          3.3217   -5.0050   -1.4750 C.ar      1 <0>         0.1390
     11 C8          3.0096   -5.9522   -2.4541 C.ar      1 <0>        -0.0932
     12 C9          3.9229   -6.9340   -2.7877 C.ar      1 <0>        -0.0267
     13 C10         5.1529   -6.9852   -2.1572 C.ar      1 <0>        -0.1032
     14 C11         5.4673   -6.0631   -1.1730 C.ar      1 <0>        -0.1031
     15 C12         4.5533   -5.0871   -0.8155 C.ar      1 <0>         0.1235
     16 N4          4.8505   -4.2243    0.2524 N.pl3     1 <0>        -0.7273
     17 C13         4.0239   -4.2464    1.3765 C.ar      1 <0>         0.2173
     18 C14         2.6645   -3.9489    1.2520 C.ar      1 <0>        -0.1537
     19 C15         1.8414   -4.0345    2.3754 C.ar      1 <0>        -0.0841
     20 C16         2.3802   -4.3733    3.6007 C.ar      1 <0>        -0.1334
     21 C17         3.7349   -4.6261    3.7220 C.ar      1 <0>        -0.0692
     22 C18         4.5500   -4.5705    2.6174 C.ar      1 <0>        -0.1369
     23 Cl1         3.5248   -8.1083   -4.0027 Cl        1 <0>        -0.0551
     24 H1          0.9534    1.8033   -0.5956 H         1 <0>         0.1211
     25 H2         -0.7066    1.6758   -1.2253 H         1 <0>         0.1256
     26 H3         -0.4316    1.9169    0.5167 H         1 <0>         0.1252
     27 H4         -0.1269   -0.3565   -2.2605 H         1 <0>         0.1425
     28 H5          1.5196   -0.3587   -1.5839 H         1 <0>         0.1315
     29 H6         -0.6226   -2.4957   -1.1694 H         1 <0>         0.0898
     30 H7          0.8819   -2.6629   -2.1125 H         1 <0>         0.1431
     31 H8         -0.1827   -2.1194    1.5479 H         1 <0>         0.0960
     32 H9          1.5457   -2.0950    1.9873 H         1 <0>         0.1385
     33 H10         1.8889   -0.0428    0.6965 H         1 <0>         0.1320
     34 H11         0.5345    0.2092    1.8238 H         1 <0>         0.1439
     35 H12         2.0515   -5.9169   -2.9512 H         1 <0>         0.1396
     36 H13         5.8689   -7.7454   -2.4325 H         1 <0>         0.1422
     37 H14         6.4287   -6.1057   -0.6827 H         1 <0>         0.1382
     38 H15         5.6134   -3.6267    0.2096 H         1 <0>         0.4129
     39 H16         0.7836   -3.8354    2.2868 H         1 <0>         0.1314
     40 H17         1.7411   -4.4409    4.4686 H         1 <0>         0.1357
     41 H18         4.1512   -4.8742    4.6872 H         1 <0>         0.1370
     42 H19         5.6063   -4.7705    2.7202 H         1 <0>         0.1363
     43 H20        -0.9456   -0.3526    0.0057 H         1 <0>         0.4250
@<TRIPOS>BOND
     1    1    2 1
     2    1   24 1
     3    1   25 1
     4    1   26 1
     5    2    7 1
     6    2    3 1
     7    2   43 1
     8    3    4 1
     9    3   27 1
    10    3   28 1
    11    4    5 1
    12    4   29 1
    13    4   30 1
    14    5    6 1
    15    5    8 1
    16    6    7 1
    17    6   31 1
    18    6   32 1
    19    7   33 1
    20    7   34 1
    21    8   18 1
    22    8    9 2
    23    9   10 1
    24   10   15 ar
    25   10   11 ar
    26   11   12 ar
    27   11   35 1
    28   12   13 ar
    29   12   23 1
    30   13   14 ar
    31   13   36 1
    32   14   15 ar
    33   14   37 1
    34   15   16 1
    35   16   17 1
    36   16   38 1
    37   17   22 ar
    38   17   18 ar
    39   18   19 ar
    40   19   20 ar
    41   19   39 1
    42   20   21 ar
    43   20   40 1
    44   21   22 ar
    45   21   41 1
    46   22   42 1
@<TRIPOS>MOLECULE
ZINC01530571
   60    63     0     0     0
SMALL
USER_CHARGES

@<TRIPOS>ATOM
      1 C1         -0.0167    1.3818    0.0096 C.ar      1 <0>        -0.2679
      2 C2          1.1915    2.0609    0.0018 C.ar      1 <0>         0.1958
      3 N1          2.3197    1.3705   -0.0127 N.ar      1 <0>        -0.5666
      4 C3          2.3029    0.0457   -0.0197 C.ar      1 <0>         0.5562
      5 N2          1.1654   -0.6335   -0.0129 N.ar      1 <0>        -0.5663
      6 C4          0.0021   -0.0041    0.0020 C.ar      1 <0>         0.1960
      7 N3          3.5022   -0.6451   -0.0348 N.pl3     1 <0>        -0.6064
      8 C5          4.7874    0.0707   -0.0371 C.3       1 <0>         0.1080
      9 C6          5.6545   -0.4916   -1.1683 C.3       1 <0>        -0.0202
     10 N4          5.7718   -1.9473   -1.0165 N.4       1 <0>        -0.3840
     11 C7          4.4544   -2.5749   -1.1794 C.3       1 <0>        -0.0262
     12 C8          3.5278   -2.1159   -0.0430 C.3       1 <0>         0.1092
     13 C9          6.6913   -2.4716   -2.0352 C.3       1 <0>        -0.0085
     14 C10         6.9121   -3.9674   -1.8016 C.3       1 <0>        -0.1445
     15 C11         7.8697   -4.5135   -2.8626 C.3       1 <0>        -0.1292
     16 C12         8.0905   -6.0093   -2.6289 C.3       1 <0>         0.0911
     17 N5          9.0074   -6.5321   -3.6449 N.am      1 <0>        -0.5675
     18 C13         8.4943   -7.0005   -4.7921 C.2       1 <0>         0.5274
     19 O1          7.2949   -6.9658   -4.9647 O.2       1 <0>        -0.4991
     20 C14         9.3797   -7.5686   -5.8706 C.3       1 <0>        -0.1339
     21 C15        10.7544   -6.9065   -5.7927 C.3       1 <0>        -0.0666
     22 C16        11.7066   -7.5412   -6.8156 C.3       1 <0>        -0.1146
     23 C17        12.1410   -6.4083   -7.7700 C.3       1 <0>        -0.1265
     24 C18        11.9376   -5.1147   -6.9422 C.3       1 <0>        -0.1244
     25 C19        10.6393   -5.4143   -6.1507 C.3       1 <0>        -0.1220
     26 C20        11.3191   -7.0612   -4.3813 C.3       1 <0>        -0.1329
     27 C21        10.3239   -6.5167   -3.3897 C.2       1 <0>         0.5271
     28 O2         10.7205   -6.0600   -2.3391 O.2       1 <0>        -0.4986
     29 H1         -0.9525    1.9208    0.0259 H         1 <0>         0.1543
     30 H2          1.2116    3.1407    0.0070 H         1 <0>         0.1759
     31 H3         -0.9219   -0.5632    0.0082 H         1 <0>         0.1760
     32 H4          4.6141    1.1341   -0.2023 H         1 <0>         0.1406
     33 H5          5.2907   -0.0773    0.9184 H         1 <0>         0.0917
     34 H6          5.1926   -0.2623   -2.1286 H         1 <0>         0.1320
     35 H7          6.6459   -0.0406   -1.1249 H         1 <0>         0.1443
     36 H8          4.0288   -2.2827   -2.1393 H         1 <0>         0.1328
     37 H9          4.5614   -3.6591   -1.1441 H         1 <0>         0.1450
     38 H10         3.9061   -2.4809    0.9119 H         1 <0>         0.0920
     39 H11         2.5214   -2.4989   -0.2121 H         1 <0>         0.1403
     40 H12         6.2623   -2.3179   -3.0254 H         1 <0>         0.1301
     41 H13         7.6452   -1.9486   -1.9674 H         1 <0>         0.1337
     42 H14         7.3410   -4.1211   -0.8114 H         1 <0>         0.0926
     43 H15         5.9581   -4.4905   -1.8694 H         1 <0>         0.0914
     44 H16         7.4407   -4.3598   -3.8528 H         1 <0>         0.0793
     45 H17         8.8236   -3.9904   -2.7947 H         1 <0>         0.0796
     46 H18         8.5194   -6.1630   -1.6388 H         1 <0>         0.0991
     47 H19         7.1365   -6.5323   -2.6968 H         1 <0>         0.0987
     48 H20         9.4847   -8.6439   -5.7267 H         1 <0>         0.1160
     49 H21         8.9360   -7.3726   -6.8468 H         1 <0>         0.1186
     50 H22        12.5771   -7.9571   -6.3083 H         1 <0>         0.0770
     51 H23        11.1896   -8.3222   -7.3732 H         1 <0>         0.0769
     52 H24        13.1891   -6.5234   -8.0465 H         1 <0>         0.0725
     53 H25        11.5103   -6.3955   -8.6589 H         1 <0>         0.0700
     54 H26        12.7754   -4.9549   -6.2634 H         1 <0>         0.0706
     55 H27        11.8006   -4.2545   -7.5974 H         1 <0>         0.0710
     56 H28         9.7628   -5.2377   -6.7741 H         1 <0>         0.0740
     57 H29        10.5946   -4.8071   -5.2466 H         1 <0>         0.0611
     58 H30        11.5032   -8.1158   -4.1763 H         1 <0>         0.1163
     59 H31        12.2530   -6.5051   -4.2998 H         1 <0>         0.1183
     60 H32         6.1334   -2.1605   -0.0990 H         1 <0>         0.4234
@<TRIPOS>BOND
     1    1    6 ar
     2    1    2 ar
     3    1   29 1
     4    2    3 ar
     5    2   30 1
     6    3    4 ar
     7    4    5 ar
     8    4    7 1
     9    5    6 ar
    10    6   31 1
    11    7   12 1
    12    7    8 1
    13    8    9 1
    14    8   32 1
    15    8   33 1
    16    9   10 1
    17    9   34 1
    18    9   35 1
    19   10   11 1
    20   10   13 1
    21   10   60 1
    22   11   12 1
    23   11   36 1
    24   11   37 1
    25   12   38 1
    26   12   39 1
    27   13   14 1
    28   13   40 1
    29   13   41 1
    30   14   15 1
    31   14   42 1
    32   14   43 1
    33   15   16 1
    34   15   44 1
    35   15   45 1
    36   16   17 1
    37   16   46 1
    38   16   47 1
    39   17   27 am
    40   17   18 am
    41   18   19 2
    42   18   20 1
    43   20   21 1
    44   20   48 1
    45   20   49 1
    46   21   25 1
    47   21   22 1
    48   21   26 1
    49   22   23 1
    50   22   50 1
    51   22   51 1
    52   23   24 1
    53   23   52 1
    54   23   53 1
    55   24   25 1
    56   24   54 1
    57   24   55 1
    58   25   56 1
    59   25   57 1
    60   26   27 1
    61   26   58 1
    62   26   59 1
    63   27   28 2
@<TRIPOS>MOLECULE
ZINC01530571
   59    62     0     0     0
SMALL
USER_CHARGES

@<TRIPOS>ATOM
      1 C1         -0.0167    1.3818    0.0096 C.ar      1 <0>        -0.2969
      2 C2          1.1915    2.0609    0.0018 C.ar      1 <0>         0.1938
      3 N1          2.3197    1.3705   -0.0127 N.ar      1 <0>        -0.5732
      4 C3          2.3029    0.0457   -0.0197 C.ar      1 <0>         0.5658
      5 N2          1.1654   -0.6335   -0.0129 N.ar      1 <0>        -0.5730
      6 C4          0.0021   -0.0041    0.0020 C.ar      1 <0>         0.1940
      7 N3          3.5022   -0.6451   -0.0348 N.pl3     1 <0>        -0.5851
      8 C5          4.7864    0.0719   -0.0371 C.3       1 <0>         0.1324
      9 C6          5.6472   -0.4751   -1.1808 C.3       1 <0>         0.0415
     10 N4          5.7512   -1.9351   -1.0561 N.3       1 <0>        -0.5378
     11 C7          4.4367   -2.5765   -1.1923 C.3       1 <0>         0.0378
     12 C8          3.5262   -2.1156   -0.0430 C.3       1 <0>         0.1322
     13 C9          6.7063   -2.4799   -2.0301 C.3       1 <0>         0.0580
     14 C10         6.9763   -3.9518   -1.7112 C.3       1 <0>        -0.1114
     15 C11         7.9711   -4.5193   -2.7257 C.3       1 <0>        -0.1277
     16 C12         8.2411   -5.9911   -2.4068 C.3       1 <0>         0.0925
     17 N5          9.1937   -6.5345   -3.3782 N.am      1 <0>        -0.5656
     18 C13         8.7176   -7.0831   -4.5056 C.2       1 <0>         0.5235
     19 O1          7.5209   -7.1017   -4.6983 O.2       1 <0>        -0.4979
     20 C14         9.6414   -7.6762   -5.5375 C.3       1 <0>        -0.1320
     21 C15        10.9900   -6.9610   -5.4750 C.3       1 <0>        -0.0665
     22 C16        11.9819   -7.6151   -6.4466 C.3       1 <0>        -0.1128
     23 C17        12.3921   -6.5206   -7.4551 C.3       1 <0>        -0.1254
     24 C18        12.1282   -5.1922   -6.7029 C.3       1 <0>        -0.1237
     25 C19        10.8279   -5.4956   -5.9162 C.3       1 <0>        -0.1241
     26 C20        11.5352   -7.0178   -4.0487 C.3       1 <0>        -0.1310
     27 C21        10.5042   -6.4570   -3.1040 C.2       1 <0>         0.5230
     28 O2         10.8659   -5.9296   -2.0741 O.2       1 <0>        -0.4965
     29 H1         -0.9525    1.9208    0.0259 H         1 <0>         0.1437
     30 H2          1.2116    3.1407    0.0070 H         1 <0>         0.1666
     31 H3         -0.9219   -0.5632    0.0082 H         1 <0>         0.1667
     32 H4          4.6108    1.1370   -0.1881 H         1 <0>         0.1016
     33 H5          5.2961   -0.0869    0.9132 H         1 <0>         0.0738
     34 H6          5.1859   -0.2235   -2.1357 H         1 <0>         0.0373
     35 H7          6.6426   -0.0339   -1.1299 H         1 <0>         0.0892
     36 H8          3.9922   -2.2957   -2.1471 H         1 <0>         0.0376
     37 H9          4.5541   -3.6593   -1.1498 H         1 <0>         0.0919
     38 H10         3.9172   -2.4807    0.9068 H         1 <0>         0.0739
     39 H11         2.5171   -2.4975   -0.1978 H         1 <0>         0.1013
     40 H12         6.2894   -2.3962   -3.0337 H         1 <0>         0.0338
     41 H13         7.6396   -1.9194   -1.9765 H         1 <0>         0.0768
     42 H14         7.3933   -4.0355   -0.7076 H         1 <0>         0.0768
     43 H15         6.0430   -4.5123   -1.7648 H         1 <0>         0.0665
     44 H16         7.5542   -4.4355   -3.7293 H         1 <0>         0.0656
     45 H17         8.9044   -3.9587   -2.6720 H         1 <0>         0.0680
     46 H18         8.6581   -6.0748   -1.4031 H         1 <0>         0.0965
     47 H19         7.3078   -6.5516   -2.4604 H         1 <0>         0.0949
     48 H20         9.7822   -8.7375   -5.3331 H         1 <0>         0.1123
     49 H21         9.2080   -7.5500   -6.5297 H         1 <0>         0.1155
     50 H22        12.8577   -7.9706   -5.9039 H         1 <0>         0.0751
     51 H23        11.5029   -8.4436   -6.9683 H         1 <0>         0.0748
     52 H24        13.4482   -6.6121   -7.7087 H         1 <0>         0.0699
     53 H25        11.7768   -6.5793   -8.3530 H         1 <0>         0.0686
     54 H26        12.9479   -4.9651   -6.0212 H         1 <0>         0.0700
     55 H27        11.9720   -4.3745   -7.4065 H         1 <0>         0.0701
     56 H28         9.9566   -5.3855   -6.5618 H         1 <0>         0.0744
     57 H29        10.7458   -4.8422   -5.0477 H         1 <0>         0.0652
     58 H30        11.7534   -8.0522   -3.7832 H         1 <0>         0.1126
     59 H31        12.4471   -6.4242   -3.9835 H         1 <0>         0.1155
@<TRIPOS>BOND
     1    1    6 ar
     2    1    2 ar
     3    1   29 1
     4    2    3 ar
     5    2   30 1
     6    3    4 ar
     7    4    5 ar
     8    4    7 1
     9    5    6 ar
    10    6   31 1
    11    7   12 1
    12    7    8 1
    13    8    9 1
    14    8   32 1
    15    8   33 1
    16    9   10 1
    17    9   34 1
    18    9   35 1
    19   10   11 1
    20   10   13 1
    21   11   12 1
    22   11   36 1
    23   11   37 1
    24   12   38 1
    25   12   39 1
    26   13   14 1
    27   13   40 1
    28   13   41 1
    29   14   15 1
    30   14   42 1
    31   14   43 1
    32   15   16 1
    33   15   44 1
    34   15   45 1
    35   16   17 1
    36   16   46 1
    37   16   47 1
    38   17   27 am
    39   17   18 am
    40   18   19 2
    41   18   20 1
    42   20   21 1
    43   20   48 1
    44   20   49 1
    45   21   25 1
    46   21   22 1
    47   21   26 1
    48   22   23 1
    49   22   50 1
    50   22   51 1
    51   23   24 1
    52   23   52 1
    53   23   53 1
    54   24   25 1
    55   24   54 1
    56   24   55 1
    57   25   56 1
    58   25   57 1
    59   26   27 1
    60   26   58 1
    61   26   59 1
    62   27   28 2
@<TRIPOS>MOLECULE
ZINC00014669
   52    54     0     0     0
SMALL
USER_CHARGES

@<TRIPOS>ATOM
      1 C1         -0.0187    1.5258    0.0104 C.3       1 <0>        -0.1955
      2 C2          0.0021   -0.0041    0.0020 C.3       1 <0>        -0.0083
      3 H1         -1.0205   -0.3814    0.0098 H         1 <0>         0.1468
      4 C3          0.7182   -0.4975   -1.2568 C.3       1 <0>         0.1400
      5 H2          0.8116   -1.5829   -1.2198 H         1 <0>         0.1310
      6 C4         -0.0771   -0.1029   -2.4745 C.ar      1 <0>        -0.1512
      7 C5          0.0941    1.1497   -3.0345 C.ar      1 <0>        -0.0890
      8 C6         -0.6341    1.5140   -4.1505 C.ar      1 <0>        -0.1398
      9 C7         -1.5374    0.6217   -4.7096 C.ar      1 <0>         0.1316
     10 C8         -1.7070   -0.6346   -4.1460 C.ar      1 <0>        -0.1402
     11 C9         -0.9726   -0.9960   -3.0331 C.ar      1 <0>        -0.0838
     12 O1         -2.2553    0.9780   -5.8071 O.3       1 <0>        -0.4970
     13 O2          2.0188    0.0904   -1.3262 O.3       1 <0>        -0.5453
     14 N1          0.7126   -0.4907    1.1921 N.4       1 <0>        -0.3761
     15 C10         0.7394   -1.9582    1.1781 C.3       1 <0>        -0.0130
     16 C11         1.5480   -2.4687    2.3727 C.3       1 <0>        -0.1408
     17 C12         0.8958   -1.9809    3.6696 C.3       1 <0>        -0.0939
     18 C13         0.8055   -0.4524    3.6405 C.3       1 <0>        -0.1446
     19 C14         0.0245   -0.0166    2.3989 C.3       1 <0>        -0.0111
     20 C15         1.7430   -2.4207    4.8653 C.3       1 <0>        -0.0745
     21 C16         1.0387   -2.0476    6.1443 C.ar      1 <0>        -0.0945
     22 C17         1.2668   -0.8138    6.7244 C.ar      1 <0>        -0.1215
     23 C18         0.6208   -0.4716    7.8976 C.ar      1 <0>        -0.1162
     24 C19        -0.2537   -1.3631    8.4905 C.ar      1 <0>        -0.1164
     25 C20        -0.4825   -2.5965    7.9099 C.ar      1 <0>        -0.1138
     26 C21         0.1602   -2.9370    6.7344 C.ar      1 <0>        -0.1161
     27 H3          1.0039    1.9031    0.0027 H         1 <0>         0.0830
     28 H4         -0.5459    1.8868   -0.8726 H         1 <0>         0.1122
     29 H5         -0.5289    1.8773    0.9072 H         1 <0>         0.0916
     30 H6          0.7975    1.8439   -2.5989 H         1 <0>         0.1273
     31 H7         -0.5005    2.4927   -4.5871 H         1 <0>         0.1383
     32 H8         -2.4096   -1.3309   -4.5794 H         1 <0>         0.1385
     33 H9         -1.1011   -1.9755   -2.5967 H         1 <0>         0.1312
     34 H10        -1.8251    0.7616   -6.6457 H         1 <0>         0.4023
     35 H11         2.0123    1.0567   -1.3619 H         1 <0>         0.3863
     36 H12        -0.2795   -2.3404    1.2397 H         1 <0>         0.1288
     37 H13         1.2010   -2.3039    0.2532 H         1 <0>         0.1321
     38 H14         1.5652   -3.5585    2.3616 H         1 <0>         0.1138
     39 H15         2.5673   -2.0873    2.3121 H         1 <0>         0.0906
     40 H16        -0.1053   -2.4035    3.7555 H         1 <0>         0.0907
     41 H17         0.2921   -0.1010    4.5354 H         1 <0>         0.1157
     42 H18         1.8094   -0.0291    3.6061 H         1 <0>         0.0886
     43 H19        -0.0418    1.0711    2.3751 H         1 <0>         0.1320
     44 H20        -0.9792   -0.4402    2.4344 H         1 <0>         0.1280
     45 H21         1.8865   -3.5007    4.8312 H         1 <0>         0.0833
     46 H22         2.7124   -1.9239    4.8261 H         1 <0>         0.0787
     47 H23         1.9500   -0.1173    6.2612 H         1 <0>         0.1195
     48 H24         0.7995    0.4921    8.3512 H         1 <0>         0.1244
     49 H25        -0.7579   -1.0960    9.4075 H         1 <0>         0.1252
     50 H26        -1.1655   -3.2931    8.3733 H         1 <0>         0.1252
     51 H27        -0.0214   -3.8992    6.2788 H         1 <0>         0.1215
     52 H28         1.6582   -0.1389    1.1853 H         1 <0>         0.4240
@<TRIPOS>BOND
     1    1    2 1
     2    1   27 1
     3    1   28 1
     4    1   29 1
     5    2    3 1
     6    2    4 1
     7    2   14 1
     8    4    5 1
     9    4    6 1
    10    4   13 1
    11    6   11 ar
    12    6    7 ar
    13    7    8 ar
    14    7   30 1
    15    8    9 ar
    16    8   31 1
    17    9   10 ar
    18    9   12 1
    19   10   11 ar
    20   10   32 1
    21   11   33 1
    22   12   34 1
    23   13   35 1
    24   14   19 1
    25   14   15 1
    26   14   52 1
    27   15   16 1
    28   15   36 1
    29   15   37 1
    30   16   17 1
    31   16   38 1
    32   16   39 1
    33   17   18 1
    34   17   20 1
    35   17   40 1
    36   18   19 1
    37   18   41 1
    38   18   42 1
    39   19   43 1
    40   19   44 1
    41   20   21 1
    42   20   45 1
    43   20   46 1
    44   21   26 ar
    45   21   22 ar
    46   22   23 ar
    47   22   47 1
    48   23   24 ar
    49   23   48 1
    50   24   25 ar
    51   24   49 1
    52   25   26 ar
    53   25   50 1
    54   26   51 1
@<TRIPOS>MOLECULE
ZINC00537822
   50    52     0     0     0
SMALL
USER_CHARGES

@<TRIPOS>ATOM
      1 C1         -0.0169    1.3952    0.0097 C.ar      1 <0>        -0.0260
      2 C2          1.1683    2.0970    0.0022 C.ar      1 <0>        -0.1650
      3 C3          2.3789    1.4198   -0.0130 C.ar      1 <0>         0.1439
      4 C4          2.4047    0.0329   -0.0212 C.ar      1 <0>        -0.1670
      5 C5          1.2267   -0.6810   -0.0142 C.ar      1 <0>        -0.0432
      6 C6          0.0021   -0.0041    0.0020 C.ar      1 <0>        -0.1967
      7 C7         -1.2591   -0.7596    0.0105 C.2       1 <0>         0.4038
      8 O1         -2.3189   -0.1702    0.0242 O.2       1 <0>        -0.4483
      9 C8         -1.2348   -2.2664    0.0022 C.3       1 <0>        -0.1653
     10 C9         -2.6689   -2.7996    0.0135 C.3       1 <0>        -0.1429
     11 C10        -2.6443   -4.3293    0.0051 C.3       1 <0>        -0.0092
     12 N1         -4.0211   -4.8413    0.0160 N.4       1 <0>        -0.3830
     13 C11        -4.6726   -4.4620    1.2755 C.3       1 <0>        -0.0093
     14 C12        -6.1318   -4.9225    1.2582 C.3       1 <0>        -0.1330
     15 C13        -6.1791   -6.4445    1.0954 C.3       1 <0>         0.1746
     16 C14        -5.4322   -6.8346   -0.1834 C.3       1 <0>        -0.1706
     17 C15        -3.9990   -6.3033   -0.1127 C.3       1 <0>        -0.0017
     18 C16        -7.6135   -6.8966    0.9991 C.ar      1 <0>        -0.1262
     19 C17        -8.5661   -6.0599    0.4482 C.ar      1 <0>        -0.1006
     20 C18        -9.8818   -6.4740    0.3596 C.ar      1 <0>        -0.1039
     21 C19       -10.2453   -7.7262    0.8224 C.ar      1 <0>        -0.0247
     22 C20        -9.2914   -8.5631    1.3735 C.ar      1 <0>        -0.1016
     23 C21        -7.9750   -8.1501    1.4564 C.ar      1 <0>        -0.0934
     24 Cl1       -11.8977   -8.2468    0.7119 Cl        1 <0>        -0.0500
     25 O2         -5.5554   -7.0652    2.2213 O.3       1 <0>        -0.5474
     26 F1          3.5378    2.1141   -0.0204 F         1 <0>        -0.1258
     27 H1         -0.9587    1.9236    0.0260 H         1 <0>         0.1459
     28 H2          1.1551    3.1769    0.0077 H         1 <0>         0.1477
     29 H3          3.3506   -0.4883   -0.0334 H         1 <0>         0.1469
     30 H4          1.2482   -1.7608   -0.0213 H         1 <0>         0.1412
     31 H5         -0.7241   -2.6166   -0.8948 H         1 <0>         0.1127
     32 H6         -0.7064   -2.6261    0.8850 H         1 <0>         0.1127
     33 H7         -3.1796   -2.4493    0.9105 H         1 <0>         0.0952
     34 H8         -3.1973   -2.4398   -0.8693 H         1 <0>         0.0947
     35 H9         -2.1335   -4.6796   -0.8919 H         1 <0>         0.1333
     36 H10        -2.1158   -4.6891    0.8880 H         1 <0>         0.1327
     37 H11        -4.1530   -4.9339    2.1093 H         1 <0>         0.1388
     38 H12        -4.6353   -3.3788    1.3915 H         1 <0>         0.1356
     39 H13        -6.6132   -4.6415    2.1949 H         1 <0>         0.1238
     40 H14        -6.6524   -4.4509    0.4248 H         1 <0>         0.1045
     41 H15        -5.4137   -7.9204   -0.2771 H         1 <0>         0.1175
     42 H16        -5.9384   -6.4027   -1.0467 H         1 <0>         0.1009
     43 H17        -3.4644   -6.5795   -1.0215 H         1 <0>         0.1329
     44 H18        -3.4937   -6.7360    0.7507 H         1 <0>         0.1354
     45 H19        -8.2824   -5.0823    0.0874 H         1 <0>         0.1334
     46 H20       -10.6260   -5.8201   -0.0704 H         1 <0>         0.1408
     47 H21        -9.5746   -9.5405    1.7352 H         1 <0>         0.1414
     48 H22        -7.2294   -8.8051    1.8823 H         1 <0>         0.1323
     49 H23        -5.5495   -8.0314    2.1846 H         1 <0>         0.3907
     50 H24        -4.5327   -4.4442   -0.7578 H         1 <0>         0.4215
@<TRIPOS>BOND
     1    1    6 ar
     2    1    2 ar
     3    1   27 1
     4    2    3 ar
     5    2   28 1
     6    3    4 ar
     7    3   26 1
     8    4    5 ar
     9    4   29 1
    10    5    6 ar
    11    5   30 1
    12    6    7 1
    13    7    8 2
    14    7    9 1
    15    9   10 1
    16    9   31 1
    17    9   32 1
    18   10   11 1
    19   10   33 1
    20   10   34 1
    21   11   12 1
    22   11   35 1
    23   11   36 1
    24   12   17 1
    25   12   13 1
    26   12   50 1
    27   13   14 1
    28   13   37 1
    29   13   38 1
    30   14   15 1
    31   14   39 1
    32   14   40 1
    33   15   16 1
    34   15   18 1
    35   15   25 1
    36   16   17 1
    37   16   41 1
    38   16   42 1
    39   17   43 1
    40   17   44 1
    41   18   23 ar
    42   18   19 ar
    43   19   20 ar
    44   19   45 1
    45   20   21 ar
    46   20   46 1
    47   21   22 ar
    48   21   24 1
    49   22   23 ar
    50   22   47 1
    51   23   48 1
    52   25   49 1
@<TRIPOS>MOLECULE
ZINC03870312
   44    45     0     0     0
SMALL
USER_CHARGES

@<TRIPOS>ATOM
      1 C1          2.0344   -2.4614   -1.6117 C.3       1 <0>        -0.1564
      2 C2          1.0053   -1.9689   -0.5924 C.3       1 <0>        -0.1483
      3 C3         -0.3778   -2.5081   -0.9628 C.3       1 <0>        -0.0221
      4 N1         -1.3660   -2.0352    0.0160 N.4       1 <0>        -0.3808
      5 C4         -1.4822   -0.5735   -0.0727 C.3       1 <0>        -0.0216
      6 C5         -2.3990   -0.0662    1.0422 C.3       1 <0>        -0.1495
      7 C6         -2.5852    1.4458    0.9011 C.3       1 <0>        -0.1554
      8 C7         -2.6701   -2.6483   -0.2695 C.3       1 <0>         0.0206
      9 H1         -3.4102   -2.2854    0.4437 H         1 <0>         0.1433
     10 C8         -2.5573   -4.1738   -0.1653 C.3       1 <0>        -0.1378
     11 C9         -3.9635   -4.7663   -0.2291 C.3       1 <0>        -0.0773
     12 C10        -4.7118   -4.2271   -1.4202 C.ar      1 <0>        -0.0686
     13 C11        -5.8362   -4.9235   -1.8466 C.ar      1 <0>        -0.1219
     14 C12        -6.5697   -4.4809   -2.9279 C.ar      1 <0>        -0.0880
     15 C13        -6.1863   -3.3333   -3.5952 C.ar      1 <0>        -0.1382
     16 C14        -5.0658   -2.6373   -3.1752 C.ar      1 <0>         0.1143
     17 C15        -4.3230   -3.0871   -2.0847 C.ar      1 <0>        -0.1167
     18 C16        -3.1061   -2.2922   -1.6893 C.3       1 <0>        -0.0851
     19 O1         -4.6876   -1.5082   -3.8302 O.3       1 <0>        -0.4961
     20 H2          3.0198   -2.0773   -1.3478 H         1 <0>         0.0776
     21 H3          2.0564   -3.5512   -1.6083 H         1 <0>         0.0671
     22 H4          1.7603   -2.1066   -2.6052 H         1 <0>         0.0669
     23 H5          1.2794   -2.3236    0.4012 H         1 <0>         0.0858
     24 H6          0.9833   -0.8791   -0.5958 H         1 <0>         0.0856
     25 H7         -0.6520   -2.1533   -1.9563 H         1 <0>         0.1318
     26 H8         -0.3558   -3.5978   -0.9594 H         1 <0>         0.1333
     27 H9         -0.4954   -0.1233    0.0354 H         1 <0>         0.1342
     28 H10        -1.9020   -0.3004   -1.0408 H         1 <0>         0.1308
     29 H11        -3.3680   -0.5600    0.9687 H         1 <0>         0.0835
     30 H12        -1.9507   -0.2883    2.0106 H         1 <0>         0.0869
     31 H13        -3.0336    1.6679   -0.0673 H         1 <0>         0.0659
     32 H14        -3.2384    1.8072    1.6954 H         1 <0>         0.0773
     33 H15        -1.6163    1.9396    0.9746 H         1 <0>         0.0677
     34 H16        -1.9603   -4.5552   -0.9937 H         1 <0>         0.0927
     35 H17        -2.0879   -4.4434    0.7807 H         1 <0>         0.0935
     36 H18        -3.8932   -5.8510   -0.3098 H         1 <0>         0.0995
     37 H19        -4.5039   -4.5084    0.6817 H         1 <0>         0.0910
     38 H20        -6.1386   -5.8204   -1.3266 H         1 <0>         0.1319
     39 H21        -7.4413   -5.0301   -3.2522 H         1 <0>         0.1360
     40 H22        -6.7582   -2.9810   -4.4410 H         1 <0>         0.1369
     41 H23        -3.3398   -1.2287   -1.7374 H         1 <0>         0.0954
     42 H24        -2.2928   -2.5125   -2.3808 H         1 <0>         0.0981
     43 H25        -5.0813   -0.6984   -3.4777 H         1 <0>         0.3928
     44 H26        -1.0692   -2.2933    0.9451 H         1 <0>         0.4233
@<TRIPOS>BOND
     1    1    2 1
     2    1   20 1
     3    1   21 1
     4    1   22 1
     5    2    3 1
     6    2   23 1
     7    2   24 1
     8    3    4 1
     9    3   25 1
    10    3   26 1
    11    4    5 1
    12    4    8 1
    13    4   44 1
    14    5    6 1
    15    5   27 1
    16    5   28 1
    17    6    7 1
    18    6   29 1
    19    6   30 1
    20    7   31 1
    21    7   32 1
    22    7   33 1
    23    8    9 1
    24    8   18 1
    25    8   10 1
    26   10   11 1
    27   10   34 1
    28   10   35 1
    29   11   12 1
    30   11   36 1
    31   11   37 1
    32   12   17 ar
    33   12   13 ar
    34   13   14 ar
    35   13   38 1
    36   14   15 ar
    37   14   39 1
    38   15   16 ar
    39   15   40 1
    40   16   17 ar
    41   16   19 1
    42   17   18 1
    43   18   41 1
    44   18   42 1
    45   19   43 1
@<TRIPOS>MOLECULE
ZINC03870313
   44    45     0     0     0
SMALL
USER_CHARGES

@<TRIPOS>ATOM
      1 C1          1.4413   -2.5874   -2.4342 C.3       1 <0>        -0.1558
      2 C2          0.7544   -2.1400   -1.1423 C.3       1 <0>        -0.1491
      3 C3         -0.7443   -2.4339   -1.2335 C.3       1 <0>        -0.0201
      4 N1         -1.4039   -2.0044    0.0068 N.4       1 <0>        -0.3818
      5 C4         -1.3254   -0.5420    0.1221 C.3       1 <0>        -0.0189
      6 C5         -1.8949   -0.1056    1.4734 C.3       1 <0>        -0.1495
      7 C6         -1.6913    1.4004    1.6503 C.3       1 <0>        -0.1554
      8 C7         -2.8130   -2.4186   -0.0191 C.3       1 <0>         0.0212
      9 H1         -3.3345   -1.9999    0.8417 H         1 <0>         0.1439
     10 C8         -3.4725   -1.9253   -1.3124 C.3       1 <0>        -0.1372
     11 C9         -4.9780   -2.1583   -1.2047 C.3       1 <0>        -0.0775
     12 C10        -5.2664   -3.5813   -0.8033 C.ar      1 <0>        -0.0684
     13 C11        -6.5491   -4.0680   -1.0239 C.ar      1 <0>        -0.1225
     14 C12        -6.8811   -5.3604   -0.6738 C.ar      1 <0>        -0.0878
     15 C13        -5.9313   -6.1820   -0.0976 C.ar      1 <0>        -0.1384
     16 C14        -4.6513   -5.7025    0.1215 C.ar      1 <0>         0.1150
     17 C15        -4.3156   -4.3974   -0.2354 C.ar      1 <0>        -0.1164
     18 C16        -2.9018   -3.9428    0.0171 C.3       1 <0>        -0.0892
     19 O1         -3.7160   -6.5091    0.6885 O.3       1 <0>        -0.4966
     20 H2          2.5091   -2.3780   -2.3693 H         1 <0>         0.0777
     21 H3          1.2888   -3.6574   -2.5750 H         1 <0>         0.0667
     22 H4          1.0155   -2.0454   -3.2786 H         1 <0>         0.0666
     23 H5          1.1802   -2.6819   -0.2979 H         1 <0>         0.0859
     24 H6          0.9069   -1.0699   -1.0015 H         1 <0>         0.0859
     25 H7         -1.1702   -1.8919   -2.0779 H         1 <0>         0.1316
     26 H8         -0.8968   -3.5039   -1.3743 H         1 <0>         0.1312
     27 H9         -0.2845   -0.2270    0.0477 H         1 <0>         0.1340
     28 H10        -1.9022   -0.0828   -0.6807 H         1 <0>         0.1313
     29 H11        -2.9599   -0.3350    1.5100 H         1 <0>         0.0855
     30 H12        -1.3808   -0.6382    2.2735 H         1 <0>         0.0852
     31 H13        -2.2054    1.9330    0.8503 H         1 <0>         0.0669
     32 H14        -2.0971    1.7113    2.6130 H         1 <0>         0.0774
     33 H15        -0.6264    1.6298    1.6137 H         1 <0>         0.0669
     34 H16        -3.2741   -0.8615   -1.4430 H         1 <0>         0.0923
     35 H17        -3.0749   -2.4804   -2.1620 H         1 <0>         0.0927
     36 H18        -5.3938   -1.4827   -0.4571 H         1 <0>         0.0903
     37 H19        -5.4430   -1.9557   -2.1695 H         1 <0>         0.0990
     38 H20        -7.2937   -3.4279   -1.4736 H         1 <0>         0.1316
     39 H21        -7.8809   -5.7290   -0.8494 H         1 <0>         0.1360
     40 H22        -6.1865   -7.1938    0.1811 H         1 <0>         0.1370
     41 H23        -2.2487   -4.3592   -0.7498 H         1 <0>         0.0928
     42 H24        -2.5786   -4.2985    0.9954 H         1 <0>         0.1031
     43 H25        -3.2026   -7.0244    0.0514 H         1 <0>         0.3942
     44 H26        -0.9429   -2.4293    0.7974 H         1 <0>         0.4229
@<TRIPOS>BOND
     1    1    2 1
     2    1   20 1
     3    1   21 1
     4    1   22 1
     5    2    3 1
     6    2   23 1
     7    2   24 1
     8    3    4 1
     9    3   25 1
    10    3   26 1
    11    4    5 1
    12    4    8 1
    13    4   44 1
    14    5    6 1
    15    5   27 1
    16    5   28 1
    17    6    7 1
    18    6   29 1
    19    6   30 1
    20    7   31 1
    21    7   32 1
    22    7   33 1
    23    8    9 1
    24    8   18 1
    25    8   10 1
    26   10   11 1
    27   10   34 1
    28   10   35 1
    29   11   12 1
    30   11   36 1
    31   11   37 1
    32   12   17 ar
    33   12   13 ar
    34   13   14 ar
    35   13   38 1
    36   14   15 ar
    37   14   39 1
    38   15   16 ar
    39   15   40 1
    40   16   17 ar
    41   16   19 1
    42   17   18 1
    43   18   41 1
    44   18   42 1
    45   19   43 1
@<TRIPOS>MOLECULE
ZINC01999529
   52    55     0     0     0
SMALL
USER_CHARGES

@<TRIPOS>ATOM
      1 C1         -0.0166    1.3718    0.0096 C.ar      1 <0>        -0.0777
      2 C2          1.1605    2.0994    0.0023 C.ar      1 <0>        -0.0864
      3 C3          2.3767    1.4321   -0.0129 C.ar      1 <0>         0.0073
      4 C4          2.3992    0.0662   -0.0204 C.ar      1 <0>        -0.6175
      5 C5          1.2246   -0.6975   -0.0133 C.ar      1 <0>        -0.1240
      6 C6          0.0021   -0.0041    0.0020 C.ar      1 <0>        -0.0321
      7 C7          1.4909   -2.1423   -0.0240 C.2       1 <0>         0.5408
      8 O1          0.5787   -2.9456   -0.0200 O.2       1 <0>        -0.4623
      9 N1          2.7689   -2.5506   -0.0387 N.am      1 <0>        -0.9253
     10 S1          3.6863   -1.1515   -0.0397 S.o2      1 <0>         2.6548
     11 O2          4.3669   -1.0804    1.2056 O.2       1 <0>        -0.9145
     12 O3          4.3426   -1.0663   -1.2972 O.2       1 <0>        -0.9196
     13 C8          3.2582   -3.9315   -0.0505 C.3       1 <0>         0.1395
     14 C9          3.2964   -4.4467   -1.4906 C.3       1 <0>        -0.1474
     15 C10         3.8074   -5.8888   -1.5029 C.3       1 <0>        -0.1473
     16 C11         3.8456   -6.4041   -2.9430 C.3       1 <0>        -0.0102
     17 N2          4.3362   -7.7887   -2.9548 N.4       1 <0>        -0.3846
     18 C12         5.7269   -7.8173   -2.4842 C.3       1 <0>        -0.0271
     19 C13         6.2023   -9.2707   -2.3871 C.3       1 <0>         0.1084
     20 N3          5.9887   -9.9193   -3.6901 N.pl3     1 <0>        -0.6062
     21 C14         4.6622   -9.8000   -4.3147 C.3       1 <0>         0.1079
     22 C15         4.2595   -8.3216   -4.3209 C.3       1 <0>        -0.0203
     23 C16         7.0071  -10.6215   -4.3109 C.ar      1 <0>         0.5561
     24 N4          8.1872  -10.7115   -3.7152 N.ar      1 <0>        -0.5663
     25 C17         9.1814  -11.3755   -4.2811 C.ar      1 <0>         0.1960
     26 C18         8.9767  -11.9805   -5.5112 C.ar      1 <0>        -0.2677
     27 C19         7.7301  -11.8667   -6.1064 C.ar      1 <0>         0.1958
     28 N5          6.7772  -11.1924   -5.4842 N.ar      1 <0>        -0.5665
     29 H1         -0.9633    1.8912    0.0260 H         1 <0>         0.1509
     30 H2          1.1326    3.1791    0.0079 H         1 <0>         0.1535
     31 H3          3.3014    1.9899   -0.0191 H         1 <0>         0.1494
     32 H4         -0.9274   -0.5540    0.0083 H         1 <0>         0.1485
     33 H5          4.2615   -3.9650    0.3742 H         1 <0>         0.1015
     34 H6          2.5917   -4.5582    0.5421 H         1 <0>         0.1059
     35 H7          2.2931   -4.4131   -1.9152 H         1 <0>         0.0892
     36 H8          3.9629   -3.8200   -2.0832 H         1 <0>         0.0898
     37 H9          4.8107   -5.9224   -1.0783 H         1 <0>         0.0933
     38 H10         3.1409   -6.5155   -0.9103 H         1 <0>         0.0955
     39 H11         2.8423   -6.3705   -3.3677 H         1 <0>         0.1353
     40 H12         4.5121   -5.7774   -3.5356 H         1 <0>         0.1327
     41 H13         6.3594   -7.2742   -3.1864 H         1 <0>         0.1335
     42 H14         5.7879   -7.3485   -1.5021 H         1 <0>         0.1458
     43 H15         7.2628   -9.2931   -2.1362 H         1 <0>         0.1405
     44 H16         5.6303   -9.7927   -1.6200 H         1 <0>         0.0917
     45 H17         4.7045  -10.1723   -5.3383 H         1 <0>         0.1405
     46 H18         3.9347  -10.3754   -3.7423 H         1 <0>         0.0917
     47 H19         3.2393   -8.2244   -4.6922 H         1 <0>         0.1446
     48 H20         4.9364   -7.7632   -4.9675 H         1 <0>         0.1326
     49 H21        10.1412  -11.4451   -3.7908 H         1 <0>         0.1760
     50 H22         9.7713  -12.5285   -5.9956 H         1 <0>         0.1542
     51 H23         7.5380  -12.3261   -7.0647 H         1 <0>         0.1759
     52 H24         3.7650   -8.3518   -2.3428 H         1 <0>         0.4236
@<TRIPOS>BOND
     1    1    6 ar
     2    1    2 ar
     3    1   29 1
     4    2    3 ar
     5    2   30 1
     6    3    4 ar
     7    3   31 1
     8    4   10 1
     9    4    5 ar
    10    5    6 ar
    11    5    7 1
    12    6   32 1
    13    7    8 2
    14    7    9 am
    15    9   10 1
    16    9   13 1
    17   10   11 2
    18   10   12 2
    19   13   14 1
    20   13   33 1
    21   13   34 1
    22   14   15 1
    23   14   35 1
    24   14   36 1
    25   15   16 1
    26   15   37 1
    27   15   38 1
    28   16   17 1
    29   16   39 1
    30   16   40 1
    31   17   22 1
    32   17   18 1
    33   17   52 1
    34   18   19 1
    35   18   41 1
    36   18   42 1
    37   19   20 1
    38   19   43 1
    39   19   44 1
    40   20   21 1
    41   20   23 1
    42   21   22 1
    43   21   45 1
    44   21   46 1
    45   22   47 1
    46   22   48 1
    47   23   28 ar
    48   23   24 ar
    49   24   25 ar
    50   25   26 ar
    51   25   49 1
    52   26   27 ar
    53   26   50 1
    54   27   28 ar
    55   27   51 1
@<TRIPOS>MOLECULE
ZINC01999529
   51    54     0     0     0
SMALL
USER_CHARGES

@<TRIPOS>ATOM
      1 C1         -0.0166    1.3718    0.0096 C.ar      1 <0>        -0.0797
      2 C2          1.1605    2.0994    0.0023 C.ar      1 <0>        -0.0925
      3 C3          2.3767    1.4321   -0.0129 C.ar      1 <0>         0.0055
      4 C4          2.3992    0.0662   -0.0204 C.ar      1 <0>        -0.6181
      5 C5          1.2246   -0.6975   -0.0133 C.ar      1 <0>        -0.1153
      6 C6          0.0021   -0.0041    0.0020 C.ar      1 <0>        -0.0365
      7 C7          1.4909   -2.1423   -0.0240 C.2       1 <0>         0.5361
      8 O1          0.5787   -2.9456   -0.0200 O.2       1 <0>        -0.4603
      9 N1          2.7689   -2.5506   -0.0387 N.am      1 <0>        -0.9199
     10 S1          3.6863   -1.1515   -0.0397 S.o2      1 <0>         2.6544
     11 O2          4.3669   -1.0804    1.2056 O.2       1 <0>        -0.9194
     12 O3          4.3426   -1.0663   -1.2972 O.2       1 <0>        -0.9182
     13 C8          3.2582   -3.9315   -0.0505 C.3       1 <0>         0.1391
     14 C9          3.2964   -4.4467   -1.4906 C.3       1 <0>        -0.1462
     15 C10         3.8074   -5.8888   -1.5029 C.3       1 <0>        -0.1140
     16 C11         3.8456   -6.4041   -2.9430 C.3       1 <0>         0.0557
     17 N2          4.3362   -7.7887   -2.9548 N.3       1 <0>        -0.5381
     18 C12         5.7363   -7.8548   -2.5151 C.3       1 <0>         0.0366
     19 C13         6.1531   -9.3220   -2.3677 C.3       1 <0>         0.1319
     20 N3          5.8642  -10.0190   -3.6302 N.pl3     1 <0>        -0.5851
     21 C14         4.5174   -9.8860   -4.2060 C.3       1 <0>         0.1323
     22 C15         4.1649   -8.3966   -4.2811 C.3       1 <0>         0.0413
     23 C16         6.8339  -10.7801   -4.2595 C.ar      1 <0>         0.5658
     24 N4          8.0345  -10.8821   -3.7086 N.ar      1 <0>        -0.5729
     25 C17         8.9835  -11.6019   -4.2839 C.ar      1 <0>         0.1940
     26 C18         8.7091  -12.2531   -5.4763 C.ar      1 <0>        -0.2967
     27 C19         7.4428  -12.1251   -6.0250 C.ar      1 <0>         0.1939
     28 N5          6.5378  -11.3939   -5.3958 N.ar      1 <0>        -0.5731
     29 H1         -0.9633    1.8912    0.0260 H         1 <0>         0.1479
     30 H2          1.1326    3.1791    0.0079 H         1 <0>         0.1502
     31 H3          3.3014    1.9899   -0.0191 H         1 <0>         0.1474
     32 H4         -0.9274   -0.5540    0.0083 H         1 <0>         0.1478
     33 H5          4.2615   -3.9650    0.3742 H         1 <0>         0.0985
     34 H6          2.5917   -4.5582    0.5421 H         1 <0>         0.1041
     35 H7          2.2931   -4.4131   -1.9152 H         1 <0>         0.0780
     36 H8          3.9629   -3.8200   -2.0832 H         1 <0>         0.0764
     37 H9          4.8107   -5.9224   -1.0783 H         1 <0>         0.0686
     38 H10         3.1409   -6.5155   -0.9103 H         1 <0>         0.0799
     39 H11         2.8423   -6.3705   -3.3677 H         1 <0>         0.0786
     40 H12         4.5121   -5.7774   -3.5356 H         1 <0>         0.0367
     41 H13         6.3730   -7.3683   -3.2541 H         1 <0>         0.0381
     42 H14         5.8404   -7.3489   -1.5553 H         1 <0>         0.0926
     43 H15         7.2203   -9.3798   -2.1535 H         1 <0>         0.1013
     44 H16         5.5887   -9.7834   -1.5573 H         1 <0>         0.0736
     45 H17         4.5031  -10.3166   -5.2073 H         1 <0>         0.1015
     46 H18         3.7957  -10.4015   -3.5724 H         1 <0>         0.0737
     47 H19         3.1294   -8.2836   -4.6020 H         1 <0>         0.0896
     48 H20         4.8235   -7.9025   -4.9955 H         1 <0>         0.0380
     49 H21         9.9604  -11.6810   -3.8302 H         1 <0>         0.1667
     50 H22         9.4658  -12.8471   -5.9673 H         1 <0>         0.1437
     51 H23         7.1969  -12.6195   -6.9532 H         1 <0>         0.1666
@<TRIPOS>BOND
     1    1    6 ar
     2    1    2 ar
     3    1   29 1
     4    2    3 ar
     5    2   30 1
     6    3    4 ar
     7    3   31 1
     8    4   10 1
     9    4    5 ar
    10    5    6 ar
    11    5    7 1
    12    6   32 1
    13    7    8 2
    14    7    9 am
    15    9   10 1
    16    9   13 1
    17   10   11 2
    18   10   12 2
    19   13   14 1
    20   13   33 1
    21   13   34 1
    22   14   15 1
    23   14   35 1
    24   14   36 1
    25   15   16 1
    26   15   37 1
    27   15   38 1
    28   16   17 1
    29   16   39 1
    30   16   40 1
    31   17   22 1
    32   17   18 1
    33   18   19 1
    34   18   41 1
    35   18   42 1
    36   19   20 1
    37   19   43 1
    38   19   44 1
    39   20   21 1
    40   20   23 1
    41   21   22 1
    42   21   45 1
    43   21   46 1
    44   22   47 1
    45   22   48 1
    46   23   28 ar
    47   23   24 ar
    48   24   25 ar
    49   25   26 ar
    50   25   49 1
    51   26   27 ar
    52   26   50 1
    53   27   28 ar
    54   27   51 1
