@<TRIPOS>MOLECULE
ZINC53166256
   43    46     0     0     0
SMALL
USER_CHARGES

@<TRIPOS>ATOM
      1 C1         -0.0645    1.4412   -0.3732 C.3       1 <0>         0.0245
      2 N1         -0.0216   -0.0161   -0.1927 N.3       1 <0>        -0.5427
      3 C2          0.3881   -0.6883   -1.4329 C.3       1 <0>         0.0399
      4 C3          0.2462   -2.2042   -1.2592 C.3       1 <0>         0.1270
      5 N2          0.9912   -2.6085   -0.0572 N.pl3     1 <0>        -0.5934
      6 C4          0.7333   -1.8856    1.1973 C.3       1 <0>         0.1156
      7 C5          0.8560   -0.3822    0.9269 C.3       1 <0>         0.0395
      8 C6          1.9059   -3.6360   -0.1053 C.2       1 <0>         0.5356
      9 N3          2.1874   -4.1476   -1.2567 N.2       1 <0>        -0.6206
     10 C7          2.9530   -5.2310   -1.5577 C.ar      1 <0>         0.1701
     11 C8          2.4830   -6.1190   -2.5335 C.ar      1 <0>        -0.1161
     12 C9          3.2327   -7.2189   -2.8990 C.ar      1 <0>        -0.1046
     13 C10         4.4585   -7.4578   -2.3086 C.ar      1 <0>        -0.1308
     14 C11         4.9338   -6.5952   -1.3330 C.ar      1 <0>        -0.1099
     15 C12         4.1849   -5.4996   -0.9492 C.ar      1 <0>         0.0928
     16 N4          4.6603   -4.6750    0.0974 N.pl3     1 <0>        -0.6675
     17 C13         3.8314   -4.5378    1.1992 C.2       1 <0>         0.0941
     18 C14         2.5165   -4.0886    1.1665 C.2       1 <0>        -0.2204
     19 C15         1.8382   -4.1107    2.4492 C.2       1 <0>        -0.0854
     20 C16         2.5687   -4.5058    3.5084 C.2       1 <0>        -0.1956
     21 S1          4.1544   -4.8614    2.8004 S.3       1 <0>         0.1912
     22 C17         2.1405   -4.6249    4.9484 C.3       1 <0>         0.1641
     23 O1          1.6299   -5.9381    5.1865 O.3       1 <0>        -0.5666
     24 H1          0.9395    1.8113   -0.5807 H         1 <0>         0.0253
     25 H2         -0.7212    1.6847   -1.2084 H         1 <0>         0.0709
     26 H3         -0.4436    1.9089    0.5355 H         1 <0>         0.0707
     27 H4         -0.2467   -0.3553   -2.2540 H         1 <0>         0.0875
     28 H5          1.4271   -0.4432   -1.6533 H         1 <0>         0.0376
     29 H6         -0.8063   -2.4623   -1.1417 H         1 <0>         0.0713
     30 H7          0.6556   -2.7127   -2.1321 H         1 <0>         0.1047
     31 H8         -0.2724   -2.1131    1.5509 H         1 <0>         0.0773
     32 H9          1.4647   -2.1834    1.9486 H         1 <0>         0.0976
     33 H10         1.8885   -0.1414    0.6736 H         1 <0>         0.0377
     34 H11         0.5606    0.1728    1.8173 H         1 <0>         0.0886
     35 H12         1.5267   -5.9420   -3.0033 H         1 <0>         0.1272
     36 H13         2.8583   -7.8974   -3.6513 H         1 <0>         0.1261
     37 H14         5.0449   -8.3146   -2.6060 H         1 <0>         0.1266
     38 H15         5.8924   -6.7804   -0.8713 H         1 <0>         0.1236
     39 H16         5.5203   -4.2292    0.0463 H         1 <0>         0.4183
     40 H17         0.8015   -3.8247    2.5488 H         1 <0>         0.1460
     41 H18         2.9969   -4.4447    5.5982 H         1 <0>         0.0639
     42 H19         1.3639   -3.8895    5.1585 H         1 <0>         0.0718
     43 H20         1.3347   -6.0866    6.0953 H         1 <0>         0.3866
@<TRIPOS>BOND
     1    1    2 1
     2    1   24 1
     3    1   25 1
     4    1   26 1
     5    2    7 1
     6    2    3 1
     7    3    4 1
     8    3   27 1
     9    3   28 1
    10    4    5 1
    11    4   29 1
    12    4   30 1
    13    5    6 1
    14    5    8 1
    15    6    7 1
    16    6   31 1
    17    6   32 1
    18    7   33 1
    19    7   34 1
    20    8   18 1
    21    8    9 2
    22    9   10 1
    23   10   15 ar
    24   10   11 ar
    25   11   12 ar
    26   11   35 1
    27   12   13 ar
    28   12   36 1
    29   13   14 ar
    30   13   37 1
    31   14   15 ar
    32   14   38 1
    33   15   16 1
    34   16   17 1
    35   16   39 1
    36   17   21 1
    37   17   18 2
    38   18   19 1
    39   19   20 2
    40   19   40 1
    41   20   21 1
    42   20   22 1
    43   22   23 1
    44   22   41 1
    45   22   42 1
    46   23   43 1
@<TRIPOS>MOLECULE
ZINC53166256
   44    47     0     0     0
SMALL
USER_CHARGES

@<TRIPOS>ATOM
      1 C1         -0.0503    1.4404   -0.3738 C.3       1 <0>        -0.0468
      2 N1         -0.0137   -0.0159   -0.1846 N.4       1 <0>        -0.3851
      3 C2          0.4926   -0.6538   -1.4064 C.3       1 <0>        -0.0215
      4 C3          0.4236   -2.1768   -1.2526 C.3       1 <0>         0.1009
      5 N2          1.1441   -2.5548   -0.0269 N.pl3     1 <0>        -0.6150
      6 C4          0.8123   -1.8460    1.2187 C.3       1 <0>         0.0891
      7 C5          0.8630   -0.3387    0.9482 C.3       1 <0>        -0.0221
      8 C6          2.1011   -3.5439   -0.0451 C.2       1 <0>         0.5271
      9 N3          2.4417   -4.0411   -1.1867 N.2       1 <0>        -0.5934
     10 C7          3.2607   -5.0916   -1.4627 C.ar      1 <0>         0.1438
     11 C8          2.8603   -5.9960   -2.4544 C.ar      1 <0>        -0.1034
     12 C9          3.6662   -7.0636   -2.7954 C.ar      1 <0>        -0.1053
     13 C10         4.8803   -7.2535   -2.1643 C.ar      1 <0>        -0.1121
     14 C11         5.2869   -6.3742   -1.1727 C.ar      1 <0>        -0.1118
     15 C12         4.4814   -5.3110   -0.8134 C.ar      1 <0>         0.1053
     16 N4          4.8874   -4.4699    0.2491 N.pl3     1 <0>        -0.6685
     17 C13         4.0171   -4.3690    1.3226 C.2       1 <0>         0.0970
     18 C14         2.6868   -3.9739    1.2462 C.2       1 <0>        -0.2330
     19 C15         1.9674   -4.0264    2.5054 C.2       1 <0>        -0.1010
     20 C16         2.6776   -4.3936    3.5882 C.2       1 <0>        -0.1858
     21 S1          4.2994   -4.6826    2.9336 S.3       1 <0>         0.2189
     22 C17         2.2067   -4.5331    5.0129 C.3       1 <0>         0.1600
     23 O1          1.7425   -5.8666    5.2328 O.3       1 <0>        -0.5661
     24 H1          0.9563    1.8058   -0.5769 H         1 <0>         0.1210
     25 H2         -0.7009    1.6813   -1.2145 H         1 <0>         0.1255
     26 H3         -0.4336    1.9146    0.5297 H         1 <0>         0.1251
     27 H4         -0.1168   -0.3464   -2.2563 H         1 <0>         0.1423
     28 H5          1.5267   -0.3518   -1.5724 H         1 <0>         0.1313
     29 H6         -0.6176   -2.4904   -1.1769 H         1 <0>         0.0891
     30 H7          0.8911   -2.6535   -2.1141 H         1 <0>         0.1420
     31 H8         -0.1896   -2.1263    1.5440 H         1 <0>         0.0942
     32 H9          1.5369   -2.1040    1.9911 H         1 <0>         0.1380
     33 H10         1.8859   -0.0462    0.7110 H         1 <0>         0.1319
     34 H11         0.5265    0.2010    1.8334 H         1 <0>         0.1434
     35 H12         1.9139   -5.8573   -2.9558 H         1 <0>         0.1292
     36 H13         3.3452   -7.7553   -3.5603 H         1 <0>         0.1323
     37 H14         5.5108   -8.0849   -2.4425 H         1 <0>         0.1334
     38 H15         6.2363   -6.5211   -0.6793 H         1 <0>         0.1295
     39 H16         5.7296   -3.9892    0.2272 H         1 <0>         0.4219
     40 H17         0.9172   -3.7832    2.5704 H         1 <0>         0.1434
     41 H18         3.0327   -4.3194    5.6912 H         1 <0>         0.0672
     42 H19         1.3940   -3.8304    5.1974 H         1 <0>         0.0714
     43 H20         1.4234   -6.0289    6.1311 H         1 <0>         0.3916
     44 H21        -0.9456   -0.3526    0.0063 H         1 <0>         0.4248
@<TRIPOS>BOND
     1    1    2 1
     2    1   24 1
     3    1   25 1
     4    1   26 1
     5    2    7 1
     6    2    3 1
     7    2   44 1
     8    3    4 1
     9    3   27 1
    10    3   28 1
    11    4    5 1
    12    4   29 1
    13    4   30 1
    14    5    6 1
    15    5    8 1
    16    6    7 1
    17    6   31 1
    18    6   32 1
    19    7   33 1
    20    7   34 1
    21    8   18 1
    22    8    9 2
    23    9   10 1
    24   10   15 ar
    25   10   11 ar
    26   11   12 ar
    27   11   35 1
    28   12   13 ar
    29   12   36 1
    30   13   14 ar
    31   13   37 1
    32   14   15 ar
    33   14   38 1
    34   15   16 1
    35   16   17 1
    36   16   39 1
    37   17   21 1
    38   17   18 2
    39   18   19 1
    40   19   20 2
    41   19   40 1
    42   20   21 1
    43   20   22 1
    44   22   23 1
    45   22   41 1
    46   22   42 1
    47   23   43 1
@<TRIPOS>MOLECULE
ZINC13757083
   34    36     0     0     0
SMALL
USER_CHARGES
(2R)-1-(8-bromo-2,3,6,7-tetrahydrofuro[2,3-f]benzofuran-4-yl)propan-2-amine
@<TRIPOS>ATOM
      1 C1          6.1686    2.5690   -0.1669 C.3       1 <0>        -0.1807
      2 C2          5.2106    1.3769   -0.1209 C.3       1 <0>         0.0370
      3 H1          4.5427    1.4141   -0.9816 H         1 <0>         0.1392
      4 C3          4.3865    1.4342    1.1669 C.3       1 <0>        -0.0985
      5 C4          3.3592    0.3317    1.1554 C.ar      1 <0>        -0.0767
      6 C5          2.1127    0.5620    0.6190 C.ar      1 <0>        -0.1294
      7 C6          1.1515   -0.4393    0.5890 C.ar      1 <0>         0.1298
      8 C7          1.4637   -1.6850    1.1307 C.ar      1 <0>        -0.0636
      9 C8          2.7084   -1.9132    1.6721 C.ar      1 <0>        -0.0957
     10 C9          3.6749   -0.9157    1.6876 C.ar      1 <0>         0.0558
     11 O1          4.8332   -1.3585    2.2507 O.3       1 <0>        -0.3166
     12 C10         4.5593   -2.5317    3.0353 C.3       1 <0>         0.0582
     13 C11         3.3223   -3.1351    2.3290 C.3       1 <0>        -0.1182
     14 Br1         0.1723   -3.0663    1.1222 Br        1 <0>        -0.0086
     15 O2          0.0021   -0.0041    0.0020 O.3       1 <0>        -0.2811
     16 C12        -0.0174    1.4336    0.0099 C.3       1 <0>         0.0478
     17 C13         1.4864    1.7961   -0.0025 C.3       1 <0>        -0.1102
     18 H2          6.8364    2.5318    0.6938 H         1 <0>         0.0842
     19 H3          6.7556    2.5281   -1.0844 H         1 <0>         0.0851
     20 H4          5.5961    3.4962   -0.1428 H         1 <0>         0.1078
     21 H5          3.8835    2.3989    1.2337 H         1 <0>         0.1229
     22 H6          5.0455    1.3079    2.0259 H         1 <0>         0.1055
     23 H7          4.3228   -2.2615    4.0645 H         1 <0>         0.0894
     24 H8          5.4001   -3.2246    3.0004 H         1 <0>         0.1207
     25 H9          2.6360   -3.5741    3.0531 H         1 <0>         0.1091
     26 H10         3.6207   -3.8704    1.5818 H         1 <0>         0.1073
     27 H11        -0.5147    1.8180   -0.8806 H         1 <0>         0.1209
     28 H12        -0.4976    1.8083    0.9139 H         1 <0>         0.0893
     29 H13         1.8432    1.9426   -1.0220 H         1 <0>         0.1008
     30 H14         1.6790    2.6793    0.6066 H         1 <0>         0.1039
     31 H15         6.4850    0.0352   -1.0232 H         1 <0>         0.4368
     32 H16         6.6092    0.0688    0.6349 H         1 <0>         0.4371
     33 N1          5.9631    0.1104   -0.1516 N.4       1 <0>        -0.6452
     34 H17         5.3050   -0.6750   -0.0864 H         1 <0>         0.4360
@<TRIPOS>BOND
     1    1    2 1
     2    1   18 1
     3    1   19 1
     4    1   20 1
     5    2    3 1
     6    2    4 1
     7    2   33 1
     8    4    5 1
     9    4   21 1
    10    4   22 1
    11    5   10 ar
    12    5    6 ar
    13    6   17 1
    14    6    7 ar
    15    7    8 ar
    16    7   15 1
    17    8    9 ar
    18    8   14 1
    19    9   13 1
    20    9   10 ar
    21   10   11 1
    22   11   12 1
    23   12   13 1
    24   12   23 1
    25   12   24 1
    26   13   25 1
    27   13   26 1
    28   15   16 1
    29   16   17 1
    30   16   27 1
    31   16   28 1
    32   17   29 1
    33   17   30 1
    34   31   33 1
    35   32   33 1
    36   33   34 1
@<TRIPOS>MOLECULE
ZINC13757085
   34    36     0     0     0
SMALL
USER_CHARGES
(2S)-1-(8-bromo-2,3,6,7-tetrahydrofuro[2,3-f]benzofuran-4-yl)propan-2-amine
@<TRIPOS>ATOM
      1 C1          5.4869    3.1157   -1.4447 C.3       1 <0>        -0.1809
      2 C2          4.1111    2.4464   -1.4423 C.3       1 <0>         0.0372
      3 H1          4.1661    1.5007   -1.9815 H         1 <0>         0.1390
      4 C3          3.6731    2.1861    0.0004 C.3       1 <0>        -0.0981
      5 C4          2.3767    1.4177    0.0010 C.ar      1 <0>        -0.0766
      6 C5          2.3958    0.0414    0.0008 C.ar      1 <0>        -0.1299
      7 C6          1.2156   -0.6896   -0.0040 C.ar      1 <0>         0.1299
      8 C7          0.0021   -0.0041    0.0020 C.ar      1 <0>        -0.0638
      9 C8         -0.0166    1.3722    0.0096 C.ar      1 <0>        -0.0957
     10 C9          1.1646    2.1030    0.0022 C.ar      1 <0>         0.0567
     11 O1          0.9168    3.4421   -0.0128 O.3       1 <0>        -0.3167
     12 C10        -0.4290    3.6781    0.4350 C.3       1 <0>         0.0582
     13 C11        -1.1566    2.3728    0.0355 C.3       1 <0>        -0.1181
     14 Br1        -1.6246   -0.9683   -0.0008 Br        1 <0>        -0.0088
     15 O2          1.4632   -2.0289   -0.0218 O.3       1 <0>        -0.2812
     16 C12         2.8138   -2.2661    0.4104 C.3       1 <0>         0.0479
     17 C13         3.5365   -0.9588    0.0081 C.3       1 <0>        -0.1101
     18 H2          5.7989    3.3011   -2.4725 H         1 <0>         0.0850
     19 H3          5.4319    4.0614   -0.9055 H         1 <0>         0.0841
     20 H4          6.2101    2.4614   -0.9579 H         1 <0>         0.1078
     21 H5          3.5322    3.1368    0.5145 H         1 <0>         0.1054
     22 H6          4.4398    1.6056    0.5137 H         1 <0>         0.1228
     23 H7         -0.4570    3.8208    1.5153 H         1 <0>         0.0892
     24 H8         -0.8627    4.5352   -0.0802 H         1 <0>         0.1206
     25 H9         -1.6138    2.4677   -0.9494 H         1 <0>         0.1072
     26 H10        -1.8999    2.0968    0.7834 H         1 <0>         0.1089
     27 H11         2.8536   -2.4130    1.4897 H         1 <0>         0.0893
     28 H12         3.2422   -3.1209   -0.1129 H         1 <0>         0.1208
     29 H13         4.2887   -0.6861    0.7483 H         1 <0>         0.1038
     30 H14         3.9823   -1.0492   -0.9824 H         1 <0>         0.1008
     31 H15         3.0194    4.1864   -1.5807 H         1 <0>         0.4373
     32 H16         3.4034    3.5153   -3.0532 H         1 <0>         0.4367
     33 N1          3.1158    3.3135   -2.0970 N.4       1 <0>        -0.6450
     34 H17         2.2087    2.8327   -2.1144 H         1 <0>         0.4363
@<TRIPOS>BOND
     1    1    2 1
     2    1   18 1
     3    1   19 1
     4    1   20 1
     5    2    3 1
     6    2    4 1
     7    2   33 1
     8    4    5 1
     9    4   21 1
    10    4   22 1
    11    5   10 ar
    12    5    6 ar
    13    6   17 1
    14    6    7 ar
    15    7    8 ar
    16    7   15 1
    17    8    9 ar
    18    8   14 1
    19    9   13 1
    20    9   10 ar
    21   10   11 1
    22   11   12 1
    23   12   13 1
    24   12   23 1
    25   12   24 1
    26   13   25 1
    27   13   26 1
    28   15   16 1
    29   16   17 1
    30   16   27 1
    31   16   28 1
    32   17   29 1
    33   17   30 1
    34   31   33 1
    35   32   33 1
    36   33   34 1
@<TRIPOS>MOLECULE
ZINC49069480
   39    40     0     0     0
SMALL
USER_CHARGES

@<TRIPOS>ATOM
      1 C1         -0.7528    1.4215    0.1885 C.3       1 <0>        -0.1476
      2 C2         -0.3826   -0.0602    0.0969 C.3       1 <0>         0.1420
      3 H1          0.1427   -0.2492   -0.8392 H         1 <0>         0.1037
      4 C3         -1.6542   -0.9131    0.1551 C.3       1 <0>        -0.0226
      5 N1         -1.2875   -2.3341    0.2047 N.4       1 <0>        -0.5054
      6 C4         -0.5625   -2.6203    1.4491 C.3       1 <0>        -0.0216
      7 C5          0.7632   -1.8519    1.4551 C.3       1 <0>         0.1241
      8 H2          1.4061   -2.2246    0.6577 H         1 <0>         0.1039
      9 N2          0.4808   -0.4249    1.2307 N.am      1 <0>        -0.6132
     10 C6          0.9942    0.5201    2.0429 C.2       1 <0>         0.6526
     11 O1          0.6643    1.6818    1.9080 O.2       1 <0>        -0.5392
     12 O2          1.8727    0.1771    3.0038 O.3       1 <0>        -0.3397
     13 C7          2.3765    1.2301    3.8282 C.3       1 <0>         0.1135
     14 C8          3.3388    0.6605    4.8384 C.ar      1 <0>        -0.1056
     15 C9          2.8753    0.2264    6.0662 C.ar      1 <0>        -0.0958
     16 C10         3.7580   -0.2961    6.9929 C.ar      1 <0>        -0.1209
     17 C11         5.1042   -0.3848    6.6916 C.ar      1 <0>        -0.1024
     18 C12         5.5676    0.0485    5.4634 C.ar      1 <0>        -0.1201
     19 C13         4.6842    0.5670    4.5351 C.ar      1 <0>        -0.0950
     20 C14         1.4587   -2.0371    2.8052 C.3       1 <0>        -0.1596
     21 H3          0.1412    2.0288    0.0469 H         1 <0>         0.0957
     22 H4         -1.4819    1.6624   -0.5852 H         1 <0>         0.0665
     23 H5         -1.1815    1.6290    1.1689 H         1 <0>         0.0835
     24 H6         -2.2253   -0.6538    1.0466 H         1 <0>         0.1377
     25 H7         -2.2592   -0.7246   -0.7318 H         1 <0>         0.1513
     26 H8         -2.1236   -2.8975    0.1668 H         1 <0>         0.4362
     27 H9         -1.1666   -2.3093    2.3015 H         1 <0>         0.1369
     28 H10        -0.3630   -3.6898    1.5158 H         1 <0>         0.1499
     29 H11         2.8926    1.9623    3.2073 H         1 <0>         0.0809
     30 H12         1.5485    1.7130    4.3472 H         1 <0>         0.0807
     31 H13         1.8235    0.2957    6.3017 H         1 <0>         0.1228
     32 H14         3.3960   -0.6346    7.9524 H         1 <0>         0.1280
     33 H15         5.7940   -0.7923    7.4158 H         1 <0>         0.1282
     34 H16         6.6194   -0.0205    5.2281 H         1 <0>         0.1285
     35 H17         5.0457    0.9021    3.5741 H         1 <0>         0.1241
     36 H18         1.5104   -3.0992    3.0446 H         1 <0>         0.0829
     37 H19         2.4672   -1.6268    2.7536 H         1 <0>         0.1037
     38 H20         0.8941   -1.5173    3.5791 H         1 <0>         0.0817
     39 H21        -0.6992   -2.5561   -0.5845 H         1 <0>         0.4298
@<TRIPOS>BOND
     1    1    2 1
     2    1   21 1
     3    1   22 1
     4    1   23 1
     5    2    3 1
     6    2    9 1
     7    2    4 1
     8    4    5 1
     9    4   24 1
    10    4   25 1
    11    5    6 1
    12    5   26 1
    13    5   39 1
    14    6    7 1
    15    6   27 1
    16    6   28 1
    17    7    8 1
    18    7    9 1
    19    7   20 1
    20    9   10 am
    21   10   11 2
    22   10   12 1
    23   12   13 1
    24   13   14 1
    25   13   29 1
    26   13   30 1
    27   14   19 ar
    28   14   15 ar
    29   15   16 ar
    30   15   31 1
    31   16   17 ar
    32   16   32 1
    33   17   18 ar
    34   17   33 1
    35   18   19 ar
    36   18   34 1
    37   19   35 1
    38   20   36 1
    39   20   37 1
    40   20   38 1
@<TRIPOS>MOLECULE
ZINC49069480
   38    39     0     0     0
SMALL
USER_CHARGES

@<TRIPOS>ATOM
      1 C1         -0.7062    1.4322    0.1993 C.3       1 <0>        -0.1413
      2 C2         -0.3574   -0.0543    0.1021 C.3       1 <0>         0.1620
      3 H1          0.1662   -0.2471   -0.8342 H         1 <0>         0.0840
      4 C3         -1.6415   -0.8889    0.1550 C.3       1 <0>         0.0449
      5 N1         -1.2929   -2.3146    0.2174 N.3       1 <0>        -0.6910
      6 C4         -0.5515   -2.6286    1.4460 C.3       1 <0>         0.0465
      7 C5          0.7773   -1.8653    1.4460 C.3       1 <0>         0.1431
      8 H2          1.4118   -2.2348    0.6403 H         1 <0>         0.0846
      9 N2          0.4995   -0.4358    1.2350 N.am      1 <0>        -0.5922
     10 C6          1.0120    0.4985    2.0601 C.2       1 <0>         0.6455
     11 O1          0.6859    1.6626    1.9369 O.2       1 <0>        -0.5641
     12 O2          1.8852    0.1421    3.0209 O.3       1 <0>        -0.3417
     13 C7          2.3883    1.1842    3.8593 C.3       1 <0>         0.1109
     14 C8          3.3446    0.6005    4.8672 C.ar      1 <0>        -0.0950
     15 C9          2.8745    0.1538    6.0880 C.ar      1 <0>        -0.0961
     16 C10         3.7517   -0.3816    7.0125 C.ar      1 <0>        -0.1224
     17 C11         5.0989   -0.4707    6.7161 C.ar      1 <0>        -0.1094
     18 C12         5.5689   -0.0248    5.4949 C.ar      1 <0>        -0.1221
     19 C13         4.6911    0.5067    4.5687 C.ar      1 <0>        -0.0960
     20 C14         1.4838   -2.0635    2.7886 C.3       1 <0>        -0.1538
     21 H3          0.1986    2.0267    0.0727 H         1 <0>         0.0774
     22 H4         -1.4220    1.6892   -0.5815 H         1 <0>         0.0514
     23 H5         -1.1437    1.6397    1.1759 H         1 <0>         0.0710
     24 H6         -2.2165   -0.6160    1.0399 H         1 <0>         0.0386
     25 H7         -2.2361   -0.6986   -0.7385 H         1 <0>         0.0921
     26 H8         -1.1416   -2.3315    2.3129 H         1 <0>         0.0375
     27 H9         -0.3555   -3.7000    1.4888 H         1 <0>         0.0905
     28 H10         2.9092    1.9220    3.2490 H         1 <0>         0.0753
     29 H11         1.5594    1.6636    4.3801 H         1 <0>         0.0749
     30 H12         1.8219    0.2234    6.3196 H         1 <0>         0.1229
     31 H13         3.3845   -0.7300    7.9665 H         1 <0>         0.1252
     32 H14         5.7843   -0.8884    7.4386 H         1 <0>         0.1245
     33 H15         6.6215   -0.0941    5.2634 H         1 <0>         0.1255
     34 H16         5.0577    0.8516    3.6132 H         1 <0>         0.1238
     35 H17         1.5439   -3.1282    3.0139 H         1 <0>         0.0696
     36 H18         2.4894   -1.6462    2.7350 H         1 <0>         0.0855
     37 H19         0.9216   -1.5571    3.5732 H         1 <0>         0.0683
     38 H20        -2.1161   -2.8921    0.1342 H         1 <0>         0.3497
@<TRIPOS>BOND
     1    1    2 1
     2    1   21 1
     3    1   22 1
     4    1   23 1
     5    2    3 1
     6    2    9 1
     7    2    4 1
     8    4    5 1
     9    4   24 1
    10    4   25 1
    11    5    6 1
    12    5   38 1
    13    6    7 1
    14    6   26 1
    15    6   27 1
    16    7    8 1
    17    7    9 1
    18    7   20 1
    19    9   10 am
    20   10   11 2
    21   10   12 1
    22   12   13 1
    23   13   14 1
    24   13   28 1
    25   13   29 1
    26   14   19 ar
    27   14   15 ar
    28   15   16 ar
    29   15   30 1
    30   16   17 ar
    31   16   31 1
    32   17   18 ar
    33   17   32 1
    34   18   19 ar
    35   18   33 1
    36   19   34 1
    37   20   35 1
    38   20   36 1
    39   20   37 1
@<TRIPOS>MOLECULE
ZINC40429425
   36    37     0     0     0
SMALL
USER_CHARGES

@<TRIPOS>ATOM
      1 C1         -0.0167    1.3784    0.0096 C.ar      1 <0>        -0.0584
      2 C2          1.1695    2.0865    0.0021 C.ar      1 <0>        -0.1243
      3 C3          2.3802    1.4093   -0.0131 C.ar      1 <0>         0.1280
      4 C4          2.3963    0.0221   -0.0206 C.ar      1 <0>        -0.1920
      5 C5          1.2074   -0.6814   -0.0130 C.ar      1 <0>        -0.0534
      6 C6          0.0021   -0.0041    0.0020 C.ar      1 <0>        -0.1472
      7 C7         -1.2934   -0.7740    0.0107 C.3       1 <0>         0.1627
      8 N1         -1.7268   -1.0161   -1.3676 N.am      1 <0>        -0.6962
      9 C8         -2.8683   -1.6917   -1.6062 C.2       1 <0>         0.5057
     10 O1         -3.5367   -2.0993   -0.6799 O.2       1 <0>        -0.5247
     11 C9         -3.3142   -1.9407   -3.0241 C.3       1 <0>         0.0016
     12 H1         -2.5512   -2.5066   -3.5586 H         1 <0>         0.1682
     13 C10        -3.5677   -0.5966   -3.7384 C.3       1 <0>        -0.1348
     14 C11        -4.8206   -0.8918   -4.6044 C.3       1 <0>        -0.1413
     15 C12        -5.6169   -1.8516   -3.6855 C.3       1 <0>        -0.0073
     16 N2         -4.5858   -2.6871   -3.0262 N.4       1 <0>        -0.5036
     17 O2          3.5484    2.1036   -0.0209 O.3       1 <0>        -0.3085
     18 C13         4.7565    1.3405   -0.0365 C.3       1 <0>         0.6050
     19 F1          4.7875    0.5396   -1.1831 F         1 <0>        -0.1637
     20 F2          5.8551    2.2067   -0.0428 F         1 <0>        -0.1240
     21 F3          4.8097    0.5282    1.1013 F         1 <0>        -0.1617
     22 H2         -0.9594    1.9052    0.0259 H         1 <0>         0.1409
     23 H3          1.1543    3.1664    0.0076 H         1 <0>         0.1466
     24 H4          3.3375   -0.5074   -0.0328 H         1 <0>         0.1403
     25 H5          1.2194   -1.7613   -0.0189 H         1 <0>         0.1366
     26 H6         -1.1460   -1.7274    0.5180 H         1 <0>         0.0911
     27 H7         -2.0553   -0.1973    0.5352 H         1 <0>         0.0916
     28 H8         -1.1923   -0.6901   -2.1085 H         1 <0>         0.4128
     29 H9         -3.7764    0.1912   -3.0146 H         1 <0>         0.1051
     30 H10        -2.7189   -0.3284   -4.3675 H         1 <0>         0.1244
     31 H11        -5.3847    0.0204   -4.7987 H         1 <0>         0.1230
     32 H12        -4.5437   -1.3839   -5.5367 H         1 <0>         0.1048
     33 H13        -6.1804   -1.2861   -2.9434 H         1 <0>         0.1360
     34 H14        -6.2868   -2.4751   -4.2776 H         1 <0>         0.1434
     35 H15        -4.4711   -3.5518   -3.5334 H         1 <0>         0.4360
     36 H16        -4.8645   -2.8858   -2.0771 H         1 <0>         0.4371
@<TRIPOS>BOND
     1    1    6 ar
     2    1    2 ar
     3    1   22 1
     4    2    3 ar
     5    2   23 1
     6    3    4 ar
     7    3   17 1
     8    4    5 ar
     9    4   24 1
    10    5    6 ar
    11    5   25 1
    12    6    7 1
    13    7    8 1
    14    7   26 1
    15    7   27 1
    16    8    9 am
    17    8   28 1
    18    9   10 2
    19    9   11 1
    20   11   12 1
    21   11   16 1
    22   11   13 1
    23   13   14 1
    24   13   29 1
    25   13   30 1
    26   14   15 1
    27   14   31 1
    28   14   32 1
    29   15   16 1
    30   15   33 1
    31   15   34 1
    32   16   35 1
    33   16   36 1
    34   17   18 1
    35   18   19 1
    36   18   20 1
    37   18   21 1
@<TRIPOS>MOLECULE
ZINC49116246
   36    37     0     0     0
SMALL
USER_CHARGES

@<TRIPOS>ATOM
      1 C1         -0.0167    1.3784    0.0096 C.ar      1 <0>        -0.0609
      2 C2          1.1695    2.0865    0.0021 C.ar      1 <0>        -0.1246
      3 C3          2.3802    1.4093   -0.0131 C.ar      1 <0>         0.1243
      4 C4          2.3963    0.0221   -0.0206 C.ar      1 <0>        -0.1914
      5 C5          1.2074   -0.6814   -0.0130 C.ar      1 <0>        -0.0548
      6 C6          0.0021   -0.0041    0.0020 C.ar      1 <0>        -0.1418
      7 C7         -1.2934   -0.7740    0.0107 C.3       1 <0>         0.1631
      8 N1         -1.7268   -1.0161   -1.3676 N.am      1 <0>        -0.7128
      9 C8         -2.8683   -1.6917   -1.6062 C.2       1 <0>         0.5149
     10 O1         -3.5367   -2.0993   -0.6799 O.2       1 <0>        -0.5290
     11 C9         -3.3142   -1.9407   -3.0241 C.3       1 <0>        -0.1348
     12 H1         -2.5555   -2.5065   -3.5647 H         1 <0>         0.1400
     13 C10        -3.5965   -0.6005   -3.7410 C.3       1 <0>        -0.1409
     14 C11        -4.8568   -0.9176   -4.5845 C.3       1 <0>        -0.0018
     15 N2         -5.6434   -1.8122   -3.6973 N.4       1 <0>        -0.5171
     16 C12        -4.6556   -2.6970   -3.0375 C.3       1 <0>         0.0000
     17 O2          3.5484    2.1036   -0.0209 O.3       1 <0>        -0.3091
     18 C13         4.7565    1.3405   -0.0365 C.3       1 <0>         0.6049
     19 F1          4.7875    0.5396   -1.1831 F         1 <0>        -0.1638
     20 F2          5.8551    2.2067   -0.0428 F         1 <0>        -0.1248
     21 F3          4.8097    0.5282    1.1013 F         1 <0>        -0.1619
     22 H2         -0.9594    1.9052    0.0259 H         1 <0>         0.1396
     23 H3          1.1543    3.1664    0.0076 H         1 <0>         0.1453
     24 H4          3.3375   -0.5074   -0.0328 H         1 <0>         0.1395
     25 H5          1.2194   -1.7613   -0.0189 H         1 <0>         0.1364
     26 H6         -1.1460   -1.7274    0.5180 H         1 <0>         0.0862
     27 H7         -2.0553   -0.1973    0.5352 H         1 <0>         0.0859
     28 H8         -1.1923   -0.6901   -2.1085 H         1 <0>         0.4071
     29 H9         -3.8049    0.1876   -3.0174 H         1 <0>         0.1036
     30 H10        -2.7613   -0.3238   -4.3844 H         1 <0>         0.1266
     31 H11        -5.4132   -0.0059   -4.8026 H         1 <0>         0.1424
     32 H12        -4.5837   -1.4325   -5.5056 H         1 <0>         0.1408
     33 H13        -6.1403   -1.2687   -3.0074 H         1 <0>         0.4344
     34 H14        -4.5528   -3.6253   -3.5995 H         1 <0>         0.1424
     35 H15        -4.9715   -2.9109   -2.0165 H         1 <0>         0.1552
     36 H16        -6.2913   -2.3609   -4.2425 H         1 <0>         0.4368
@<TRIPOS>BOND
     1    1    6 ar
     2    1    2 ar
     3    1   22 1
     4    2    3 ar
     5    2   23 1
     6    3    4 ar
     7    3   17 1
     8    4    5 ar
     9    4   24 1
    10    5    6 ar
    11    5   25 1
    12    6    7 1
    13    7    8 1
    14    7   26 1
    15    7   27 1
    16    8    9 am
    17    8   28 1
    18    9   10 2
    19    9   11 1
    20   11   12 1
    21   11   16 1
    22   11   13 1
    23   13   14 1
    24   13   29 1
    25   13   30 1
    26   14   15 1
    27   14   31 1
    28   14   32 1
    29   15   16 1
    30   15   33 1
    31   15   36 1
    32   16   34 1
    33   16   35 1
    34   17   18 1
    35   18   19 1
    36   18   20 1
    37   18   21 1
@<TRIPOS>MOLECULE
ZINC49116250
   36    37     0     0     0
SMALL
USER_CHARGES

@<TRIPOS>ATOM
      1 C1         -0.0167    1.3784    0.0096 C.ar      1 <0>        -0.0599
      2 C2          1.1695    2.0865    0.0021 C.ar      1 <0>        -0.1238
      3 C3          2.3802    1.4093   -0.0131 C.ar      1 <0>         0.1238
      4 C4          2.3963    0.0221   -0.0206 C.ar      1 <0>        -0.1922
      5 C5          1.2074   -0.6814   -0.0130 C.ar      1 <0>        -0.0560
      6 C6          0.0021   -0.0041    0.0020 C.ar      1 <0>        -0.1412
      7 C7         -1.2934   -0.7740    0.0107 C.3       1 <0>         0.1633
      8 N1         -1.7268   -1.0161   -1.3676 N.am      1 <0>        -0.7136
      9 C8         -2.8683   -1.6917   -1.6062 C.2       1 <0>         0.5206
     10 O1         -3.5367   -2.0993   -0.6799 O.2       1 <0>        -0.5265
     11 C9         -3.3142   -1.9407   -3.0241 C.3       1 <0>        -0.1333
     12 H1         -3.4555   -0.9984   -3.5533 H         1 <0>         0.1359
     13 C10        -2.2942   -2.8411   -3.7697 C.3       1 <0>        -0.1380
     14 C11        -3.1902   -3.5046   -4.8452 C.3       1 <0>        -0.0060
     15 N2         -4.4836   -3.7374   -4.1678 N.4       1 <0>        -0.5145
     16 C12        -4.6088   -2.7802   -3.0494 C.3       1 <0>         0.0017
     17 O2          3.5484    2.1036   -0.0209 O.3       1 <0>        -0.3088
     18 C13         4.7565    1.3405   -0.0365 C.3       1 <0>         0.6049
     19 F1          4.7875    0.5396   -1.1831 F         1 <0>        -0.1644
     20 F2          5.8551    2.2067   -0.0428 F         1 <0>        -0.1248
     21 F3          4.8097    0.5282    1.1013 F         1 <0>        -0.1621
     22 H2         -0.9594    1.9052    0.0259 H         1 <0>         0.1409
     23 H3          1.1543    3.1664    0.0076 H         1 <0>         0.1457
     24 H4          3.3375   -0.5074   -0.0328 H         1 <0>         0.1390
     25 H5          1.2194   -1.7613   -0.0189 H         1 <0>         0.1353
     26 H6         -1.1460   -1.7274    0.5180 H         1 <0>         0.0854
     27 H7         -2.0553   -0.1973    0.5352 H         1 <0>         0.0868
     28 H8         -1.1923   -0.6901   -2.1085 H         1 <0>         0.4064
     29 H9         -1.5090   -2.2422   -4.2310 H         1 <0>         0.1255
     30 H10        -1.8702   -3.5886   -3.0994 H         1 <0>         0.1052
     31 H11        -3.3221   -2.8349   -5.6951 H         1 <0>         0.1392
     32 H12        -2.7563   -4.4503   -5.1698 H         1 <0>         0.1419
     33 H13        -5.2395   -3.5939   -4.8207 H         1 <0>         0.4351
     34 H14        -4.7184   -3.3213   -2.1096 H         1 <0>         0.1507
     35 H15        -5.4692   -2.1302   -3.2081 H         1 <0>         0.1428
     36 H16        -4.5166   -4.6818   -3.8142 H         1 <0>         0.4347
@<TRIPOS>BOND
     1    1    6 ar
     2    1    2 ar
     3    1   22 1
     4    2    3 ar
     5    2   23 1
     6    3    4 ar
     7    3   17 1
     8    4    5 ar
     9    4   24 1
    10    5    6 ar
    11    5   25 1
    12    6    7 1
    13    7    8 1
    14    7   26 1
    15    7   27 1
    16    8    9 am
    17    8   28 1
    18    9   10 2
    19    9   11 1
    20   11   12 1
    21   11   16 1
    22   11   13 1
    23   13   14 1
    24   13   29 1
    25   13   30 1
    26   14   15 1
    27   14   31 1
    28   14   32 1
    29   15   16 1
    30   15   33 1
    31   15   36 1
    32   16   34 1
    33   16   35 1
    34   17   18 1
    35   18   19 1
    36   18   20 1
    37   18   21 1
@<TRIPOS>MOLECULE
ZINC49111167
   59    61     0     0     0
SMALL
USER_CHARGES

@<TRIPOS>ATOM
      1 C1          0.0096    1.5262    0.2536 C.3       1 <0>        -0.1440
      2 C2          0.0295   -0.0037    0.2485 C.3       1 <0>        -0.0684
      3 C3          0.5120   -0.5029   -1.1149 C.3       1 <0>        -0.1059
      4 C4          0.5319   -2.0327   -1.1201 C.3       1 <0>        -0.1186
      5 C5          1.4798   -2.5341   -0.0287 C.3       1 <0>         0.0854
      6 C6          0.9972   -2.0349    1.3347 C.3       1 <0>        -0.1473
      7 C7          0.9774   -0.5051    1.3398 C.3       1 <0>        -0.1053
      8 O1          1.4983   -3.9630   -0.0335 O.3       1 <0>        -0.2926
      9 C8          2.6095   -4.5675    0.4647 C.ar      1 <0>         0.1647
     10 C9          3.6098   -3.8070    1.0496 C.ar      1 <0>        -0.2795
     11 C10         4.7416   -4.4260    1.5573 C.ar      1 <0>         0.1811
     12 C11         4.8716   -5.8050    1.4794 C.ar      1 <0>        -0.1745
     13 C12         3.8740   -6.5627    0.8956 C.ar      1 <0>        -0.0539
     14 C13         2.7409   -5.9486    0.3932 C.ar      1 <0>         0.0331
     15 F1          1.7644   -6.6915   -0.1721 F         1 <0>        -0.1255
     16 C14         6.1022   -6.4774    2.0314 C.3       1 <0>         0.1768
     17 N1          5.9768   -6.6078    3.4852 N.am      1 <0>        -0.6903
     18 C15         6.9653   -7.1834    4.1979 C.2       1 <0>         0.5053
     19 O2          7.9586   -7.5935    3.6357 O.2       1 <0>        -0.5271
     20 C16         6.8364   -7.3175    5.6933 C.3       1 <0>         0.0013
     21 H1          5.9521   -7.9060    5.9378 H         1 <0>         0.1674
     22 C17         6.7315   -5.9196    6.3387 C.3       1 <0>        -0.1343
     23 C18         7.5618   -6.0724    7.6403 C.3       1 <0>        -0.1412
     24 C19         8.6949   -7.0225    7.1789 C.3       1 <0>        -0.0070
     25 N2          8.0397   -7.9675    6.2443 N.4       1 <0>        -0.5032
     26 O3          5.7240   -3.6818    2.1310 O.3       1 <0>        -0.3082
     27 C20         5.5238   -2.2676    2.1766 C.3       1 <0>         0.0213
     28 C21        -1.3810   -0.5330    0.5154 C.3       1 <0>        -0.1492
     29 H2          1.0145    1.9032    0.0634 H         1 <0>         0.0552
     30 H3         -0.6657    1.8834   -0.5239 H         1 <0>         0.0592
     31 H4         -0.3342    1.8818    1.2249 H         1 <0>         0.0574
     32 H5         -0.1633   -0.1457   -1.8924 H         1 <0>         0.0773
     33 H6          1.5169   -0.1258   -1.3051 H         1 <0>         0.0657
     34 H7         -0.4730   -2.4098   -0.9299 H         1 <0>         0.0822
     35 H8          0.8756   -2.3884   -2.0914 H         1 <0>         0.0753
     36 H9          2.4846   -2.1571   -0.2189 H         1 <0>         0.0744
     37 H10        -0.0076   -2.4120    1.5248 H         1 <0>         0.0831
     38 H11         1.6725   -2.3921    2.1122 H         1 <0>         0.0650
     39 H12         1.9822   -0.1280    1.1497 H         1 <0>         0.0629
     40 H13         0.6336   -0.1494    2.3111 H         1 <0>         0.0722
     41 H14         3.5077   -2.7335    1.1095 H         1 <0>         0.1513
     42 H15         3.9773   -7.6361    0.8355 H         1 <0>         0.1534
     43 H16         6.2066   -7.4666    1.5856 H         1 <0>         0.0900
     44 H17         6.9810   -5.8776    1.7948 H         1 <0>         0.0934
     45 H18         5.1824   -6.2798    3.9348 H         1 <0>         0.4108
     46 H19         7.1691   -5.1615    5.6892 H         1 <0>         0.1058
     47 H20         5.6939   -5.6786    6.5695 H         1 <0>         0.1230
     48 H21         7.9644   -5.1118    7.9616 H         1 <0>         0.1221
     49 H22         6.9672   -6.5291    8.4314 H         1 <0>         0.1042
     50 H23         9.4762   -6.4608    6.6668 H         1 <0>         0.1358
     51 H24         9.1098   -7.5604    8.0313 H         1 <0>         0.1429
     52 H25         7.7763   -8.8078    6.7368 H         1 <0>         0.4355
     53 H26         5.4192   -1.8825    1.1623 H         1 <0>         0.0614
     54 H27         4.6198   -2.0467    2.7442 H         1 <0>         0.0603
     55 H28         6.3798   -1.7948    2.6582 H         1 <0>         0.1074
     56 H29        -2.0563   -0.1758   -0.2621 H         1 <0>         0.0585
     57 H30        -1.3669   -1.6229    0.5117 H         1 <0>         0.0606
     58 H31        -1.7248   -0.1773    1.4867 H         1 <0>         0.0563
     59 H32         8.6738   -8.1994    5.4945 H         1 <0>         0.4371
@<TRIPOS>BOND
     1    1    2 1
     2    1   29 1
     3    1   30 1
     4    1   31 1
     5    2    7 1
     6    2    3 1
     7    2   28 1
     8    3    4 1
     9    3   32 1
    10    3   33 1
    11    4    5 1
    12    4   34 1
    13    4   35 1
    14    5    6 1
    15    5    8 1
    16    5   36 1
    17    6    7 1
    18    6   37 1
    19    6   38 1
    20    7   39 1
    21    7   40 1
    22    8    9 1
    23    9   14 ar
    24    9   10 ar
    25   10   11 ar
    26   10   41 1
    27   11   12 ar
    28   11   26 1
    29   12   13 ar
    30   12   16 1
    31   13   14 ar
    32   13   42 1
    33   14   15 1
    34   16   17 1
    35   16   43 1
    36   16   44 1
    37   17   18 am
    38   17   45 1
    39   18   19 2
    40   18   20 1
    41   20   21 1
    42   20   25 1
    43   20   22 1
    44   22   23 1
    45   22   46 1
    46   22   47 1
    47   23   24 1
    48   23   48 1
    49   23   49 1
    50   24   25 1
    51   24   50 1
    52   24   51 1
    53   25   52 1
    54   25   59 1
    55   26   27 1
    56   27   53 1
    57   27   54 1
    58   27   55 1
    59   28   56 1
    60   28   57 1
    61   28   58 1
@<TRIPOS>MOLECULE
ZINC49070846
   48    50     0     0     0
SMALL
USER_CHARGES

@<TRIPOS>ATOM
      1 C1         -0.0167    1.3781    0.0096 C.ar      1 <0>        -0.0936
      2 C2          1.1709    2.0855    0.0021 C.ar      1 <0>        -0.1180
      3 C3          2.3773    1.4107   -0.0130 C.ar      1 <0>        -0.0511
      4 C4          2.3960    0.0285   -0.0201 C.ar      1 <0>        -0.1145
      5 C5          1.2085   -0.6789   -0.0117 C.ar      1 <0>        -0.0940
      6 C6          0.0021   -0.0041    0.0020 C.ar      1 <0>        -0.1343
      7 C7         -1.2926   -0.7753    0.0107 C.3       1 <0>         0.1613
      8 N1         -1.7258   -1.0177   -1.3676 N.am      1 <0>        -0.6940
      9 C8         -2.8667   -1.6945   -1.6063 C.2       1 <0>         0.5043
     10 O1         -3.5346   -2.1028   -0.6800 O.2       1 <0>        -0.5264
     11 C9         -3.3123   -1.9439   -3.0241 C.3       1 <0>         0.0017
     12 H1         -2.5487   -2.5091   -3.5586 H         1 <0>         0.1678
     13 C10        -3.5671   -0.6000   -3.7385 C.3       1 <0>        -0.1347
     14 C11        -4.8197   -0.8965   -4.6044 C.3       1 <0>        -0.1412
     15 C12        -5.6151   -1.8571   -3.6856 C.3       1 <0>        -0.0072
     16 N2         -4.5831   -2.6915   -3.0263 N.4       1 <0>        -0.5034
     17 C13         3.6720    2.1819   -0.0222 C.3       1 <0>        -0.0542
     18 C14         4.4668    1.8291   -1.2811 C.3       1 <0>        -0.1085
     19 C15         5.7813    2.6120   -1.2904 C.3       1 <0>        -0.1216
     20 C16         6.6008    2.2476   -0.0509 C.3       1 <0>        -0.1225
     21 C17         5.8060    2.6004    1.2079 C.3       1 <0>        -0.1217
     22 C18         4.4916    1.8174    1.2173 C.3       1 <0>        -0.1105
     23 H2         -0.9591    1.9053    0.0259 H         1 <0>         0.1236
     24 H3          1.1563    3.1654    0.0076 H         1 <0>         0.1273
     25 H4          3.3385   -0.4987   -0.0326 H         1 <0>         0.1272
     26 H5          1.2231   -1.7588   -0.0179 H         1 <0>         0.1236
     27 H6         -1.1443   -1.7285    0.5180 H         1 <0>         0.0879
     28 H7         -2.0551   -0.1993    0.5352 H         1 <0>         0.0876
     29 H8         -1.1916   -0.6912   -2.1085 H         1 <0>         0.4122
     30 H9         -3.7766    0.1876   -3.0146 H         1 <0>         0.1048
     31 H10        -2.7186   -0.3310   -4.3675 H         1 <0>         0.1242
     32 H11        -5.3847    0.0152   -4.7987 H         1 <0>         0.1228
     33 H12        -4.5423   -1.3883   -5.5368 H         1 <0>         0.1047
     34 H13        -6.1791   -1.2921   -2.9434 H         1 <0>         0.1359
     35 H14        -6.2844   -2.4812   -4.2777 H         1 <0>         0.1434
     36 H15        -4.4676   -3.5561   -3.5334 H         1 <0>         0.4357
     37 H16         3.4583    3.2507   -0.0151 H         1 <0>         0.0811
     38 H17         4.6805    0.7603   -1.2882 H         1 <0>         0.0638
     39 H18         3.8829    2.0888   -2.1641 H         1 <0>         0.0618
     40 H19         6.3475    2.3607   -2.1872 H         1 <0>         0.0648
     41 H20         5.5676    3.6809   -1.2833 H         1 <0>         0.0635
     42 H21         6.8145    1.1787   -0.0580 H         1 <0>         0.0619
     43 H22         7.5373    2.8053   -0.0576 H         1 <0>         0.0644
     44 H23         6.3899    2.3407    2.0909 H         1 <0>         0.0656
     45 H24         5.5923    3.6692    1.2150 H         1 <0>         0.0636
     46 H25         3.9253    2.0688    2.1141 H         1 <0>         0.0637
     47 H26         4.7052    0.7486    1.2102 H         1 <0>         0.0643
     48 H27        -4.8617   -2.8905   -2.0771 H         1 <0>         0.4370
@<TRIPOS>BOND
     1    1    6 ar
     2    1    2 ar
     3    1   23 1
     4    2    3 ar
     5    2   24 1
     6    3    4 ar
     7    3   17 1
     8    4    5 ar
     9    4   25 1
    10    5    6 ar
    11    5   26 1
    12    6    7 1
    13    7    8 1
    14    7   27 1
    15    7   28 1
    16    8    9 am
    17    8   29 1
    18    9   10 2
    19    9   11 1
    20   11   12 1
    21   11   16 1
    22   11   13 1
    23   13   14 1
    24   13   30 1
    25   13   31 1
    26   14   15 1
    27   14   32 1
    28   14   33 1
    29   15   16 1
    30   15   34 1
    31   15   35 1
    32   16   36 1
    33   16   48 1
    34   17   22 1
    35   17   18 1
    36   17   37 1
    37   18   19 1
    38   18   38 1
    39   18   39 1
    40   19   20 1
    41   19   40 1
    42   19   41 1
    43   20   21 1
    44   20   42 1
    45   20   43 1
    46   21   22 1
    47   21   44 1
    48   21   45 1
    49   22   46 1
    50   22   47 1
@<TRIPOS>MOLECULE
ZINC00020245
   46    48     0     0     0
SMALL
USER_CHARGES

@<TRIPOS>ATOM
      1 C1         -5.6836    1.3838    0.0162 C.3       1 <0>        -0.0473
      2 N1         -5.6620   -0.0833   -0.0564 N.4       1 <0>        -0.3868
      3 C2         -6.3713   -0.5242   -1.2649 C.3       1 <0>        -0.0522
      4 C3         -4.2702   -0.5505   -0.1076 C.3       1 <0>        -0.0086
      5 C4         -4.2434   -2.0795   -0.0575 C.3       1 <0>        -0.1781
      6 C5         -2.7938   -2.5661   -0.1108 C.3       1 <0>         0.1490
      7 N2         -2.7704   -4.0309   -0.1190 N.pl3     1 <0>        -0.6108
      8 C6         -2.7295   -4.7451   -1.3212 C.ar      1 <0>         0.1758
      9 C7         -1.6865   -4.4783   -2.2022 C.ar      1 <0>        -0.1411
     10 C8         -1.5734   -5.1772   -3.3856 C.ar      1 <0>        -0.1022
     11 C9         -2.5089   -6.1508   -3.6854 C.ar      1 <0>        -0.1266
     12 C10        -3.5489   -6.4041   -2.8209 C.ar      1 <0>        -0.1101
     13 C11        -3.6933   -5.6947   -1.6266 C.ar      1 <0>        -0.0998
     14 C12        -4.9357   -6.0340   -0.8354 C.3       1 <0>        -0.0687
     15 C13        -5.1005   -5.1892    0.4158 C.3       1 <0>        -0.0773
     16 C14        -3.9592   -5.4030    1.3779 C.ar      1 <0>        -0.0996
     17 C15        -2.7824   -4.7590    1.0748 C.ar      1 <0>         0.1523
     18 C16        -1.6837   -4.8488    1.9126 C.ar      1 <0>        -0.1184
     19 C17        -1.7825   -5.6251    3.0560 C.ar      1 <0>        -0.1094
     20 C18        -2.9565   -6.2950    3.3488 C.ar      1 <0>        -0.1165
     21 C19        -4.0679   -6.1865    2.5030 C.ar      1 <0>        -0.1028
     22 H1         -6.7163    1.7305    0.0542 H         1 <0>         0.1245
     23 H2         -5.1573    1.7109    0.9129 H         1 <0>         0.1235
     24 H3         -5.1933    1.7984   -0.8646 H         1 <0>         0.1221
     25 H4         -6.3552   -1.6128   -1.3188 H         1 <0>         0.1231
     26 H5         -7.4040   -0.1775   -1.2269 H         1 <0>         0.1246
     27 H6         -5.8810   -0.1096   -2.1457 H         1 <0>         0.1227
     28 H7         -3.8061   -0.2091   -1.0329 H         1 <0>         0.1308
     29 H8         -3.7207   -0.1494    0.7440 H         1 <0>         0.1320
     30 H9         -4.7075   -2.4209    0.8678 H         1 <0>         0.0908
     31 H10        -4.7929   -2.4806   -0.9091 H         1 <0>         0.0915
     32 H11        -2.3174   -2.1901   -1.0161 H         1 <0>         0.0824
     33 H12        -2.2550   -2.1990    0.7627 H         1 <0>         0.0801
     34 H13        -0.9599   -3.7176   -1.9576 H         1 <0>         0.1215
     35 H14        -0.7646   -4.9667   -4.0697 H         1 <0>         0.1276
     36 H15        -2.4229   -6.7145   -4.6025 H         1 <0>         0.1250
     37 H16        -4.2693   -7.1687   -3.0712 H         1 <0>         0.1222
     38 H17        -5.8074   -5.8880   -1.4734 H         1 <0>         0.0793
     39 H18        -4.8898   -7.0837   -0.5452 H         1 <0>         0.0765
     40 H19        -5.1365   -4.1371    0.1334 H         1 <0>         0.0724
     41 H20        -6.0358   -5.4578    0.9068 H         1 <0>         0.0709
     42 H21        -0.7686   -4.3248    1.6795 H         1 <0>         0.1257
     43 H22        -0.9372   -5.7074    3.7231 H         1 <0>         0.1275
     44 H23        -3.0178   -6.9071    4.2365 H         1 <0>         0.1269
     45 H24        -4.9880   -6.7067    2.7249 H         1 <0>         0.1290
     46 H25        -6.1159   -0.4671    0.7589 H         1 <0>         0.4268
@<TRIPOS>BOND
     1    1    2 1
     2    1   22 1
     3    1   23 1
     4    1   24 1
     5    2    3 1
     6    2    4 1
     7    2   46 1
     8    3   25 1
     9    3   26 1
    10    3   27 1
    11    4    5 1
    12    4   28 1
    13    4   29 1
    14    5    6 1
    15    5   30 1
    16    5   31 1
    17    6    7 1
    18    6   32 1
    19    6   33 1
    20    7   17 1
    21    7    8 1
    22    8   13 ar
    23    8    9 ar
    24    9   10 ar
    25    9   34 1
    26   10   11 ar
    27   10   35 1
    28   11   12 ar
    29   11   36 1
    30   12   13 ar
    31   12   37 1
    32   13   14 1
    33   14   15 1
    34   14   38 1
    35   14   39 1
    36   15   16 1
    37   15   40 1
    38   15   41 1
    39   16   21 ar
    40   16   17 ar
    41   17   18 ar
    42   18   19 ar
    43   18   42 1
    44   19   20 ar
    45   19   43 1
    46   20   21 ar
    47   20   44 1
    48   21   45 1
@<TRIPOS>MOLECULE
ZINC01851149
   58    61     0     0     0
SMALL
USER_CHARGES

@<TRIPOS>ATOM
      1 C1         -0.0167    1.3781    0.0096 C.ar      1 <0>        -0.0896
      2 C2          1.1690    2.0873    0.0021 C.ar      1 <0>        -0.1006
      3 C3          2.3816    1.4109   -0.0131 C.ar      1 <0>         0.1668
      4 C4          2.3986    0.0211   -0.0208 C.ar      1 <0>        -0.0379
      5 C5          1.2084   -0.6828   -0.0132 C.ar      1 <0>        -0.0271
      6 C6          0.0021   -0.0041    0.0020 C.ar      1 <0>        -0.0892
      7 Cl1         1.2271   -2.4187   -0.0233 Cl        1 <0>        -0.0322
      8 Cl2         3.9117   -0.8297   -0.0404 Cl        1 <0>        -0.0503
      9 N1          3.5822    2.1260   -0.0212 N.pl3     1 <0>        -0.6733
     10 C7          4.2166    2.5248   -1.2872 C.3       1 <0>         0.1212
     11 C8          5.6874    2.0967   -1.2494 C.3       1 <0>        -0.0255
     12 N2          6.3270    2.6517   -0.0498 N.4       1 <0>        -0.3792
     13 C9          5.7166    2.0749    1.1547 C.3       1 <0>        -0.0318
     14 C10         4.2444    2.5067    1.2361 C.3       1 <0>         0.1223
     15 C11         7.7610    2.3338   -0.0701 C.3       1 <0>        -0.0093
     16 C12         8.4515    3.0158    1.1127 C.3       1 <0>        -0.1453
     17 C13         9.9450    2.6847    1.0915 C.3       1 <0>        -0.1184
     18 C14        10.6355    3.3667    2.2743 C.3       1 <0>         0.0595
     19 O1         12.0305    3.0574    2.2545 O.3       1 <0>        -0.3124
     20 C15        12.7944    3.5890    3.2448 C.ar      1 <0>         0.1559
     21 C16        12.2111    4.3876    4.2189 C.ar      1 <0>        -0.2294
     22 C17        12.9865    4.9295    5.2261 C.ar      1 <0>        -0.0411
     23 C18        14.3441    4.6777    5.2669 C.ar      1 <0>        -0.1551
     24 C19        14.9331    3.8788    4.2952 C.ar      1 <0>         0.2059
     25 C20        14.1552    3.3295    3.2858 C.ar      1 <0>        -0.1852
     26 N3         16.3074    3.6248    4.3397 N.am      1 <0>        -0.6651
     27 C21        17.0003    3.8176    5.4770 C.2       1 <0>         0.5216
     28 O2         18.1945    3.6066    5.4945 O.2       1 <0>        -0.5157
     29 C22        16.3105    4.2925    6.7275 C.3       1 <0>        -0.1402
     30 C23        15.1900    5.2680    6.3653 C.3       1 <0>        -0.0752
     31 H1         -0.9596    1.9044    0.0260 H         1 <0>         0.1477
     32 H2          1.1527    3.1672    0.0077 H         1 <0>         0.1420
     33 H3         -0.9265   -0.5556    0.0083 H         1 <0>         0.1502
     34 H4          3.7134    2.0333   -2.1198 H         1 <0>         0.1171
     35 H5          4.1529    3.6066   -1.4040 H         1 <0>         0.0851
     36 H6          5.7487    1.0088   -1.2236 H         1 <0>         0.1293
     37 H7          6.1971    2.4687   -2.1381 H         1 <0>         0.1401
     38 H8          5.7771    0.9876    1.1077 H         1 <0>         0.1300
     39 H9          6.2479    2.4307    2.0374 H         1 <0>         0.1398
     40 H10         4.1834    3.5868    1.3697 H         1 <0>         0.0853
     41 H11         3.7595    2.0032    2.0724 H         1 <0>         0.1165
     42 H12         7.8950    1.2546    0.0040 H         1 <0>         0.1305
     43 H13         8.1993    2.6912   -1.0020 H         1 <0>         0.1352
     44 H14         8.3175    4.0950    1.0386 H         1 <0>         0.0923
     45 H15         8.0132    2.6584    2.0445 H         1 <0>         0.0907
     46 H16        10.0790    1.6055    1.1656 H         1 <0>         0.0866
     47 H17        10.3833    3.0420    0.1597 H         1 <0>         0.0875
     48 H18        10.5015    4.4459    2.2002 H         1 <0>         0.0675
     49 H19        10.1972    3.0093    3.2062 H         1 <0>         0.0669
     50 H20        11.1499    4.5859    4.1893 H         1 <0>         0.1286
     51 H21        12.5305    5.5511    5.9824 H         1 <0>         0.1354
     52 H22        14.6099    2.7045    2.5314 H         1 <0>         0.1380
     53 H23        16.7645    3.3072    3.5453 H         1 <0>         0.4136
     54 H24        15.8894    3.4371    7.2558 H         1 <0>         0.1060
     55 H25        17.0331    4.7940    7.3713 H         1 <0>         0.1134
     56 H26        15.6229    6.2086    6.0246 H         1 <0>         0.0845
     57 H27        14.5699    5.4506    7.2429 H         1 <0>         0.0936
     58 H28         6.2073    3.6535   -0.0392 H         1 <0>         0.4226
@<TRIPOS>BOND
     1    1    6 ar
     2    1    2 ar
     3    1   31 1
     4    2    3 ar
     5    2   32 1
     6    3    4 ar
     7    3    9 1
     8    4    5 ar
     9    4    8 1
    10    5    6 ar
    11    5    7 1
    12    6   33 1
    13    9   14 1
    14    9   10 1
    15   10   11 1
    16   10   34 1
    17   10   35 1
    18   11   12 1
    19   11   36 1
    20   11   37 1
    21   12   13 1
    22   12   15 1
    23   12   58 1
    24   13   14 1
    25   13   38 1
    26   13   39 1
    27   14   40 1
    28   14   41 1
    29   15   16 1
    30   15   42 1
    31   15   43 1
    32   16   17 1
    33   16   44 1
    34   16   45 1
    35   17   18 1
    36   17   46 1
    37   17   47 1
    38   18   19 1
    39   18   48 1
    40   18   49 1
    41   19   20 1
    42   20   25 ar
    43   20   21 ar
    44   21   22 ar
    45   21   50 1
    46   22   23 ar
    47   22   51 1
    48   23   30 1
    49   23   24 ar
    50   24   25 ar
    51   24   26 1
    52   25   52 1
    53   26   27 am
    54   26   53 1
    55   27   28 2
    56   27   29 1
    57   29   30 1
    58   29   54 1
    59   29   55 1
    60   30   56 1
    61   30   57 1
@<TRIPOS>MOLECULE
ZINC01851149
   57    60     0     0     0
SMALL
USER_CHARGES

@<TRIPOS>ATOM
      1 C1         -0.0167    1.3781    0.0096 C.ar      1 <0>        -0.0962
      2 C2          1.1690    2.0873    0.0021 C.ar      1 <0>        -0.1094
      3 C3          2.3816    1.4109   -0.0131 C.ar      1 <0>         0.1932
      4 C4          2.3986    0.0211   -0.0208 C.ar      1 <0>        -0.0428
      5 C5          1.2084   -0.6828   -0.0132 C.ar      1 <0>        -0.0286
      6 C6          0.0021   -0.0041    0.0020 C.ar      1 <0>        -0.1045
      7 Cl1         1.2271   -2.4187   -0.0233 Cl        1 <0>        -0.0488
      8 Cl2         3.9117   -0.8297   -0.0404 Cl        1 <0>        -0.0433
      9 N1          3.5822    2.1260   -0.0212 N.pl3     1 <0>        -0.6753
     10 C7          4.2154    2.5239   -1.2877 C.3       1 <0>         0.1522
     11 C8          5.6814    2.0786   -1.2601 C.3       1 <0>         0.0390
     12 N2          6.3271    2.6054   -0.0504 N.3       1 <0>        -0.5335
     13 C9          5.7110    2.0562    1.1648 C.3       1 <0>         0.0352
     14 C10         4.2431    2.5059    1.2366 C.3       1 <0>         0.1520
     15 C11         7.7731    2.3471   -0.0705 C.3       1 <0>         0.0570
     16 C12         8.4448    3.1181    1.0676 C.3       1 <0>        -0.1122
     17 C13         9.9508    2.8491    1.0467 C.3       1 <0>        -0.1185
     18 C14        10.6225    3.6201    2.1847 C.3       1 <0>         0.0609
     19 O1         12.0291    3.3688    2.1652 O.3       1 <0>        -0.3131
     20 C15        12.7788    3.9828    3.1179 C.ar      1 <0>         0.1632
     21 C16        12.1712    4.8060    4.0560 C.ar      1 <0>        -0.2281
     22 C17        12.9321    5.4316    5.0250 C.ar      1 <0>        -0.0412
     23 C18        14.2995    5.2392    5.0634 C.ar      1 <0>        -0.1625
     24 C19        14.9129    4.4161    4.1277 C.ar      1 <0>         0.2001
     25 C20        14.1497    3.7829    3.1569 C.ar      1 <0>        -0.1880
     26 N3         16.2971    4.2225    4.1697 N.am      1 <0>        -0.6633
     27 C21        16.9915    4.5031    5.2876 C.2       1 <0>         0.5225
     28 O2         18.1937    4.3433    5.3024 O.2       1 <0>        -0.5237
     29 C22        16.2937    5.0132    6.5196 C.3       1 <0>        -0.1395
     30 C23        15.1296    5.9209    6.1201 C.3       1 <0>        -0.0723
     31 H1         -0.9596    1.9044    0.0260 H         1 <0>         0.1404
     32 H2          1.1527    3.1672    0.0077 H         1 <0>         0.1387
     33 H3         -0.9265   -0.5556    0.0083 H         1 <0>         0.1426
     34 H4          3.7022    2.0431   -2.1205 H         1 <0>         0.0715
     35 H5          4.1638    3.6071   -1.3984 H         1 <0>         0.0629
     36 H6          5.7306    0.9897   -1.2538 H         1 <0>         0.0403
     37 H7          6.1944    2.4613   -2.1423 H         1 <0>         0.0804
     38 H8          5.7599    0.9676    1.1373 H         1 <0>         0.0406
     39 H9          6.2457    2.4226    2.0412 H         1 <0>         0.0819
     40 H10         4.1941    3.5874    1.3639 H         1 <0>         0.0629
     41 H11         3.7483    2.0131    2.0736 H         1 <0>         0.0709
     42 H12         7.9533    1.2798    0.0578 H         1 <0>         0.0339
     43 H13         8.1873    2.6734   -1.0245 H         1 <0>         0.0769
     44 H14         8.2646    4.1855    0.9393 H         1 <0>         0.0762
     45 H15         8.0306    2.7918    2.0216 H         1 <0>         0.0660
     46 H16        10.1310    1.7817    1.1750 H         1 <0>         0.0732
     47 H17        10.3650    3.1754    0.0927 H         1 <0>         0.0761
     48 H18        10.4423    4.6874    2.0565 H         1 <0>         0.0659
     49 H19        10.2083    3.2938    3.1387 H         1 <0>         0.0641
     50 H20        11.1023    4.9580    4.0282 H         1 <0>         0.1320
     51 H21        12.4571    6.0722    5.7533 H         1 <0>         0.1337
     52 H22        14.6236    3.1389    2.4308 H         1 <0>         0.1367
     53 H23        16.7599    3.8832    3.3877 H         1 <0>         0.4126
     54 H24        15.9140    4.1697    7.0961 H         1 <0>         0.1050
     55 H25        17.0002    5.5774    7.1284 H         1 <0>         0.1106
     56 H26        15.5192    6.8597    5.7264 H         1 <0>         0.0818
     57 H27        14.5104    6.1229    6.9941 H         1 <0>         0.0917
@<TRIPOS>BOND
     1    1    6 ar
     2    1    2 ar
     3    1   31 1
     4    2    3 ar
     5    2   32 1
     6    3    4 ar
     7    3    9 1
     8    4    5 ar
     9    4    8 1
    10    5    6 ar
    11    5    7 1
    12    6   33 1
    13    9   14 1
    14    9   10 1
    15   10   11 1
    16   10   34 1
    17   10   35 1
    18   11   12 1
    19   11   36 1
    20   11   37 1
    21   12   13 1
    22   12   15 1
    23   13   14 1
    24   13   38 1
    25   13   39 1
    26   14   40 1
    27   14   41 1
    28   15   16 1
    29   15   42 1
    30   15   43 1
    31   16   17 1
    32   16   44 1
    33   16   45 1
    34   17   18 1
    35   17   46 1
    36   17   47 1
    37   18   19 1
    38   18   48 1
    39   18   49 1
    40   19   20 1
    41   20   25 ar
    42   20   21 ar
    43   21   22 ar
    44   21   50 1
    45   22   23 ar
    46   22   51 1
    47   23   30 1
    48   23   24 ar
    49   24   25 ar
    50   24   26 1
    51   25   52 1
    52   26   27 am
    53   26   53 1
    54   27   28 2
    55   27   29 1
    56   29   30 1
    57   29   54 1
    58   29   55 1
    59   30   56 1
    60   30   57 1
@<TRIPOS>MOLECULE
ZINC20477318
   50    52     0     0     0
SMALL
USER_CHARGES
1-benzyl-N-cinnamyl-piperidin-4-amine
@<TRIPOS>ATOM
      1 C1          5.3425    4.9379    0.5431 C.ar      1 <0>        -0.0850
      2 C2          4.9391    4.5967   -0.7343 C.ar      1 <0>        -0.1130
      3 C3          3.6562    4.1307   -0.9527 C.ar      1 <0>        -0.0944
      4 C4          2.7764    4.0063    0.1063 C.ar      1 <0>        -0.1582
      5 C5          3.1779    4.3528    1.3828 C.ar      1 <0>        -0.0976
      6 C6          4.4627    4.8135    1.6021 C.ar      1 <0>        -0.1144
      7 C7          1.3776    3.4986   -0.1318 C.3       1 <0>         0.0464
      8 N1          1.3585    2.0357    0.0000 N.4       1 <0>        -0.3960
      9 C8         -0.0187    1.5261    0.0104 C.3       1 <0>         0.0005
     10 C9          0.0021   -0.0041    0.0020 C.3       1 <0>        -0.1473
     11 C10         0.7612   -0.5061    1.2334 C.3       1 <0>         0.0646
     12 C11         2.1767    0.0777    1.2237 C.3       1 <0>        -0.1340
     13 C12         2.0929    1.6055    1.1967 C.3       1 <0>        -0.0080
     14 N2          0.8349   -1.9729    1.2003 N.3       1 <0>        -0.6651
     15 C13         0.9947   -2.5226    2.5532 C.3       1 <0>         0.0809
     16 C14         1.0664   -4.0261    2.4793 C.2       1 <0>        -0.1598
     17 C15         2.0976   -4.6674    3.0109 C.2       1 <0>        -0.0929
     18 C16         2.1679   -6.1421    2.9384 C.ar      1 <0>        -0.0671
     19 C17         1.1477   -6.8624    2.3161 C.ar      1 <0>        -0.1124
     20 C18         1.2222   -8.2384    2.2467 C.ar      1 <0>        -0.1187
     21 C19         2.2995   -8.9047    2.8030 C.ar      1 <0>        -0.1140
     22 C20         3.3117   -8.1968    3.4260 C.ar      1 <0>        -0.1182
     23 C21         3.2520   -6.8201    3.4970 C.ar      1 <0>        -0.1068
     24 H1          6.3451    5.3013    0.7138 H         1 <0>         0.1356
     25 H2          5.6265    4.6939   -1.5617 H         1 <0>         0.1360
     26 H3          3.3410    3.8641   -1.9507 H         1 <0>         0.1314
     27 H4          2.4892    4.2598    2.2095 H         1 <0>         0.1289
     28 H5          4.7779    5.0797    2.6001 H         1 <0>         0.1355
     29 H6          0.6955    3.9424    0.6084 H         1 <0>         0.1318
     30 H7          1.0529    3.7798   -1.1445 H         1 <0>         0.1380
     31 H8         -0.5339    1.8804    0.9154 H         1 <0>         0.1254
     32 H9         -0.5511    1.8900   -0.8808 H         1 <0>         0.1345
     33 H10        -1.0296   -0.3849    0.0246 H         1 <0>         0.1118
     34 H11         0.5040   -0.3590   -0.9102 H         1 <0>         0.1000
     35 H12         0.2319   -0.2299    2.1572 H         1 <0>         0.0606
     36 H13         2.7130   -0.2460    2.1279 H         1 <0>         0.1070
     37 H14         2.7138   -0.2776    0.3319 H         1 <0>         0.0966
     38 H15         3.1085    2.0276    1.1751 H         1 <0>         0.1358
     39 H16         1.5678    1.9594    2.0962 H         1 <0>         0.1223
     40 H17        -0.0899   -2.3767    0.7625 H         1 <0>         0.3519
     41 H18         1.9211   -2.1329    3.0002 H         1 <0>         0.0780
     42 H19         0.1356   -2.2265    3.1731 H         1 <0>         0.0467
     43 H20         0.2630   -4.5914    1.9842 H         1 <0>         0.1194
     44 H21         2.9010   -4.1021    3.5060 H         1 <0>         0.1196
     45 H22         0.3037   -6.3438    1.8861 H         1 <0>         0.1225
     46 H23         0.4354   -8.7969    1.7615 H         1 <0>         0.1251
     47 H24         2.3507   -9.9822    2.7503 H         1 <0>         0.1252
     48 H25         4.1502   -8.7228    3.8579 H         1 <0>         0.1260
     49 H26         4.0428   -6.2686    3.9837 H         1 <0>         0.1238
     50 H27         1.8672    1.6090   -0.8770 H         1 <0>         0.4410
@<TRIPOS>BOND
     1    1    6 ar
     2    1    2 ar
     3    1   24 1
     4    2    3 ar
     5    2   25 1
     6    3    4 ar
     7    3   26 1
     8    4    5 ar
     9    4    7 1
    10    5    6 ar
    11    5   27 1
    12    6   28 1
    13    7    8 1
    14    7   29 1
    15    7   30 1
    16    8   13 1
    17    8    9 1
    18    8   50 1
    19    9   10 1
    20    9   31 1
    21    9   32 1
    22   10   11 1
    23   10   33 1
    24   10   34 1
    25   11   12 1
    26   11   14 1
    27   11   35 1
    28   12   13 1
    29   12   36 1
    30   12   37 1
    31   13   38 1
    32   13   39 1
    33   14   15 1
    34   14   40 1
    35   15   16 1
    36   15   41 1
    37   15   42 1
    38   16   17 2
    39   16   43 1
    40   17   18 1
    41   17   44 1
    42   18   23 ar
    43   18   19 ar
    44   19   20 ar
    45   19   45 1
    46   20   21 ar
    47   20   46 1
    48   21   22 ar
    49   21   47 1
    50   22   23 ar
    51   22   48 1
    52   23   49 1
@<TRIPOS>MOLECULE
ZINC22055590
   40    43     0     0     0
SMALL
USER_CHARGES
2-methyl-4-piperazin-1-yl-10H-thieno[2,3-b][1,5]benzodiazepine
@<TRIPOS>ATOM
      1 C1          2.9000    6.4909    5.1733 C.3       1 <0>        -0.0794
      2 C2          2.5815    5.9866    3.7894 C.2       1 <0>        -0.1487
      3 C3          1.6183    6.4056    2.9486 C.2       1 <0>        -0.1359
      4 C4          1.5178    5.7559    1.6564 C.2       1 <0>        -0.2219
      5 C5          2.4395    4.7328    1.4394 C.2       1 <0>         0.1326
      6 S1          3.3891    4.6898    2.8707 S.3       1 <0>         0.1175
      7 N1          2.5084    3.9288    0.3158 N.pl3     1 <0>        -0.6794
      8 C6          1.3322    3.2144   -0.0160 C.ar      1 <0>         0.1140
      9 C7          1.3818    1.8365   -0.0931 C.ar      1 <0>        -0.1132
     10 C8          0.2296    1.1109   -0.3542 C.ar      1 <0>        -0.1125
     11 C9         -0.9694    1.7704   -0.5428 C.ar      1 <0>        -0.1069
     12 C10        -1.0287    3.1477   -0.4744 C.ar      1 <0>        -0.1040
     13 C11         0.1275    3.8975   -0.2233 C.ar      1 <0>         0.1419
     14 N2          0.0194    5.2532   -0.2098 N.2       1 <0>        -0.5947
     15 C12         0.5397    6.1123    0.6013 C.2       1 <0>         0.5251
     16 N3          0.1661    7.4315    0.4793 N.pl3     1 <0>        -0.6143
     17 C13        -0.9003    7.8310   -0.4516 C.3       1 <0>         0.0945
     18 C14        -0.3858    8.9721   -1.3278 C.3       1 <0>        -0.0147
     19 N4          0.1296   10.0500   -0.4732 N.4       1 <0>        -0.5347
     20 C15         1.2772    9.5959    0.3235 C.3       1 <0>        -0.0188
     21 C16         0.8267    8.4796    1.2719 C.3       1 <0>         0.0827
     22 H1          2.2045    7.3011    5.4374 H         1 <0>         0.0840
     23 H2          3.9319    6.8713    5.1964 H         1 <0>         0.0821
     24 H3          2.7962    5.6683    5.8962 H         1 <0>         0.0829
     25 H4          0.9422    7.2004    3.2271 H         1 <0>         0.1391
     26 H5          3.4417    3.8721   -0.2636 H         1 <0>         0.4455
     27 H6          2.3208    1.3226    0.0501 H         1 <0>         0.1291
     28 H7          0.2702    0.0334   -0.4145 H         1 <0>         0.1328
     29 H8         -1.8675    1.2043   -0.7411 H         1 <0>         0.1317
     30 H9         -1.9729    3.6514   -0.6202 H         1 <0>         0.1285
     31 H10        -1.1776    6.9729   -1.0815 H         1 <0>         0.1410
     32 H11        -1.7789    8.1660    0.1193 H         1 <0>         0.0882
     33 H12         0.4208    8.6008   -1.9770 H         1 <0>         0.1293
     34 H13        -1.2082    9.3572   -1.9486 H         1 <0>         0.1436
     35 H14         0.4513   10.8938   -1.1013 H         1 <0>         0.4556
     36 H15         2.0613    9.2147   -0.3472 H         1 <0>         0.1293
     37 H16         1.6735   10.4385    0.9091 H         1 <0>         0.1449
     38 H17         0.1191    8.8797    2.0130 H         1 <0>         0.0936
     39 H18         1.6982    8.0530    1.7901 H         1 <0>         0.1398
     40 H19        -0.6625   10.3846    0.2128 H         1 <0>         0.4497
@<TRIPOS>BOND
     1    1    2 1
     2    1   22 1
     3    1   23 1
     4    1   24 1
     5    2    6 1
     6    2    3 2
     7    3    4 1
     8    3   25 1
     9    4   15 1
    10    4    5 2
    11    5    6 1
    12    5    7 1
    13    7    8 1
    14    7   26 1
    15    8   13 ar
    16    8    9 ar
    17    9   10 ar
    18    9   27 1
    19   10   11 ar
    20   10   28 1
    21   11   12 ar
    22   11   29 1
    23   12   13 ar
    24   12   30 1
    25   13   14 1
    26   14   15 2
    27   15   16 1
    28   16   21 1
    29   16   17 1
    30   17   18 1
    31   17   31 1
    32   17   32 1
    33   18   19 1
    34   18   33 1
    35   18   34 1
    36   19   20 1
    37   19   35 1
    38   19   40 1
    39   20   21 1
    40   20   36 1
    41   20   37 1
    42   21   38 1
    43   21   39 1
@<TRIPOS>MOLECULE
ZINC22055590
   39    42     0     0     0
SMALL
USER_CHARGES
2-methyl-4-piperazin-1-yl-10H-thieno[2,3-b][1,5]benzodiazepine
@<TRIPOS>ATOM
      1 C1          2.9000    6.4909    5.1733 C.3       1 <0>        -0.0731
      2 C2          2.5815    5.9866    3.7894 C.2       1 <0>        -0.1595
      3 C3          1.6183    6.4056    2.9486 C.2       1 <0>        -0.1197
      4 C4          1.5178    5.7559    1.6564 C.2       1 <0>        -0.2090
      5 C5          2.4395    4.7328    1.4394 C.2       1 <0>         0.1289
      6 S1          3.3891    4.6898    2.8707 S.3       1 <0>         0.0909
      7 N1          2.5084    3.9288    0.3158 N.pl3     1 <0>        -0.6777
      8 C6          1.3322    3.2144   -0.0160 C.ar      1 <0>         0.1017
      9 C7          1.3818    1.8365   -0.0931 C.ar      1 <0>        -0.1111
     10 C8          0.2296    1.1109   -0.3542 C.ar      1 <0>        -0.1312
     11 C9         -0.9694    1.7704   -0.5428 C.ar      1 <0>        -0.1060
     12 C10        -1.0287    3.1477   -0.4744 C.ar      1 <0>        -0.1167
     13 C11         0.1275    3.8975   -0.2233 C.ar      1 <0>         0.1681
     14 N2          0.0194    5.2532   -0.2098 N.2       1 <0>        -0.6216
     15 C12         0.5397    6.1123    0.6013 C.2       1 <0>         0.5340
     16 N3          0.1661    7.4315    0.4793 N.pl3     1 <0>        -0.5933
     17 C13        -0.9003    7.8310   -0.4516 C.3       1 <0>         0.1226
     18 C14        -0.3858    8.9721   -1.3278 C.3       1 <0>         0.0334
     19 N4          0.1296   10.0500   -0.4732 N.3       1 <0>        -0.6705
     20 C15         1.2772    9.5959    0.3235 C.3       1 <0>         0.0314
     21 C16         0.8267    8.4796    1.2719 C.3       1 <0>         0.1111
     22 H1          2.2045    7.3011    5.4374 H         1 <0>         0.0832
     23 H2          3.9319    6.8713    5.1964 H         1 <0>         0.0780
     24 H3          2.7962    5.6683    5.8962 H         1 <0>         0.0776
     25 H4          0.9422    7.2004    3.2271 H         1 <0>         0.1418
     26 H5          3.4417    3.8721   -0.2636 H         1 <0>         0.4407
     27 H6          2.3208    1.3226    0.0501 H         1 <0>         0.1233
     28 H7          0.2702    0.0334   -0.4145 H         1 <0>         0.1260
     29 H8         -1.8675    1.2043   -0.7411 H         1 <0>         0.1256
     30 H9         -1.9729    3.6514   -0.6202 H         1 <0>         0.1265
     31 H10        -1.1776    6.9729   -1.0815 H         1 <0>         0.1044
     32 H11        -1.7789    8.1660    0.1193 H         1 <0>         0.0695
     33 H12         0.4208    8.6008   -1.9770 H         1 <0>         0.0349
     34 H13        -1.2082    9.3572   -1.9486 H         1 <0>         0.0894
     35 H14         2.0613    9.2147   -0.3472 H         1 <0>         0.0352
     36 H15         1.6735   10.4385    0.9091 H         1 <0>         0.0904
     37 H16         0.1191    8.8797    2.0130 H         1 <0>         0.0755
     38 H17         1.6982    8.0530    1.7901 H         1 <0>         0.0999
     39 H18         0.4513   10.8938   -1.1013 H         1 <0>         0.3455
@<TRIPOS>BOND
     1    1    2 1
     2    1   22 1
     3    1   23 1
     4    1   24 1
     5    2    6 1
     6    2    3 2
     7    3    4 1
     8    3   25 1
     9    4   15 1
    10    4    5 2
    11    5    6 1
    12    5    7 1
    13    7    8 1
    14    7   26 1
    15    8   13 ar
    16    8    9 ar
    17    9   10 ar
    18    9   27 1
    19   10   11 ar
    20   10   28 1
    21   11   12 ar
    22   11   29 1
    23   12   13 ar
    24   12   30 1
    25   13   14 1
    26   14   15 2
    27   15   16 1
    28   16   21 1
    29   16   17 1
    30   17   18 1
    31   17   31 1
    32   17   32 1
    33   18   19 1
    34   18   33 1
    35   18   34 1
    36   19   20 1
    37   19   39 1
    38   20   21 1
    39   20   35 1
    40   20   36 1
    41   21   37 1
    42   21   38 1
@<TRIPOS>MOLECULE
ZINC20477323
   48    50     0     0     0
SMALL
USER_CHARGES
1-benzyl-N-(3-phenylprop-2-ynyl)piperidin-4-amine
@<TRIPOS>ATOM
      1 C1         -2.5673   -9.6573    5.3445 C.ar      1 <0>        -0.0847
      2 C2         -2.6865   -9.6291    3.9676 C.ar      1 <0>        -0.1138
      3 C3         -1.6068   -9.2588    3.1878 C.ar      1 <0>        -0.0982
      4 C4         -0.4078   -8.9172    3.7850 C.ar      1 <0>        -0.1599
      5 C5         -0.2869   -8.9509    5.1616 C.ar      1 <0>        -0.0944
      6 C6         -1.3683   -9.3157    5.9417 C.ar      1 <0>        -0.1128
      7 C7          0.7694   -8.5140    2.9349 C.3       1 <0>         0.0467
      8 N1          0.7441   -7.0608    2.7211 N.4       1 <0>        -0.3967
      9 C8          1.9930   -6.5981    2.1025 C.3       1 <0>        -0.0032
     10 C9          1.9914   -5.0695    2.0285 C.3       1 <0>        -0.1332
     11 C10         0.7883   -4.6046    1.2033 C.3       1 <0>         0.0667
     12 C11        -0.4963   -5.1403    1.8417 C.3       1 <0>        -0.1775
     13 C12        -0.4225   -6.6668    1.9211 C.3       1 <0>        -0.0040
     14 N2          0.7484   -3.1364    1.1776 N.3       1 <0>        -0.6619
     15 C13         0.0380   -2.6498   -0.0125 C.3       1 <0>         0.1691
     16 C14         0.0180   -1.1779   -0.0044 C.1       1 <0>        -0.1835
     17 C15         0.0021   -0.0041    0.0020 C.1       1 <0>        -0.0980
     18 C16        -0.0173    1.4278    0.0099 C.ar      1 <0>        -0.0025
     19 C17        -1.2334    2.1120    0.0193 C.ar      1 <0>        -0.0910
     20 C18        -1.2452    3.4916    0.0322 C.ar      1 <0>        -0.1186
     21 C19        -0.0549    4.1966    0.0246 C.ar      1 <0>        -0.1029
     22 C20         1.1541    3.5243    0.0095 C.ar      1 <0>        -0.1191
     23 C21         1.1797    2.1448    0.0023 C.ar      1 <0>        -0.0932
     24 H1         -3.4111   -9.9459    5.9538 H         1 <0>         0.1357
     25 H2         -3.6233   -9.8960    3.5011 H         1 <0>         0.1355
     26 H3         -1.6999   -9.2368    2.1121 H         1 <0>         0.1296
     27 H4          0.6511   -8.6883    5.6280 H         1 <0>         0.1317
     28 H5         -1.2753   -9.3374    7.0174 H         1 <0>         0.1362
     29 H6          1.7030   -8.7934    3.4452 H         1 <0>         0.1381
     30 H7          0.7140   -9.0285    1.9642 H         1 <0>         0.1326
     31 H8          2.8482   -6.9346    2.7070 H         1 <0>         0.1344
     32 H9          2.0754   -7.0138    1.0874 H         1 <0>         0.1272
     33 H10         1.9242   -4.6533    3.0445 H         1 <0>         0.0910
     34 H11         2.9207   -4.7245    1.5516 H         1 <0>         0.1197
     35 H12         0.8763   -4.9437    0.1606 H         1 <0>         0.0971
     36 H13        -0.6041   -4.7235    2.8540 H         1 <0>         0.0931
     37 H14        -1.3610   -4.8446    1.2294 H         1 <0>         0.1099
     38 H15        -0.3287   -7.0821    0.9068 H         1 <0>         0.1264
     39 H16        -1.3380   -7.0536    2.3925 H         1 <0>         0.1317
     40 H17         0.2282   -2.7680    2.0741 H         1 <0>         0.3522
     41 H18         0.5530   -3.0045   -0.9175 H         1 <0>         0.1004
     42 H19        -0.9940   -3.0306   -0.0048 H         1 <0>         0.0606
     43 H20        -2.1634    1.5628    0.0207 H         1 <0>         0.1268
     44 H21        -2.1857    4.0223    0.0440 H         1 <0>         0.1311
     45 H22        -0.0696    5.2765    0.0302 H         1 <0>         0.1296
     46 H23         2.0799    4.0804    0.0036 H         1 <0>         0.1307
     47 H24         2.1241    1.6211   -0.0095 H         1 <0>         0.1254
     48 H25         0.6563   -6.5743    3.7038 H         1 <0>         0.4397
@<TRIPOS>BOND
     1    1    6 ar
     2    1    2 ar
     3    1   24 1
     4    2    3 ar
     5    2   25 1
     6    3    4 ar
     7    3   26 1
     8    4    5 ar
     9    4    7 1
    10    5    6 ar
    11    5   27 1
    12    6   28 1
    13    7    8 1
    14    7   29 1
    15    7   30 1
    16    8   13 1
    17    8    9 1
    18    8   48 1
    19    9   10 1
    20    9   31 1
    21    9   32 1
    22   10   11 1
    23   10   33 1
    24   10   34 1
    25   11   12 1
    26   11   14 1
    27   11   35 1
    28   12   13 1
    29   12   36 1
    30   12   37 1
    31   13   38 1
    32   13   39 1
    33   14   15 1
    34   14   40 1
    35   15   16 1
    36   15   41 1
    37   15   42 1
    38   16   17 3
    39   17   18 1
    40   18   23 ar
    41   18   19 ar
    42   19   20 ar
    43   19   43 1
    44   20   21 ar
    45   20   44 1
    46   21   22 ar
    47   21   45 1
    48   22   23 ar
    49   22   46 1
    50   23   47 1
@<TRIPOS>MOLECULE
ZINC10450796
   49    51     0     0     0
SMALL
USER_CHARGES
N-(1-benzyl-4-piperidyl)-3-phenyl-prop-2-enamide
@<TRIPOS>ATOM
      1 C1         -4.6524   -4.8307    5.0881 C.ar      1 <0>        -0.0837
      2 C2         -5.2476   -3.7292    4.5021 C.ar      1 <0>        -0.1134
      3 C3         -5.0134   -3.4439    3.1700 C.ar      1 <0>        -0.0967
      4 C4         -4.1844   -4.2603    2.4236 C.ar      1 <0>        -0.1638
      5 C5         -3.5937   -5.3651    3.0081 C.ar      1 <0>        -0.0944
      6 C6         -3.8234   -5.6471    4.3417 C.ar      1 <0>        -0.1135
      7 C7         -3.9295   -3.9496    0.9712 C.3       1 <0>         0.0490
      8 C8         -2.3354   -2.9364   -0.5430 C.3       1 <0>         0.0035
      9 C9         -1.0327   -2.1360   -0.6095 C.3       1 <0>        -0.1568
     10 C10        -1.2565   -0.7538    0.0100 C.3       1 <0>         0.1369
     11 C11        -1.7427   -0.9221    1.4522 C.3       1 <0>        -0.1599
     12 C12        -3.0248   -1.7577    1.4589 C.3       1 <0>        -0.0026
     13 N1          0.0021   -0.0041    0.0020 N.am      1 <0>        -0.7288
     14 C13        -0.0162    1.3436    0.0094 C.2       1 <0>         0.5579
     15 O1         -1.0783    1.9376    0.0177 O.2       1 <0>        -0.5377
     16 C14         1.2418    2.0929    0.0014 C.2       1 <0>        -0.2407
     17 C15         1.2235    3.4408    0.0089 C.2       1 <0>         0.0116
     18 C16         2.4882    4.1941    0.0008 C.ar      1 <0>        -0.0939
     19 C17         3.7106    3.5151   -0.0087 C.ar      1 <0>        -0.0968
     20 C18         4.8910    4.2278   -0.0220 C.ar      1 <0>        -0.1237
     21 C19         4.8680    5.6116   -0.0139 C.ar      1 <0>        -0.0983
     22 C20         3.6623    6.2909    0.0008 C.ar      1 <0>        -0.1218
     23 C21         2.4734    5.5924    0.0085 C.ar      1 <0>        -0.0884
     24 H1         -4.8347   -5.0531    6.1291 H         1 <0>         0.1359
     25 H2         -5.8953   -3.0913    5.0852 H         1 <0>         0.1363
     26 H3         -5.4784   -2.5833    2.7122 H         1 <0>         0.1314
     27 H4         -2.9495   -6.0054    2.4238 H         1 <0>         0.1310
     28 H5         -3.3581   -6.5075    4.7996 H         1 <0>         0.1361
     29 H6         -4.8012   -3.4505    0.5480 H         1 <0>         0.1375
     30 H7         -3.7424   -4.8763    0.4288 H         1 <0>         0.1360
     31 H8         -3.1097   -2.4177   -1.1082 H         1 <0>         0.1349
     32 H9         -2.1756   -3.9264   -0.9704 H         1 <0>         0.1350
     33 H10        -0.7275   -2.0235   -1.6498 H         1 <0>         0.1200
     34 H11        -0.2543   -2.6612   -0.0560 H         1 <0>         0.0941
     35 H12        -2.0064   -0.2129   -0.5674 H         1 <0>         0.1054
     36 H13        -0.9755   -1.4282    2.0381 H         1 <0>         0.0893
     37 H14        -1.9447    0.0577    1.8848 H         1 <0>         0.1163
     38 H15        -3.7958   -1.2444    0.8843 H         1 <0>         0.1333
     39 H16        -3.3657   -1.8915    2.4855 H         1 <0>         0.1321
     40 H17         0.8486   -0.4776   -0.0086 H         1 <0>         0.4072
     41 H18         2.1843    1.5657   -0.0104 H         1 <0>         0.1318
     42 H19         0.2810    3.9680    0.0207 H         1 <0>         0.1371
     43 H20         3.7301    2.4353   -0.0098 H         1 <0>         0.1260
     44 H21         5.8358    3.7049   -0.0339 H         1 <0>         0.1286
     45 H22         5.7959    6.1643   -0.0195 H         1 <0>         0.1286
     46 H23         3.6525    7.3708    0.0067 H         1 <0>         0.1304
     47 H24         1.5333    6.1238    0.0200 H         1 <0>         0.1299
     48 N2         -2.7364   -3.0837    0.8724 N.4       1 <0>        -0.3940
     49 H25        -1.9655   -3.5177    1.3935 H         1 <0>         0.4259
@<TRIPOS>BOND
     1    1    6 ar
     2    1    2 ar
     3    1   24 1
     4    2    3 ar
     5    2   25 1
     6    3    4 ar
     7    3   26 1
     8    4    5 ar
     9    4    7 1
    10    5    6 ar
    11    5   27 1
    12    6   28 1
    13    7   29 1
    14    7   30 1
    15    7   48 1
    16    8    9 1
    17    8   31 1
    18    8   32 1
    19    8   48 1
    20    9   10 1
    21    9   33 1
    22    9   34 1
    23   10   11 1
    24   10   13 1
    25   10   35 1
    26   11   12 1
    27   11   36 1
    28   11   37 1
    29   12   38 1
    30   12   39 1
    31   12   48 1
    32   13   14 am
    33   13   40 1
    34   14   15 2
    35   14   16 1
    36   16   17 2
    37   16   41 1
    38   17   18 1
    39   17   42 1
    40   18   23 ar
    41   18   19 ar
    42   19   20 ar
    43   19   43 1
    44   20   21 ar
    45   20   44 1
    46   21   22 ar
    47   21   45 1
    48   22   23 ar
    49   22   46 1
    50   23   47 1
    51   48   49 1
@<TRIPOS>MOLECULE
ZINC56898757
   49    52     0     0     0
SMALL
USER_CHARGES

@<TRIPOS>ATOM
      1 C1          3.9411   -4.5592   -1.0458 C.ar      1 <0>        -0.1385
      2 C2          4.9315   -4.2788   -0.1260 C.ar      1 <0>        -0.0470
      3 C3          4.7246   -3.3019    0.8440 C.ar      1 <0>        -0.0753
      4 C4          5.5436   -2.7656    1.9471 C.2       1 <0>        -0.1272
      5 C5          4.7881   -1.8102    2.5581 C.2       1 <0>         0.1395
      6 N1          3.5852   -1.7102    1.9349 N.pl3     1 <0>        -0.5677
      7 H1          2.8787   -1.0970    2.1912 H         1 <0>         0.4303
      8 C6          3.5101   -2.5993    0.8905 C.ar      1 <0>         0.1385
      9 C7          2.5106   -2.8943   -0.0513 C.ar      1 <0>        -0.1358
     10 C8          2.7395   -3.8762   -1.0135 C.ar      1 <0>        -0.0611
     11 C9          1.2261   -2.1693   -0.0219 C.2       1 <0>         0.5637
     12 O1          1.2137   -0.9584    0.0875 O.2       1 <0>        -0.5387
     13 N2          0.0662   -2.8493   -0.1162 N.am      1 <0>        -0.6066
     14 C10        -1.2184   -2.1403   -0.2175 C.3       1 <0>         0.1159
     15 C11        -2.1714   -2.7060    0.8409 C.3       1 <0>         0.0423
     16 N3         -2.2537   -4.1650    0.6913 N.3       1 <0>        -0.5373
     17 C12        -0.9514   -4.7999    0.9341 C.3       1 <0>         0.0360
     18 C13         0.0521   -4.3200   -0.1266 C.3       1 <0>         0.1048
     19 C14        -3.2859   -4.7272    1.5725 C.3       1 <0>         0.0610
     20 C15        -3.5166   -6.1968    1.2149 C.3       1 <0>        -0.0763
     21 C16        -4.5755   -6.7735    2.1189 C.ar      1 <0>        -0.0944
     22 C17        -4.2158   -7.3562    3.3198 C.ar      1 <0>        -0.0875
     23 C18        -5.1860   -7.8850    4.1498 C.ar      1 <0>        -0.1517
     24 C19        -6.5187   -7.8310    3.7783 C.ar      1 <0>         0.0952
     25 C20        -6.8778   -7.2471    2.5752 C.ar      1 <0>        -0.1512
     26 C21        -5.9063   -6.7143    1.7493 C.ar      1 <0>        -0.0849
     27 F1         -7.4680   -8.3480    4.5887 F         1 <0>        -0.1395
     28 C22         6.8699   -3.1694    2.3057 C.1       1 <0>         0.2859
     29 N4          7.9220   -3.4898    2.5901 N.1       1 <0>        -0.4253
     30 H2          4.1079   -5.3148   -1.7992 H         1 <0>         0.1372
     31 H3          5.8669   -4.8177   -0.1586 H         1 <0>         0.1313
     32 H4          5.0984   -1.2220    3.4090 H         1 <0>         0.1909
     33 H5          1.9729   -4.1052   -1.7389 H         1 <0>         0.1367
     34 H6         -1.0642   -1.0760   -0.0399 H         1 <0>         0.0981
     35 H7         -1.6426   -2.2911   -1.2102 H         1 <0>         0.0801
     36 H8         -1.7965   -2.4629    1.8351 H         1 <0>         0.0393
     37 H9         -3.1618   -2.2704    0.7086 H         1 <0>         0.0907
     38 H10        -0.5935   -4.5276    1.9270 H         1 <0>         0.0398
     39 H11        -1.0570   -5.8828    0.8694 H         1 <0>         0.0935
     40 H12        -0.2523   -4.6763   -1.1107 H         1 <0>         0.0828
     41 H13         1.0466   -4.6974    0.1111 H         1 <0>         0.0976
     42 H14        -2.9583   -4.6527    2.6094 H         1 <0>         0.0373
     43 H15        -4.2150   -4.1718    1.4442 H         1 <0>         0.0799
     44 H16        -3.8443   -6.2713    0.1779 H         1 <0>         0.0857
     45 H17        -2.5876   -6.7522    1.3431 H         1 <0>         0.0753
     46 H18        -3.1762   -7.3986    3.6092 H         1 <0>         0.1307
     47 H19        -4.9048   -8.3405    5.0878 H         1 <0>         0.1355
     48 H20        -7.9170   -7.2047    2.2842 H         1 <0>         0.1362
     49 H21        -6.1866   -6.2548    0.8129 H         1 <0>         0.1341
@<TRIPOS>BOND
     1    1   10 ar
     2    1    2 ar
     3    1   30 1
     4    2    3 ar
     5    2   31 1
     6    3    8 ar
     7    3    4 1
     8    4    5 2
     9    4   28 1
    10    5    6 1
    11    5   32 1
    12    6    7 1
    13    6    8 1
    14    8    9 ar
    15    9   10 ar
    16    9   11 1
    17   10   33 1
    18   11   12 2
    19   11   13 am
    20   13   18 1
    21   13   14 1
    22   14   15 1
    23   14   34 1
    24   14   35 1
    25   15   16 1
    26   15   36 1
    27   15   37 1
    28   16   17 1
    29   16   19 1
    30   17   18 1
    31   17   38 1
    32   17   39 1
    33   18   40 1
    34   18   41 1
    35   19   20 1
    36   19   42 1
    37   19   43 1
    38   20   21 1
    39   20   44 1
    40   20   45 1
    41   21   26 ar
    42   21   22 ar
    43   22   23 ar
    44   22   46 1
    45   23   24 ar
    46   23   47 1
    47   24   25 ar
    48   24   27 1
    49   25   26 ar
    50   25   48 1
    51   26   49 1
    52   28   29 3
@<TRIPOS>MOLECULE
ZINC00897457
   31    32     0     0     0
SMALL
USER_CHARGES
2-(1H-indol-3-yl)-N,N-dimethyl-ethanamine
@<TRIPOS>ATOM
      1 C1          0.0585    1.3230   -2.4006 C.3       1 <0>        -0.0423
      2 C2         -2.0591    0.9694   -1.2810 C.3       1 <0>        -0.0467
      3 C3         -0.0127    1.0858    0.0080 C.3       1 <0>        -0.0039
      4 C4         -0.7288    1.5792    1.2668 C.3       1 <0>        -0.0596
      5 C5          0.0000    1.0800    2.4877 C.2       1 <0>        -0.2054
      6 C6         -0.2888   -0.0242    3.1942 C.2       1 <0>         0.0841
      7 N1          0.5910   -0.1564    4.2338 N.pl3     1 <0>        -0.5882
      8 H1          0.5835   -0.8781    4.8819 H         1 <0>         0.4232
      9 C7          1.4851    0.8907    4.2264 C.ar      1 <0>         0.0942
     10 C8          1.1542    1.7112    3.1323 C.ar      1 <0>        -0.1011
     11 C9          1.9006    2.8621    2.8738 C.ar      1 <0>        -0.0845
     12 C10         2.9506    3.1863    3.6862 C.ar      1 <0>        -0.1324
     13 C11         3.2809    2.3806    4.7669 C.ar      1 <0>        -0.0932
     14 C12         2.5576    1.2400    5.0401 C.ar      1 <0>        -0.1218
     15 H2          0.2299    0.2520   -2.5094 H         1 <0>         0.1219
     16 H3         -0.4905    1.6929   -3.2665 H         1 <0>         0.1220
     17 H4          1.0161    1.8388   -2.3299 H         1 <0>         0.1210
     18 H5         -2.6409    1.2283   -0.3963 H         1 <0>         0.1223
     19 H6         -2.5631    1.3469   -2.1707 H         1 <0>         0.1217
     20 H7         -1.9644   -0.1143   -1.3492 H         1 <0>         0.1224
     21 H8          0.0021   -0.0041    0.0020 H         1 <0>         0.1298
     22 H9          1.0099    1.4631    0.0003 H         1 <0>         0.1289
     23 H10        -0.7436    2.6691    1.2728 H         1 <0>         0.0906
     24 H11        -1.7514    1.2020    1.2746 H         1 <0>         0.0903
     25 H12        -1.0951   -0.7081    2.9736 H         1 <0>         0.1726
     26 H13         1.6493    3.4939    2.0348 H         1 <0>         0.1179
     27 H14         3.5282    4.0766    3.4855 H         1 <0>         0.1273
     28 H15         4.1133    2.6501    5.4000 H         1 <0>         0.1318
     29 H16         2.8229    0.6192    5.8831 H         1 <0>         0.1257
     30 N2         -0.7265    1.6008   -1.1794 N.4       1 <0>        -0.3993
     31 H17        -0.8450    2.6161   -1.0829 H         1 <0>         0.4307
@<TRIPOS>BOND
     1    1   15 1
     2    1   16 1
     3    1   17 1
     4    1   30 1
     5    2   18 1
     6    2   19 1
     7    2   20 1
     8    2   30 1
     9    3    4 1
    10    3   21 1
    11    3   22 1
    12    3   30 1
    13    4    5 1
    14    4   23 1
    15    4   24 1
    16    5   10 1
    17    5    6 2
    18    6    7 1
    19    6   25 1
    20    7    8 1
    21    7    9 1
    22    9   14 ar
    23    9   10 ar
    24   10   11 ar
    25   11   12 ar
    26   11   26 1
    27   12   13 ar
    28   12   27 1
    29   13   14 ar
    30   13   28 1
    31   14   29 1
    32   30   31 1
@<TRIPOS>MOLECULE
ZINC02022527
   54    55     0     0     0
SMALL
USER_CHARGES

@<TRIPOS>ATOM
      1 C1         -3.0730    2.2881   -4.2693 C.3       1 <0>        -0.1569
      2 C2         -2.3049    1.5870   -3.1471 C.3       1 <0>        -0.1270
      3 C3         -2.8110    2.0874   -1.7927 C.3       1 <0>        -0.1231
      4 C4         -2.0429    1.3862   -0.6705 C.3       1 <0>        -0.1174
      5 C5         -2.5490    1.8867    0.6839 C.3       1 <0>        -0.1006
      6 C6         -2.2117    3.3722    0.8391 C.3       1 <0>        -0.1451
      7 C7         -2.6658    3.8518    2.2196 C.3       1 <0>        -0.0114
      8 C8         -2.3347    1.6429    3.1595 C.3       1 <0>        -0.0001
      9 C9         -1.8707    1.0973    1.8070 C.3       1 <0>        -0.1442
     10 C10        -2.2939    3.5901    4.5974 C.3       1 <0>        -0.0052
     11 C11        -2.1583    5.1140    4.5919 C.3       1 <0>        -0.1459
     12 C12        -2.4764    5.6593    5.9856 C.3       1 <0>        -0.1543
     13 C13        -2.3428    7.1604    5.9803 C.2       1 <0>         0.3987
     14 O1         -2.0245    7.7371    4.9623 O.2       1 <0>        -0.4456
     15 C14        -2.5986    7.9263    7.2106 C.ar      1 <0>        -0.1885
     16 C15        -3.0878    7.2813    8.3513 C.ar      1 <0>        -0.0705
     17 C16        -3.3195    8.0047    9.5018 C.ar      1 <0>        -0.1389
     18 C17        -3.0801    9.3679    9.5265 C.ar      1 <0>        -0.0729
     19 C18        -2.6016   10.0143    8.4004 C.ar      1 <0>        -0.1345
     20 C19        -2.3594    9.3036    7.2436 C.ar      1 <0>        -0.0178
     21 C20        -1.8387   10.0095    6.0182 C.3       1 <0>        -0.1264
     22 H1         -4.1363    2.0676   -4.1746 H         1 <0>         0.0549
     23 H2         -2.9175    3.3647   -4.1985 H         1 <0>         0.0540
     24 H3         -2.7125    1.9316   -5.2342 H         1 <0>         0.0581
     25 H4         -1.2417    1.8075   -3.2417 H         1 <0>         0.0621
     26 H5         -2.4605    0.5104   -3.2179 H         1 <0>         0.0631
     27 H6         -3.8743    1.8669   -1.6981 H         1 <0>         0.0644
     28 H7         -2.6555    3.1639   -1.7219 H         1 <0>         0.0632
     29 H8         -2.1984    0.3097   -0.7413 H         1 <0>         0.0733
     30 H9         -0.9796    1.6067   -0.7651 H         1 <0>         0.0688
     31 H10        -3.6287    1.7492    0.7427 H         1 <0>         0.0884
     32 H11        -1.1354    3.5132    0.7407 H         1 <0>         0.0881
     33 H12        -2.7264    3.9447    0.0675 H         1 <0>         0.1133
     34 H13        -3.7442    3.7233    2.3122 H         1 <0>         0.1295
     35 H14        -2.4142    4.9057    2.3388 H         1 <0>         0.1342
     36 H15        -3.4146    1.5248    3.2476 H         1 <0>         0.1293
     37 H16        -1.8426    1.0924    3.9613 H         1 <0>         0.1282
     38 H17        -2.1418    0.0446    1.7270 H         1 <0>         0.1118
     39 H18        -0.7890    1.2025    1.7239 H         1 <0>         0.0880
     40 H19        -3.3133    3.3170    4.8704 H         1 <0>         0.1315
     41 H20        -1.5979    3.1659    5.3211 H         1 <0>         0.1302
     42 H21        -1.1389    5.3871    4.3190 H         1 <0>         0.0944
     43 H22        -2.8542    5.5382    3.8682 H         1 <0>         0.0968
     44 H23        -3.4115    5.4088    6.2361 H         1 <0>         0.0981
     45 H24        -1.7805    5.2352    6.7093 H         1 <0>         0.1100
     46 H25        -3.2793    6.2186    8.3321 H         1 <0>         0.1290
     47 H26        -3.6933    7.5074   10.3846 H         1 <0>         0.1322
     48 H27        -3.2682    9.9300   10.4293 H         1 <0>         0.1326
     49 H28        -2.4176   11.0782    8.4274 H         1 <0>         0.1332
     50 H29        -2.6709   10.2515    5.3572 H         1 <0>         0.0784
     51 H30        -1.3321   10.9277    6.3156 H         1 <0>         0.0652
     52 H31        -1.1365    9.3600    5.4956 H         1 <0>         0.0893
     53 N1         -1.9588    3.0696    3.2558 N.4       1 <0>        -0.3931
     54 H32        -0.9467    3.1581    3.1071 H         1 <0>         0.4272
@<TRIPOS>BOND
     1    1    2 1
     2    1   22 1
     3    1   23 1
     4    1   24 1
     5    2    3 1
     6    2   25 1
     7    2   26 1
     8    3    4 1
     9    3   27 1
    10    3   28 1
    11    4    5 1
    12    4   29 1
    13    4   30 1
    14    5    9 1
    15    5    6 1
    16    5   31 1
    17    6    7 1
    18    6   32 1
    19    6   33 1
    20    7   34 1
    21    7   35 1
    22    7   53 1
    23    8    9 1
    24    8   36 1
    25    8   37 1
    26    8   53 1
    27    9   38 1
    28    9   39 1
    29   10   11 1
    30   10   40 1
    31   10   41 1
    32   10   53 1
    33   11   12 1
    34   11   42 1
    35   11   43 1
    36   12   13 1
    37   12   44 1
    38   12   45 1
    39   13   14 2
    40   13   15 1
    41   15   20 ar
    42   15   16 ar
    43   16   17 ar
    44   16   46 1
    45   17   18 ar
    46   17   47 1
    47   18   19 ar
    48   18   48 1
    49   19   20 ar
    50   19   49 1
    51   20   21 1
    52   21   50 1
    53   21   51 1
    54   21   52 1
    55   53   54 1
@<TRIPOS>MOLECULE
ZINC00538337
   58    62     0     0     0
SMALL
USER_CHARGES

@<TRIPOS>ATOM
      1 C1         -0.0168    1.3842    0.0097 C.ar      1 <0>        -0.0898
      2 C2          1.1703    2.0901    0.0021 C.ar      1 <0>        -0.1344
      3 C3          2.3788    1.4141   -0.0135 C.ar      1 <0>         0.1119
      4 C4          2.3997    0.0295   -0.0216 C.ar      1 <0>        -0.1322
      5 C5          1.2148   -0.6800   -0.0137 C.ar      1 <0>        -0.0888
      6 C6          0.0021   -0.0041    0.0020 C.ar      1 <0>         0.1035
      7 N1         -1.2015   -0.7222    0.0101 N.pl3     1 <0>        -0.4255
      8 C7         -2.2407   -0.5077    0.8765 C.2       1 <0>         0.0751
      9 C8         -3.2397   -1.3652    0.6140 C.2       1 <0>        -0.1721
     10 C9         -2.8068   -2.1974   -0.5117 C.ar      1 <0>        -0.0841
     11 C10        -1.5194   -1.7470   -0.8569 C.ar      1 <0>         0.1032
     12 C11        -0.8430   -2.3517   -1.9103 C.ar      1 <0>        -0.1070
     13 C12        -1.4366   -3.3808   -2.6081 C.ar      1 <0>        -0.0841
     14 C13        -2.7089   -3.8239   -2.2706 C.ar      1 <0>        -0.0491
     15 C14        -3.3935   -3.2441   -1.2250 C.ar      1 <0>        -0.0671
     16 Cl1        -3.4366   -5.1218   -3.1648 Cl        1 <0>        -0.0596
     17 C15        -4.5571   -1.4553    1.3402 C.3       1 <0>        -0.0164
     18 C16        -4.3063   -1.7573    2.8204 C.3       1 <0>        -0.1397
     19 C17        -5.6422   -1.7687    3.5665 C.3       1 <0>        -0.0052
     20 N2         -6.2909   -0.4585    3.4359 N.4       1 <0>        -0.3798
     21 C18        -6.5994   -0.1937    2.0255 C.3       1 <0>        -0.0131
     22 C19        -5.3003   -0.1217    1.2201 C.3       1 <0>        -0.1392
     23 C20        -7.5345   -0.4493    4.2177 C.3       1 <0>        -0.0330
     24 C21        -8.1476    0.9521    4.1845 C.3       1 <0>         0.1326
     25 N3         -9.3878    0.9612    4.9641 N.am      1 <0>        -0.6351
     26 C22       -10.7283    0.6664    4.4362 C.3       1 <0>         0.0898
     27 C23       -11.6494    0.8170    5.6625 C.3       1 <0>         0.0871
     28 N4        -10.7301    1.1807    6.7511 N.am      1 <0>        -0.7327
     29 C24        -9.4802    1.2337    6.2723 C.2       1 <0>         0.7000
     30 O1         -8.5172    1.5083    6.9620 O.2       1 <0>        -0.5776
     31 F1          3.5389    2.1063   -0.0213 F         1 <0>        -0.1276
     32 H1         -0.9590    1.9118    0.0260 H         1 <0>         0.1391
     33 H2          1.1561    3.1700    0.0080 H         1 <0>         0.1488
     34 H3          3.3432   -0.4959   -0.0345 H         1 <0>         0.1499
     35 H4          1.2315   -1.7598   -0.0203 H         1 <0>         0.1411
     36 H5         -2.2541    0.2401    1.6556 H         1 <0>         0.1691
     37 H6          0.1466   -2.0149   -2.1816 H         1 <0>         0.1333
     38 H7         -0.9074   -3.8472   -3.4259 H         1 <0>         0.1426
     39 H8         -4.3833   -3.5900   -0.9659 H         1 <0>         0.1336
     40 H9         -5.1611   -2.2499    0.9021 H         1 <0>         0.0971
     41 H10        -3.8271   -2.7315    2.9171 H         1 <0>         0.1158
     42 H11        -3.6594   -0.9891    3.2440 H         1 <0>         0.0884
     43 H12        -6.2882   -2.5373    3.1423 H         1 <0>         0.1304
     44 H13        -5.4673   -1.9836    4.6207 H         1 <0>         0.1320
     45 H14        -7.2250   -0.9960    1.6341 H         1 <0>         0.1319
     46 H15        -7.1311    0.7541    1.9420 H         1 <0>         0.1316
     47 H16        -4.6740    0.6804    1.6106 H         1 <0>         0.0885
     48 H17        -5.5315    0.0731    0.1729 H         1 <0>         0.1159
     49 H18        -8.2379   -1.1638    3.7899 H         1 <0>         0.1318
     50 H19        -7.3173   -0.7265    5.2492 H         1 <0>         0.1351
     51 H20        -7.4442    1.6665    4.6123 H         1 <0>         0.1060
     52 H21        -8.3648    1.2293    3.1530 H         1 <0>         0.1030
     53 H22       -11.0011    1.3839    3.6624 H         1 <0>         0.0916
     54 H23       -10.7713   -0.3513    4.0481 H         1 <0>         0.0867
     55 H24       -12.3795    1.6093    5.4975 H         1 <0>         0.0926
     56 H25       -12.1498   -0.1259    5.8832 H         1 <0>         0.0914
     57 H26       -10.9875    1.3510    7.6707 H         1 <0>         0.4382
     58 H27        -5.6719    0.2583    3.7840 H         1 <0>         0.4243
@<TRIPOS>BOND
     1    1    6 ar
     2    1    2 ar
     3    1   32 1
     4    2    3 ar
     5    2   33 1
     6    3    4 ar
     7    3   31 1
     8    4    5 ar
     9    4   34 1
    10    5    6 ar
    11    5   35 1
    12    6    7 1
    13    7   11 1
    14    7    8 1
    15    8    9 2
    16    8   36 1
    17    9   10 1
    18    9   17 1
    19   10   15 ar
    20   10   11 ar
    21   11   12 ar
    22   12   13 ar
    23   12   37 1
    24   13   14 ar
    25   13   38 1
    26   14   15 ar
    27   14   16 1
    28   15   39 1
    29   17   22 1
    30   17   18 1
    31   17   40 1
    32   18   19 1
    33   18   41 1
    34   18   42 1
    35   19   20 1
    36   19   43 1
    37   19   44 1
    38   20   21 1
    39   20   23 1
    40   20   58 1
    41   21   22 1
    42   21   45 1
    43   21   46 1
    44   22   47 1
    45   22   48 1
    46   23   24 1
    47   23   49 1
    48   23   50 1
    49   24   25 1
    50   24   51 1
    51   24   52 1
    52   25   29 am
    53   25   26 1
    54   26   27 1
    55   26   53 1
    56   26   54 1
    57   27   28 1
    58   27   55 1
    59   27   56 1
    60   28   29 am
    61   28   57 1
    62   29   30 2
@<TRIPOS>MOLECULE
ZINC00014360
   42    43     0     0     0
SMALL
USER_CHARGES

@<TRIPOS>ATOM
      1 C1         -0.0178    1.4608    0.0101 C.3       1 <0>         0.0793
      2 N1          0.0021   -0.0041    0.0020 N.pl3     1 <0>        -1.1235
      3 S1          0.7421   -0.8289    1.2326 S.o2      1 <0>         2.6084
      4 O1          0.5924   -2.2002    0.8914 O.2       1 <0>        -0.9468
      5 O2          2.0334   -0.2448    1.3355 O.2       1 <0>        -0.9510
      6 C2         -0.2382   -0.4417    2.7090 C.3       1 <0>        -0.5828
      7 C3          0.3516   -1.1474    3.9028 C.ar      1 <0>        -0.1049
      8 C4         -0.0784   -2.4267    4.2282 C.ar      1 <0>        -0.0826
      9 C5          0.4473   -3.0893    5.3155 C.ar      1 <0>        -0.1137
     10 C6          1.4193   -2.4726    6.0968 C.ar      1 <0>         0.1042
     11 C7          1.8519   -1.1765    5.7625 C.ar      1 <0>        -0.0991
     12 C8          1.3091   -0.5253    4.6530 C.ar      1 <0>        -0.0640
     13 C9          2.8614   -0.8166    6.7612 C.2       1 <0>        -0.2000
     14 C10         2.9754   -1.8603    7.5977 C.2       1 <0>         0.0879
     15 N2          2.1214   -2.8591    7.2163 N.pl3     1 <0>        -0.5851
     16 H1          2.0253   -3.7124    7.6673 H         1 <0>         0.4255
     17 C11         3.6270    0.4793    6.8351 C.3       1 <0>        -0.0627
     18 C12         2.7992    1.5182    7.5943 C.3       1 <0>        -0.0095
     19 N3          3.5455    2.7814    7.6664 N.4       1 <0>        -0.3881
     20 C13         3.7116    3.3299    6.3138 C.3       1 <0>        -0.0545
     21 C14         2.8051    3.7410    8.4964 C.3       1 <0>        -0.0469
     22 H2          1.0048    1.8381    0.0023 H         1 <0>         0.0693
     23 H3         -0.5450    1.8219   -0.8730 H         1 <0>         0.0876
     24 H4         -0.5280    1.8123    0.9069 H         1 <0>         0.0574
     25 H5         -0.4183   -0.4908   -0.7241 H         1 <0>         0.4222
     26 H6         -0.2266    0.6346    2.8808 H         1 <0>         0.1378
     27 H7         -1.2653   -0.7750    2.5608 H         1 <0>         0.1453
     28 H8         -0.8329   -2.9072    3.6230 H         1 <0>         0.1399
     29 H9          0.1057   -4.0841    5.5609 H         1 <0>         0.1340
     30 H10         1.6421    0.4681    4.3911 H         1 <0>         0.1262
     31 H11         3.6421   -1.9048    8.4461 H         1 <0>         0.1761
     32 H12         4.5701    0.3149    7.3563 H         1 <0>         0.0931
     33 H13         3.8275    0.8410    5.8266 H         1 <0>         0.0945
     34 H14         1.8561    1.6826    7.0732 H         1 <0>         0.1293
     35 H15         2.5988    1.1565    8.6029 H         1 <0>         0.1303
     36 H16         4.2654    4.2672    6.3673 H         1 <0>         0.1245
     37 H17         4.2611    2.6179    5.6980 H         1 <0>         0.1265
     38 H18         2.7316    3.5116    5.8726 H         1 <0>         0.1219
     39 H19         2.6818    3.3340    9.5001 H         1 <0>         0.1225
     40 H20         3.3588    4.6783    8.5499 H         1 <0>         0.1241
     41 H21         1.8251    3.9226    8.0552 H         1 <0>         0.1209
     42 H22         4.4527    2.6132    8.0749 H         1 <0>         0.4266
@<TRIPOS>BOND
     1    1    2 1
     2    1   22 1
     3    1   23 1
     4    1   24 1
     5    2    3 1
     6    2   25 1
     7    3    4 2
     8    3    5 2
     9    3    6 1
    10    6    7 1
    11    6   26 1
    12    6   27 1
    13    7   12 ar
    14    7    8 ar
    15    8    9 ar
    16    8   28 1
    17    9   10 ar
    18    9   29 1
    19   10   15 1
    20   10   11 ar
    21   11   12 ar
    22   11   13 1
    23   12   30 1
    24   13   14 2
    25   13   17 1
    26   14   15 1
    27   14   31 1
    28   15   16 1
    29   17   18 1
    30   17   32 1
    31   17   33 1
    32   18   19 1
    33   18   34 1
    34   18   35 1
    35   19   20 1
    36   19   21 1
    37   19   42 1
    38   20   36 1
    39   20   37 1
    40   20   38 1
    41   21   39 1
    42   21   40 1
    43   21   41 1
@<TRIPOS>MOLECULE
ZINC02516053
   32    32     0     0     0
SMALL
USER_CHARGES

@<TRIPOS>ATOM
      1 C1         -0.0187    1.5258    0.0104 C.3       1 <0>        -0.1837
      2 C2          0.0021   -0.0041    0.0020 C.3       1 <0>         0.0344
      3 H1          0.5293   -0.3651    0.8851 H         1 <0>         0.1407
      4 C3          0.7182   -0.4975   -1.2568 C.3       1 <0>        -0.0944
      5 C4          0.8473   -1.9981   -1.2057 C.ar      1 <0>        -0.0941
      6 C5          2.0025   -2.5757   -0.7149 C.ar      1 <0>        -0.1590
      7 C6          2.1215   -3.9563   -0.6678 C.ar      1 <0>         0.1458
      8 C7          1.0802   -4.7580   -1.1137 C.ar      1 <0>        -0.0982
      9 C8         -0.0748   -4.1803   -1.6044 C.ar      1 <0>        -0.1178
     10 C9         -0.1957   -2.7990   -1.6460 C.ar      1 <0>         0.0662
     11 O1         -1.3349   -2.2303   -2.1234 O.3       1 <0>        -0.3399
     12 C10        -2.3683   -3.1155   -2.5599 C.3       1 <0>         0.0160
     13 I1          1.2600   -6.8441   -1.0433 I         1 <0>         0.0067
     14 O2          3.2588   -4.5247   -0.1852 O.3       1 <0>        -0.2969
     15 C11         4.2899   -3.6392    0.2560 C.3       1 <0>         0.0216
     16 N1         -1.3761   -0.5125    0.0124 N.4       1 <0>        -0.6338
     17 H2          1.0039    1.9031    0.0027 H         1 <0>         0.1075
     18 H3         -0.5459    1.8868   -0.8726 H         1 <0>         0.0843
     19 H4         -0.5289    1.8773    0.9072 H         1 <0>         0.0848
     20 H5          0.1430   -0.2121   -2.1375 H         1 <0>         0.1074
     21 H6          1.7103   -0.0491   -1.3098 H         1 <0>         0.1218
     22 H7          2.8130   -1.9517   -0.3683 H         1 <0>         0.1510
     23 H8         -0.8853   -4.8040   -1.9514 H         1 <0>         0.1495
     24 H9         -2.6820   -3.7459   -1.7280 H         1 <0>         0.0642
     25 H10        -3.2186   -2.5338   -2.9159 H         1 <0>         0.1133
     26 H11        -1.9924   -3.7419   -3.3689 H         1 <0>         0.0693
     27 H12         4.6073   -3.0087   -0.5745 H         1 <0>         0.0621
     28 H13         3.9101   -3.0129    1.0633 H         1 <0>         0.0598
     29 H14         5.1387   -4.2206    0.6159 H         1 <0>         0.1128
     30 H15        -1.8641   -0.1783   -0.8050 H         1 <0>         0.4349
     31 H16        -1.3624   -1.5214    0.0069 H         1 <0>         0.4309
     32 H17        -1.8484   -0.1871    0.8426 H         1 <0>         0.4329
@<TRIPOS>BOND
     1    1    2 1
     2    1   17 1
     3    1   18 1
     4    1   19 1
     5    2    3 1
     6    2    4 1
     7    2   16 1
     8    4    5 1
     9    4   20 1
    10    4   21 1
    11    5   10 ar
    12    5    6 ar
    13    6    7 ar
    14    6   22 1
    15    7    8 ar
    16    7   14 1
    17    8    9 ar
    18    8   13 1
    19    9   10 ar
    20    9   23 1
    21   10   11 1
    22   11   12 1
    23   12   24 1
    24   12   25 1
    25   12   26 1
    26   14   15 1
    27   15   27 1
    28   15   28 1
    29   15   29 1
    30   16   30 1
    31   16   31 1
    32   16   32 1
@<TRIPOS>MOLECULE
ZINC00579013
   50    53     0     0     0
SMALL
USER_CHARGES
5-methyl-N,N-bis[5-methyl-6-(trifluoromethyl)indolin-7a-yl]-6-(trifluoromethyl)indoline-1-carboxamide
@<TRIPOS>ATOM
      1 C1         -1.2442   -0.8128    0.0795 C.3       1 <0>        -0.1335
      2 C2          0.0455   -0.0333    0.0659 C.ar      1 <0>        -0.0509
      3 C3          1.2576   -0.6987    0.0674 C.ar      1 <0>        -0.0798
      4 C4          2.4406    0.0146    0.0550 C.ar      1 <0>        -0.1007
      5 C5          2.4256    1.4004    0.0405 C.ar      1 <0>         0.1546
      6 C6          1.1981    2.0649    0.0386 C.ar      1 <0>        -0.0806
      7 C7          0.0198    1.3489    0.0515 C.ar      1 <0>        -0.1596
      8 C8         -1.3005    2.0754    0.0435 C.3       1 <0>         0.5116
      9 F1         -1.0732    3.4557    0.0291 F         1 <0>        -0.1730
     10 F2         -2.0266    1.7105   -1.0953 F         1 <0>        -0.1736
     11 F3         -2.0274    1.7343    1.1891 F         1 <0>        -0.1734
     12 N1          3.7201    1.9294    0.0296 N.am      1 <0>        -0.5620
     13 C9          4.7058    0.8451    0.0369 C.3       1 <0>         0.0930
     14 C10         3.8792   -0.4511    0.0540 C.3       1 <0>        -0.0865
     15 C11         4.0175    3.2438    0.0149 C.2       1 <0>         0.7179
     16 O1          3.1246    4.0692    0.0103 O.2       1 <0>        -0.5492
     17 N2          5.3047    3.6434    0.0053 N.am      1 <0>        -0.6693
     18 C12         5.6146    5.0059   -0.1041 C.ar      1 <0>         0.0769
     19 C13         4.7972    5.9656    0.4902 C.ar      1 <0>        -0.0387
     20 C14         5.1419    7.2985    0.3562 C.ar      1 <0>        -0.1599
     21 C15         6.2833    7.6342   -0.3610 C.ar      1 <0>         0.3006
     22 N3          7.0362    6.6972   -0.9119 N.ar      1 <0>        -0.5079
     23 C16         6.7417    5.4159   -0.8001 C.ar      1 <0>         0.1228
     24 O2          6.6299    8.9395   -0.4975 O.3       1 <0>        -0.2398
     25 C17         7.6911    9.2381   -1.2923 C.ar      1 <0>         0.0436
     26 C18         8.9410    9.4911   -0.7352 C.ar      1 <0>        -0.0682
     27 C19         9.9933    9.7870   -1.5862 C.ar      1 <0>        -0.1668
     28 C20         9.7672    9.8303   -2.9495 C.ar      1 <0>         0.1077
     29 N4          8.5691    9.5904   -3.4450 N.ar      1 <0>        -0.4716
     30 C21         7.5425    9.3006   -2.6702 C.ar      1 <0>         0.1375
     31 C22         6.1937    9.0352   -3.2876 C.3       1 <0>        -0.1037
     32 H1         -1.5594   -1.0116   -0.9449 H         1 <0>         0.0828
     33 H2         -1.0926   -1.7570    0.6026 H         1 <0>         0.0791
     34 H3         -2.0134   -0.2337    0.5904 H         1 <0>         0.0764
     35 H4          1.2795   -1.7784    0.0787 H         1 <0>         0.1408
     36 H5          1.1711    3.1445    0.0271 H         1 <0>         0.1578
     37 H6          5.3298    0.9074    0.9284 H         1 <0>         0.0882
     38 H7          5.3236    0.8877   -0.8600 H         1 <0>         0.0889
     39 H8          4.0932   -1.0266    0.9546 H         1 <0>         0.1009
     40 H9          4.0852   -1.0472   -0.8350 H         1 <0>         0.1010
     41 H10         6.0165    2.9881    0.0741 H         1 <0>         0.4117
     42 H11         3.9156    5.6755    1.0425 H         1 <0>         0.1612
     43 H12         4.5314    8.0687    0.8040 H         1 <0>         0.1509
     44 H13         7.3832    4.6785   -1.2595 H         1 <0>         0.1627
     45 H14         9.0878    9.4542    0.3341 H         1 <0>         0.1405
     46 H15        10.9779    9.9853   -1.1892 H         1 <0>         0.1427
     47 H16        10.5829   10.0642   -3.6176 H         1 <0>         0.1626
     48 H17         5.6398    9.9706   -3.3665 H         1 <0>         0.0842
     49 H18         6.3268    8.6070   -4.2811 H         1 <0>         0.0815
     50 H19         5.6389    8.3360   -2.6619 H         1 <0>         0.0684
@<TRIPOS>BOND
     1    1    2 1
     2    1   32 1
     3    1   33 1
     4    1   34 1
     5    2    7 ar
     6    2    3 ar
     7    3    4 ar
     8    3   35 1
     9    4   14 1
    10    4    5 ar
    11    5    6 ar
    12    5   12 1
    13    6    7 ar
    14    6   36 1
    15    7    8 1
    16    8    9 1
    17    8   10 1
    18    8   11 1
    19   12   13 1
    20   12   15 am
    21   13   14 1
    22   13   37 1
    23   13   38 1
    24   14   39 1
    25   14   40 1
    26   15   16 2
    27   15   17 am
    28   17   18 1
    29   17   41 1
    30   18   23 ar
    31   18   19 ar
    32   19   20 ar
    33   19   42 1
    34   20   21 ar
    35   20   43 1
    36   21   22 ar
    37   21   24 1
    38   22   23 ar
    39   23   44 1
    40   24   25 1
    41   25   30 ar
    42   25   26 ar
    43   26   27 ar
    44   26   45 1
    45   27   28 ar
    46   27   46 1
    47   28   29 ar
    48   28   47 1
    49   29   30 ar
    50   30   31 1
    51   31   48 1
    52   31   49 1
    53   31   50 1
@<TRIPOS>MOLECULE
ZINC27558640
   28    29     0     0     0
SMALL
USER_CHARGES
(2R)-2-(1H-indol-3-yl)propan-1-amine
@<TRIPOS>ATOM
      1 C1         -4.3954    4.4790    1.3196 C.3       1 <0>        -0.1646
      2 C2         -3.7779    3.8677    0.0602 C.3       1 <0>        -0.0298
      3 H1         -3.9382    2.7795    0.0553 H         1 <0>         0.0972
      4 C3         -4.4212    4.4938   -1.1787 C.3       1 <0>         0.0022
      5 N1         -5.8439    4.1310   -1.2281 N.4       1 <0>        -0.6880
      6 C4         -2.2952    4.1365    0.0465 C.2       1 <0>        -0.2026
      7 C5         -1.7019    5.3406    0.0471 C.2       1 <0>         0.0692
      8 N2         -0.3419    5.1907    0.0328 N.pl3     1 <0>        -0.6003
      9 H2          0.3092    6.0773    0.0310 H         1 <0>         0.4503
     10 C6         -0.0185    3.8524    0.0225 C.ar      1 <0>         0.1067
     11 C7         -1.2278    3.1332    0.0306 C.ar      1 <0>        -0.1016
     12 C8         -1.2083    1.7375    0.0173 C.ar      1 <0>        -0.0823
     13 C9         -0.0126    1.0758    0.0080 C.ar      1 <0>        -0.1347
     14 C10         1.1831    1.7806    0.0003 C.ar      1 <0>        -0.0934
     15 C11         1.1868    3.1584    0.0072 C.ar      1 <0>        -0.1247
     16 H3         -3.9329    4.0288    2.2103 H         1 <0>         0.0827
     17 H4         -5.4777    4.2828    1.3296 H         1 <0>         0.0530
     18 H5         -4.2195    5.5648    1.3242 H         1 <0>         0.0700
     19 H6         -4.3234    5.5883   -1.1291 H         1 <0>         0.1264
     20 H7         -3.9162    4.1211   -2.0821 H         1 <0>         0.1301
     21 H8         -6.3064    4.5812   -2.1189 H         1 <0>         0.4585
     22 H9         -6.3489    4.5037   -0.3247 H         1 <0>         0.4521
     23 H10        -2.2212    6.2875    0.0573 H         1 <0>         0.1669
     24 H11        -2.1348    1.1825    0.0187 H         1 <0>         0.1184
     25 H12         0.0021   -0.0041    0.0020 H         1 <0>         0.1269
     26 H13         2.1200    1.2436   -0.0115 H         1 <0>         0.1310
     27 H14         2.1224    3.6978    0.0005 H         1 <0>         0.1247
     28 H15        -5.9417    3.0365   -1.2777 H         1 <0>         0.4557
@<TRIPOS>BOND
     1    1    2 1
     2    1   16 1
     3    1   17 1
     4    1   18 1
     5    2    3 1
     6    2    4 1
     7    2    6 1
     8    4    5 1
     9    4   19 1
    10    4   20 1
    11    5   21 1
    12    5   22 1
    13    5   28 1
    14    6   11 1
    15    6    7 2
    16    7    8 1
    17    7   23 1
    18    8    9 1
    19    8   10 1
    20   10   15 ar
    21   10   11 ar
    22   11   12 ar
    23   12   13 ar
    24   12   24 1
    25   13   14 ar
    26   13   25 1
    27   14   15 ar
    28   14   26 1
    29   15   27 1
@<TRIPOS>MOLECULE
ZINC27558642
   28    29     0     0     0
SMALL
USER_CHARGES
(2S)-2-(1H-indol-3-yl)propan-1-amine
@<TRIPOS>ATOM
      1 C1         -3.1279   -1.4517    1.2734 C.3       1 <0>        -0.1646
      2 C2         -2.5268   -0.8090    0.0218 C.3       1 <0>        -0.0298
      3 H1         -2.7173    0.2744    0.0294 H         1 <0>         0.0972
      4 C3         -3.1517   -1.4383   -1.2249 C.3       1 <0>         0.0022
      5 N1         -4.5838   -1.1144   -1.2714 N.4       1 <0>        -0.6879
      6 C4         -1.0371   -1.0366    0.0064 C.2       1 <0>        -0.2025
      7 C5         -0.4108   -2.2238   -0.0060 C.2       1 <0>         0.0692
      8 N2          0.9446   -2.0362   -0.0179 N.pl3     1 <0>        -0.6004
      9 H2          1.6199   -2.9044   -0.0290 H         1 <0>         0.4503
     10 C6          1.2308   -0.6894   -0.0134 C.ar      1 <0>         0.1068
     11 C7          0.0021   -0.0041    0.0020 C.ar      1 <0>        -0.1016
     12 C8         -0.0169    1.3917    0.0097 C.ar      1 <0>        -0.0822
     13 C9          1.1601    2.0862    0.0022 C.ar      1 <0>        -0.1347
     14 C10         2.3747    1.4149   -0.0130 C.ar      1 <0>        -0.0933
     15 C11         2.4165    0.0376   -0.0208 C.ar      1 <0>        -0.1247
     16 H3         -2.6786   -0.9992    2.1697 H         1 <0>         0.0827
     17 H4         -2.9220   -2.5322    1.2656 H         1 <0>         0.0700
     18 H5         -4.2152   -1.2857    1.2846 H         1 <0>         0.0530
     19 H6         -2.6566   -1.0413   -2.1234 H         1 <0>         0.1301
     20 H7         -3.0237   -2.5302   -1.1879 H         1 <0>         0.1264
     21 H8         -5.0331   -1.5668   -2.1677 H         1 <0>         0.4584
     22 H9         -4.7117   -0.0225   -1.3084 H         1 <0>         0.4558
     23 H10        -0.9037   -3.1847   -0.0067 H         1 <0>         0.1669
     24 H11        -0.9583    1.9209    0.0170 H         1 <0>         0.1184
     25 H12         1.1449    3.1661    0.0078 H         1 <0>         0.1269
     26 H13         3.2965    1.9776   -0.0192 H         1 <0>         0.1310
     27 H14         3.3667   -0.4756   -0.0330 H         1 <0>         0.1247
     28 H15        -5.0788   -1.5113   -0.3729 H         1 <0>         0.4521
@<TRIPOS>BOND
     1    1    2 1
     2    1   16 1
     3    1   17 1
     4    1   18 1
     5    2    3 1
     6    2    4 1
     7    2    6 1
     8    4    5 1
     9    4   19 1
    10    4   20 1
    11    5   21 1
    12    5   22 1
    13    5   28 1
    14    6   11 1
    15    6    7 2
    16    7    8 1
    17    7   23 1
    18    8    9 1
    19    8   10 1
    20   10   15 ar
    21   10   11 ar
    22   11   12 ar
    23   12   13 ar
    24   12   24 1
    25   13   14 ar
    26   13   25 1
    27   14   15 ar
    28   14   26 1
    29   15   27 1
@<TRIPOS>MOLECULE
ZINC13782372
   30    32     0     0     0
SMALL
USER_CHARGES
(2R)-1-(4-bromofuro[2,3-f]benzofuran-8-yl)propan-2-amine
@<TRIPOS>ATOM
      1 C1         -4.8886    4.4524   -1.3685 C.3       1 <0>        -0.1807
      2 C2         -3.3605    4.5273   -1.3817 C.3       1 <0>         0.0364
      3 H1         -2.9597    3.6747   -1.9300 H         1 <0>         0.1424
      4 C3         -2.8362    4.5016    0.0554 C.3       1 <0>        -0.0974
      5 C4         -1.3301    4.4514    0.0398 C.ar      1 <0>        -0.0651
      6 C5         -0.6713    3.2249    0.0258 C.ar      1 <0>        -0.0776
      7 C6         -1.1218    1.8267    0.0168 C.2       1 <0>        -0.2267
      8 C7         -0.0126    1.0758    0.0080 C.2       1 <0>         0.0558
      9 O1          1.0801    1.8597    0.0017 O.3       1 <0>        -0.1778
     10 C8          0.7355    3.1650    0.0121 C.ar      1 <0>         0.0740
     11 C9          1.4707    4.3380    0.0120 C.ar      1 <0>        -0.0299
     12 C10         0.8116    5.5643    0.0256 C.ar      1 <0>        -0.0761
     13 C11        -0.5957    5.6236    0.0394 C.ar      1 <0>         0.0293
     14 O2         -0.9406    6.9287    0.0504 O.3       1 <0>        -0.2084
     15 C12         0.1519    7.7130    0.0447 C.2       1 <0>         0.0277
     16 C13         1.2614    6.9627    0.0296 C.2       1 <0>        -0.1913
     17 Br1         3.3606    4.2750   -0.0057 Br        1 <0>         0.0007
     18 H2         -5.2622    4.4707   -2.3923 H         1 <0>         0.0857
     19 H3         -5.2029    3.5283   -0.8835 H         1 <0>         0.1089
     20 H4         -5.2894    5.3050   -0.8202 H         1 <0>         0.0842
     21 H5         -3.2238    3.6211    0.5679 H         1 <0>         0.1276
     22 H6         -3.1643    5.4001    0.5780 H         1 <0>         0.1052
     23 H7         -2.1428    1.4747    0.0186 H         1 <0>         0.1705
     24 H8          0.0021   -0.0041    0.0020 H         1 <0>         0.2226
     25 H9          0.1368    8.7929    0.0509 H         1 <0>         0.2244
     26 H10         2.2822    7.3153    0.0226 H         1 <0>         0.1732
     27 H11        -3.2711    5.8137   -2.9865 H         1 <0>         0.4385
     28 H12        -3.2416    6.5786   -1.5100 H         1 <0>         0.4361
     29 N1         -2.9118    5.7699   -2.0344 N.4       1 <0>        -0.6467
     30 H13        -1.8855    5.7847   -2.0626 H         1 <0>         0.4344
@<TRIPOS>BOND
     1    1    2 1
     2    1   18 1
     3    1   19 1
     4    1   20 1
     5    2    3 1
     6    2    4 1
     7    2   29 1
     8    4    5 1
     9    4   21 1
    10    4   22 1
    11    5   13 ar
    12    5    6 ar
    13    6   10 ar
    14    6    7 1
    15    7    8 2
    16    7   23 1
    17    8    9 1
    18    8   24 1
    19    9   10 1
    20   10   11 ar
    21   11   12 ar
    22   11   17 1
    23   12   16 1
    24   12   13 ar
    25   13   14 1
    26   14   15 1
    27   15   16 2
    28   15   25 1
    29   16   26 1
    30   27   29 1
    31   28   29 1
    32   29   30 1
@<TRIPOS>MOLECULE
ZINC02035314
   32    33     0     0     0
SMALL
USER_CHARGES
2-(5-methoxy-1H-indol-3-yl)propan-1-amine
@<TRIPOS>ATOM
      1 C1         -2.7832    0.4786    1.2659 C.3       1 <0>        -0.1663
      2 C2         -2.5448    1.3341    0.0200 C.3       1 <0>        -0.0301
      3 H1         -3.2268    2.1844    0.0271 H         1 <0>         0.1001
      4 C3         -2.7934    0.4914   -1.2325 C.3       1 <0>        -0.0013
      5 C4         -1.1222    1.8313    0.0168 C.2       1 <0>        -0.2037
      6 C5         -0.0126    1.0758    0.0080 C.2       1 <0>         0.0871
      7 N1          1.0969    1.8762    0.0017 N.pl3     1 <0>        -0.5858
      8 H2          2.0133    1.5585   -0.0091 H         1 <0>         0.4230
      9 C6          0.7179    3.2021    0.0124 C.ar      1 <0>         0.0616
     10 C7         -0.6883    3.2305    0.0260 C.ar      1 <0>        -0.0569
     11 C8         -1.3616    4.4537    0.0388 C.ar      1 <0>        -0.1264
     12 C9         -0.6388    5.6303    0.0375 C.ar      1 <0>         0.1169
     13 C10         0.7530    5.5988    0.0236 C.ar      1 <0>        -0.1739
     14 C11         1.4274    4.3980    0.0114 C.ar      1 <0>        -0.0804
     15 O1         -1.2891    6.8245    0.0504 O.3       1 <0>        -0.3176
     16 C12        -0.4811    8.0032    0.0487 C.3       1 <0>         0.0251
     17 H3         -3.8122    0.1190    1.2683 H         1 <0>         0.0532
     18 H4         -2.1012   -0.3716    1.2588 H         1 <0>         0.0708
     19 H5         -2.6061    1.0790    2.1582 H         1 <0>         0.0843
     20 H6         -2.5383    1.0731   -2.1183 H         1 <0>         0.1376
     21 H7         -2.1745   -0.4051   -1.1960 H         1 <0>         0.1304
     22 H8         -4.8070    0.9194   -1.2603 H         1 <0>         0.4375
     23 H9         -4.3998   -0.4512   -2.1097 H         1 <0>         0.4395
     24 H10         0.0021   -0.0041    0.0020 H         1 <0>         0.1706
     25 H11        -2.4412    4.4794    0.0499 H         1 <0>         0.1284
     26 H12         1.3090    6.5247    0.0228 H         1 <0>         0.1378
     27 H13         2.5073    4.3852    0.0014 H         1 <0>         0.1296
     28 H14         0.1569    8.0076    0.9325 H         1 <0>         0.0580
     29 H15         0.1393    8.0172   -0.8473 H         1 <0>         0.0576
     30 H16        -1.1233    8.8839    0.0598 H         1 <0>         0.1045
     31 N2         -4.2116    0.0929   -1.2693 N.4       1 <0>        -0.6481
     32 H17        -4.4225   -0.4809   -0.4445 H         1 <0>         0.4365
@<TRIPOS>BOND
     1    1    2 1
     2    1   17 1
     3    1   18 1
     4    1   19 1
     5    2    3 1
     6    2    4 1
     7    2    5 1
     8    4   20 1
     9    4   21 1
    10    4   31 1
    11    5   10 1
    12    5    6 2
    13    6    7 1
    14    6   24 1
    15    7    8 1
    16    7    9 1
    17    9   14 ar
    18    9   10 ar
    19   10   11 ar
    20   11   12 ar
    21   11   25 1
    22   12   13 ar
    23   12   15 1
    24   13   14 ar
    25   13   26 1
    26   14   27 1
    27   15   16 1
    28   16   28 1
    29   16   29 1
    30   16   30 1
    31   22   31 1
    32   23   31 1
    33   31   32 1
@<TRIPOS>MOLECULE
ZINC05735105
   32    33     0     0     0
SMALL
USER_CHARGES
2-(5-methoxy-1H-indol-3-yl)propan-1-amine
@<TRIPOS>ATOM
      1 C1          1.5442    5.5403   -1.2331 C.3       1 <0>        -0.1663
      2 C2          1.7913    4.6826    0.0095 C.3       1 <0>        -0.0300
      3 H1          2.8168    4.3133   -0.0020 H         1 <0>         0.1001
      4 C3          1.5676    5.5276    1.2652 C.3       1 <0>        -0.0014
      5 C4          0.8373    3.5160    0.0125 C.2       1 <0>        -0.2036
      6 C5         -0.5034    3.5813    0.0254 C.2       1 <0>         0.0870
      7 N1         -1.0321    2.3195    0.0188 N.pl3     1 <0>        -0.5857
      8 H2         -1.9797    2.1122    0.0215 H         1 <0>         0.4230
      9 C6         -0.0168    1.3864    0.0097 C.ar      1 <0>         0.0617
     10 C7          1.1975    2.0961    0.0019 C.ar      1 <0>        -0.0570
     11 C8          2.4103    1.4041   -0.0135 C.ar      1 <0>        -0.1264
     12 C9          2.4077    0.0233   -0.0209 C.ar      1 <0>         0.1169
     13 C10         1.2040   -0.6763   -0.0131 C.ar      1 <0>        -0.1739
     14 C11         0.0021   -0.0041    0.0020 C.ar      1 <0>        -0.0804
     15 O1          3.5857   -0.6560   -0.0354 O.3       1 <0>        -0.3176
     16 C12         3.5116   -2.0831   -0.0419 C.3       1 <0>         0.0251
     17 H3          1.7036    4.9383   -2.1277 H         1 <0>         0.0843
     18 H4          0.5187    5.9096   -1.2216 H         1 <0>         0.0708
     19 H5          2.2342    6.3841   -1.2353 H         1 <0>         0.0533
     20 H6          0.5717    5.9694    1.2332 H         1 <0>         0.1304
     21 H7          1.6564    4.8957    2.1490 H         1 <0>         0.1376
     22 H8          2.4487    7.1675    2.1443 H         1 <0>         0.4395
     23 H9          3.5086    6.2133    1.2887 H         1 <0>         0.4375
     24 H10        -1.0795    4.4947    0.0354 H         1 <0>         0.1706
     25 H11         3.3447    1.9456   -0.0191 H         1 <0>         0.1284
     26 H12         1.2129   -1.7562   -0.0193 H         1 <0>         0.1378
     27 H13        -0.9258   -0.5568    0.0083 H         1 <0>         0.1296
     28 H14         2.9880   -2.4238    0.8514 H         1 <0>         0.0576
     29 H15         2.9713   -2.4148   -0.9285 H         1 <0>         0.0580
     30 H16         4.5190   -2.4991   -0.0534 H         1 <0>         0.1045
     31 N2          2.5694    6.6076    1.3019 N.4       1 <0>        -0.6481
     32 H17         2.4471    7.2095    0.4792 H         1 <0>         0.4365
@<TRIPOS>BOND
     1    1    2 1
     2    1   17 1
     3    1   18 1
     4    1   19 1
     5    2    3 1
     6    2    4 1
     7    2    5 1
     8    4   20 1
     9    4   21 1
    10    4   31 1
    11    5   10 1
    12    5    6 2
    13    6    7 1
    14    6   24 1
    15    7    8 1
    16    7    9 1
    17    9   14 ar
    18    9   10 ar
    19   10   11 ar
    20   11   12 ar
    21   11   25 1
    22   12   13 ar
    23   12   15 1
    24   13   14 ar
    25   13   26 1
    26   14   27 1
    27   15   16 1
    28   16   28 1
    29   16   29 1
    30   16   30 1
    31   22   31 1
    32   23   31 1
    33   31   32 1
@<TRIPOS>MOLECULE
ZINC29130869
   21    22     0     0     0
SMALL
USER_CHARGES

@<TRIPOS>ATOM
      1 C1         -0.0168    1.3851    0.0097 C.ar      1 <0>        -0.1114
      2 C2          1.1695    2.0923    0.0021 C.ar      1 <0>        -0.0557
      3 C3          2.3765    1.4166   -0.0142 C.ar      1 <0>        -0.0325
      4 C4          2.3977    0.0325   -0.0291 C.ar      1 <0>         0.0004
      5 C5          1.2119   -0.6819   -0.0241 C.ar      1 <0>        -0.1257
      6 C6          0.0021   -0.0041    0.0020 C.ar      1 <0>         0.1557
      7 N1         -1.2115   -0.7080    0.0366 N.pl3     1 <0>        -0.6439
      8 C7         -1.1703   -2.0782   -0.1764 C.cat     1 <0>         0.7629
      9 N2         -0.0513   -2.7297    0.3259 N.pl3     1 <0>        -0.7367
     10 C8          1.2613   -2.1888   -0.0559 C.3       1 <0>         0.1619
     11 N3         -2.1192   -2.7123   -0.8059 N.pl3     1 <0>        -0.7135
     12 Cl1         3.9156   -0.8096   -0.0547 Cl        1 <0>        -0.0101
     13 Cl2         3.8674    2.3060   -0.0167 Cl        1 <0>        -0.0128
     14 H1         -0.9593    1.9121    0.0260 H         1 <0>         0.1571
     15 H2          1.1549    3.1722    0.0086 H         1 <0>         0.1643
     16 H3         -2.0510   -0.2519    0.2042 H         1 <0>         0.4492
     17 H4          1.5138   -2.5230   -1.0622 H         1 <0>         0.1084
     18 H5          2.0175   -2.5425    0.6450 H         1 <0>         0.1321
     19 H6         -2.8871   -2.2251   -1.1432 H         1 <0>         0.4475
     20 H7         -0.1322   -3.5063    0.9014 H         1 <0>         0.4498
     21 H8         -2.0575   -3.6714   -0.9369 H         1 <0>         0.4529
@<TRIPOS>BOND
     1    1    6 ar
     2    1    2 ar
     3    1   14 1
     4    2    3 ar
     5    2   15 1
     6    3    4 ar
     7    3   13 1
     8    4    5 ar
     9    4   12 1
    10    5   10 1
    11    5    6 ar
    12    6    7 1
    13    7    8 1
    14    7   16 1
    15    8    9 1
    16    8   11 2
    17    9   10 1
    18    9   20 1
    19   10   17 1
    20   10   18 1
    21   11   19 1
    22   11   21 1
@<TRIPOS>MOLECULE
ZINC00598509
   69    73     0     0     0
SMALL
USER_CHARGES

@<TRIPOS>ATOM
      1 C1         -0.0258    1.5270    0.0085 C.3       1 <0>        -0.1204
      2 C2         -0.0148    0.0201   -0.0060 C.ar      1 <0>        -0.0705
      3 C3         -0.0163   -0.6573   -1.2055 C.ar      1 <0>        -0.0754
      4 C4         -0.0066   -2.0515   -1.2190 C.ar      1 <0>        -0.0242
      5 C5          0.0052   -2.7607   -0.0182 C.ar      1 <0>        -0.0676
      6 C6          0.0067   -2.0841    1.1813 C.ar      1 <0>        -0.1023
      7 C7          0.0028   -0.6889    1.1951 C.ar      1 <0>        -0.0393
      8 C8          0.0106    0.0396    2.4858 C.ar      1 <0>        -0.0090
      9 C9          0.9274    1.0696    2.6995 C.ar      1 <0>        -0.1104
     10 C10         0.9355    1.7469    3.8979 C.ar      1 <0>        -0.0527
     11 C11         0.0249    1.4029    4.9003 C.ar      1 <0>        -0.1436
     12 C12        -0.8930    0.3716    4.6852 C.ar      1 <0>        -0.0810
     13 C13        -0.9027   -0.3012    3.4843 C.ar      1 <0>        -0.1096
     14 C14         0.0330    2.1285    6.1867 C.2       1 <0>         0.5685
     15 O1          0.8322    3.0256    6.3736 O.2       1 <0>        -0.5263
     16 N1         -0.8455    1.7963    7.1533 N.am      1 <0>        -0.6684
     17 C15        -0.7752    2.4168    8.4065 C.ar      1 <0>         0.1156
     18 C16        -1.0739    1.6964    9.5555 C.ar      1 <0>        -0.0912
     19 C17        -1.0053    2.3066   10.7939 C.ar      1 <0>        -0.1823
     20 C18        -0.6379    3.6383   10.8923 C.ar      1 <0>         0.1184
     21 C19        -0.3370    4.3645    9.7420 C.ar      1 <0>         0.1285
     22 C20        -0.4014    3.7504    8.5005 C.ar      1 <0>        -0.0823
     23 N2          0.0344    5.7103    9.8398 N.pl3     1 <0>        -0.6622
     24 C21         1.4462    6.0965    9.9877 C.3       1 <0>         0.1226
     25 C22         1.7685    7.1688    8.9417 C.3       1 <0>        -0.0241
     26 N3          0.8189    8.2810    9.0738 N.4       1 <0>        -0.3816
     27 C23        -0.5392    7.8189    8.7603 C.3       1 <0>        -0.0238
     28 C24        -0.9753    6.7790    9.7916 C.3       1 <0>         0.1217
     29 C25         1.1947    9.3562    8.1460 C.3       1 <0>        -0.0465
     30 O2         -0.5714    4.2375   12.1123 O.3       1 <0>        -0.3095
     31 C26        -0.8936    3.4332   13.2486 C.3       1 <0>         0.0226
     32 C27        -0.0092   -2.7806   -2.5110 C.2       1 <0>         0.2941
     33 N4         -0.0061   -4.1179   -2.6574 N.2       1 <0>        -0.5422
     34 C28        -0.0098   -4.4281   -3.9223 C.2       1 <0>         0.2990
     35 O3         -0.0155   -3.2957   -4.6373 O.3       1 <0>        -0.1011
     36 N5         -0.0207   -2.2295   -3.6998 N.2       1 <0>        -0.3348
     37 C29        -0.0072   -5.8256   -4.4862 C.3       1 <0>        -0.0763
     38 H1          0.9991    1.8979    0.0015 H         1 <0>         0.0767
     39 H2         -0.5515    1.8949   -0.8727 H         1 <0>         0.0725
     40 H3         -0.5331    1.8780    0.9071 H         1 <0>         0.0725
     41 H4         -0.0254   -0.1084   -2.1356 H         1 <0>         0.1368
     42 H5          0.0127   -3.8406   -0.0290 H         1 <0>         0.1439
     43 H6          0.0151   -2.6334    2.1112 H         1 <0>         0.1367
     44 H7          1.6311    1.3354    1.9245 H         1 <0>         0.1371
     45 H8          1.6456    2.5436    4.0634 H         1 <0>         0.1389
     46 H9         -1.5969    0.1047    5.4596 H         1 <0>         0.1288
     47 H10        -1.6146   -1.0958    3.3164 H         1 <0>         0.1367
     48 H11        -1.5264    1.1274    6.9808 H         1 <0>         0.4139
     49 H12        -1.3606    0.6578    9.4814 H         1 <0>         0.1355
     50 H13        -1.2388    1.7442   11.6858 H         1 <0>         0.1396
     51 H14        -0.1650    4.3099    7.6075 H         1 <0>         0.1464
     52 H15         1.6134    6.4978   10.9872 H         1 <0>         0.0784
     53 H16         2.0827    5.2261    9.8280 H         1 <0>         0.1141
     54 H17         2.7826    7.5363    9.0985 H         1 <0>         0.1357
     55 H18         1.6879    6.7387    7.9435 H         1 <0>         0.1311
     56 H19        -1.2255    8.6654    8.7834 H         1 <0>         0.1359
     57 H20        -0.5499    7.3691    7.7675 H         1 <0>         0.1289
     58 H21        -1.9389    6.3598    9.5024 H         1 <0>         0.1131
     59 H22        -1.0567    7.2504   10.7710 H         1 <0>         0.0785
     60 H23         1.1728    8.9783    7.1239 H         1 <0>         0.1203
     61 H24         0.4905   10.1825    8.2431 H         1 <0>         0.1231
     62 H25         2.1997    9.7056    8.3828 H         1 <0>         0.1234
     63 H26        -1.9166    3.0682   13.1570 H         1 <0>         0.0587
     64 H27        -0.2091    2.5866   13.3004 H         1 <0>         0.0586
     65 H28        -0.8011    4.0313   14.1551 H         1 <0>         0.1033
     66 H29        -1.0342   -6.1660   -4.6183 H         1 <0>         0.1108
     67 H30         0.5031   -5.8278   -5.4494 H         1 <0>         0.1032
     68 H31         0.5115   -6.4939   -3.7988 H         1 <0>         0.1112
     69 H32         0.8435    8.6322   10.0194 H         1 <0>         0.4235
@<TRIPOS>BOND
     1    1    2 1
     2    1   38 1
     3    1   39 1
     4    1   40 1
     5    2    7 ar
     6    2    3 ar
     7    3    4 ar
     8    3   41 1
     9    4    5 ar
    10    4   32 1
    11    5    6 ar
    12    5   42 1
    13    6    7 ar
    14    6   43 1
    15    7    8 1
    16    8   13 ar
    17    8    9 ar
    18    9   10 ar
    19    9   44 1
    20   10   11 ar
    21   10   45 1
    22   11   12 ar
    23   11   14 1
    24   12   13 ar
    25   12   46 1
    26   13   47 1
    27   14   15 2
    28   14   16 am
    29   16   17 1
    30   16   48 1
    31   17   22 ar
    32   17   18 ar
    33   18   19 ar
    34   18   49 1
    35   19   20 ar
    36   19   50 1
    37   20   21 ar
    38   20   30 1
    39   21   22 ar
    40   21   23 1
    41   22   51 1
    42   23   28 1
    43   23   24 1
    44   24   25 1
    45   24   52 1
    46   24   53 1
    47   25   26 1
    48   25   54 1
    49   25   55 1
    50   26   27 1
    51   26   29 1
    52   26   69 1
    53   27   28 1
    54   27   56 1
    55   27   57 1
    56   28   58 1
    57   28   59 1
    58   29   60 1
    59   29   61 1
    60   29   62 1
    61   30   31 1
    62   31   63 1
    63   31   64 1
    64   31   65 1
    65   32   36 2
    66   32   33 1
    67   33   34 2
    68   34   35 1
    69   34   37 1
    70   35   36 1
    71   37   66 1
    72   37   67 1
    73   37   68 1
@<TRIPOS>MOLECULE
ZINC00598509
   68    72     0     0     0
SMALL
USER_CHARGES

@<TRIPOS>ATOM
      1 C1         -0.0258    1.5270    0.0085 C.3       1 <0>        -0.1214
      2 C2         -0.0148    0.0201   -0.0060 C.ar      1 <0>        -0.0708
      3 C3         -0.0163   -0.6573   -1.2055 C.ar      1 <0>        -0.0750
      4 C4         -0.0066   -2.0515   -1.2190 C.ar      1 <0>        -0.0302
      5 C5          0.0052   -2.7607   -0.0182 C.ar      1 <0>        -0.0680
      6 C6          0.0067   -2.0841    1.1813 C.ar      1 <0>        -0.1041
      7 C7          0.0028   -0.6889    1.1951 C.ar      1 <0>        -0.0311
      8 C8          0.0106    0.0396    2.4858 C.ar      1 <0>        -0.0198
      9 C9          0.9274    1.0696    2.6995 C.ar      1 <0>        -0.1090
     10 C10         0.9355    1.7469    3.8979 C.ar      1 <0>        -0.0544
     11 C11         0.0249    1.4029    4.9003 C.ar      1 <0>        -0.1327
     12 C12        -0.8930    0.3716    4.6852 C.ar      1 <0>        -0.0832
     13 C13        -0.9027   -0.3012    3.4843 C.ar      1 <0>        -0.1096
     14 C14         0.0330    2.1285    6.1867 C.2       1 <0>         0.5586
     15 O1          0.8322    3.0256    6.3736 O.2       1 <0>        -0.5148
     16 N1         -0.8455    1.7963    7.1533 N.am      1 <0>        -0.6663
     17 C15        -0.7752    2.4168    8.4065 C.ar      1 <0>         0.1085
     18 C16        -1.0739    1.6964    9.5555 C.ar      1 <0>        -0.1051
     19 C17        -1.0053    2.3066   10.7939 C.ar      1 <0>        -0.1878
     20 C18        -0.6379    3.6383   10.8923 C.ar      1 <0>         0.1109
     21 C19        -0.3370    4.3645    9.7420 C.ar      1 <0>         0.1576
     22 C20        -0.4014    3.7504    8.5005 C.ar      1 <0>        -0.0854
     23 N2          0.0344    5.7103    9.8398 N.pl3     1 <0>        -0.6665
     24 C21         1.4463    6.0949    9.9877 C.3       1 <0>         0.1544
     25 C22         1.7758    7.1536    8.9299 C.3       1 <0>         0.0391
     26 N3          0.8161    8.2608    9.0345 N.3       1 <0>        -0.5401
     27 C23        -0.5519    7.8093    8.7473 C.3       1 <0>         0.0391
     28 C24        -0.9762    6.7778    9.7914 C.3       1 <0>         0.1537
     29 C25         1.1986    9.3738    8.1553 C.3       1 <0>         0.0248
     30 O2         -0.5714    4.2375   12.1123 O.3       1 <0>        -0.3021
     31 C26        -0.8936    3.4332   13.2486 C.3       1 <0>         0.0247
     32 C27        -0.0092   -2.7806   -2.5110 C.2       1 <0>         0.2973
     33 N4         -0.0061   -4.1179   -2.6574 N.2       1 <0>        -0.5412
     34 C28        -0.0098   -4.4281   -3.9223 C.2       1 <0>         0.2959
     35 O3         -0.0155   -3.2957   -4.6373 O.3       1 <0>        -0.1032
     36 N5         -0.0207   -2.2295   -3.6998 N.2       1 <0>        -0.3355
     37 C29        -0.0072   -5.8256   -4.4862 C.3       1 <0>        -0.0751
     38 H1          0.9991    1.8979    0.0015 H         1 <0>         0.0772
     39 H2         -0.5515    1.8949   -0.8727 H         1 <0>         0.0715
     40 H3         -0.5331    1.8780    0.9071 H         1 <0>         0.0747
     41 H4         -0.0254   -0.1084   -2.1356 H         1 <0>         0.1357
     42 H5          0.0127   -3.8406   -0.0290 H         1 <0>         0.1424
     43 H6          0.0151   -2.6334    2.1112 H         1 <0>         0.1367
     44 H7          1.6311    1.3354    1.9245 H         1 <0>         0.1356
     45 H8          1.6456    2.5436    4.0634 H         1 <0>         0.1407
     46 H9         -1.5969    0.1047    5.4596 H         1 <0>         0.1292
     47 H10        -1.6146   -1.0958    3.3164 H         1 <0>         0.1344
     48 H11        -1.5264    1.1274    6.9808 H         1 <0>         0.4094
     49 H12        -1.3606    0.6578    9.4814 H         1 <0>         0.1286
     50 H13        -1.2388    1.7442   11.6858 H         1 <0>         0.1335
     51 H14        -0.1650    4.3099    7.6075 H         1 <0>         0.1447
     52 H15         1.6110    6.5079   10.9829 H         1 <0>         0.0585
     53 H16         2.0811    5.2210    9.8412 H         1 <0>         0.0698
     54 H17         2.7853    7.5303    9.0945 H         1 <0>         0.0791
     55 H18         1.7107    6.7084    7.9371 H         1 <0>         0.0368
     56 H19        -1.2306    8.6616    8.7795 H         1 <0>         0.0795
     57 H20        -0.5846    7.3549    7.7570 H         1 <0>         0.0337
     58 H21        -1.9422    6.3551    9.5153 H         1 <0>         0.0687
     59 H22        -1.0488    7.2577   10.7674 H         1 <0>         0.0589
     60 H23         1.2227    9.0286    7.1217 H         1 <0>         0.0236
     61 H24         0.4714   10.1799    8.2523 H         1 <0>         0.0677
     62 H25         2.1856    9.7387    8.4396 H         1 <0>         0.0684
     63 H26        -0.8011    4.0313   14.1551 H         1 <0>         0.0991
     64 H27        -1.9166    3.0682   13.1570 H         1 <0>         0.0537
     65 H28        -0.2091    2.5866   13.3004 H         1 <0>         0.0536
     66 H29        -1.0342   -6.1660   -4.6183 H         1 <0>         0.1097
     67 H30         0.5031   -5.8278   -5.4494 H         1 <0>         0.1021
     68 H31         0.5115   -6.4939   -3.7988 H         1 <0>         0.1106
@<TRIPOS>BOND
     1    1    2 1
     2    1   38 1
     3    1   39 1
     4    1   40 1
     5    2    7 ar
     6    2    3 ar
     7    3    4 ar
     8    3   41 1
     9    4    5 ar
    10    4   32 1
    11    5    6 ar
    12    5   42 1
    13    6    7 ar
    14    6   43 1
    15    7    8 1
    16    8   13 ar
    17    8    9 ar
    18    9   10 ar
    19    9   44 1
    20   10   11 ar
    21   10   45 1
    22   11   12 ar
    23   11   14 1
    24   12   13 ar
    25   12   46 1
    26   13   47 1
    27   14   15 2
    28   14   16 am
    29   16   17 1
    30   16   48 1
    31   17   22 ar
    32   17   18 ar
    33   18   19 ar
    34   18   49 1
    35   19   20 ar
    36   19   50 1
    37   20   21 ar
    38   20   30 1
    39   21   22 ar
    40   21   23 1
    41   22   51 1
    42   23   28 1
    43   23   24 1
    44   24   25 1
    45   24   52 1
    46   24   53 1
    47   25   26 1
    48   25   54 1
    49   25   55 1
    50   26   27 1
    51   26   29 1
    52   27   28 1
    53   27   56 1
    54   27   57 1
    55   28   58 1
    56   28   59 1
    57   29   60 1
    58   29   61 1
    59   29   62 1
    60   30   31 1
    61   31   63 1
    62   31   64 1
    63   31   65 1
    64   32   36 2
    65   32   33 1
    66   33   34 2
    67   34   35 1
    68   34   37 1
    69   35   36 1
    70   37   66 1
    71   37   67 1
    72   37   68 1
@<TRIPOS>MOLECULE
ZINC34451922
   61    65     0     0     0
SMALL
USER_CHARGES

@<TRIPOS>ATOM
      1 C1         -0.0312    1.4376    0.0625 C.3       1 <0>        -0.1149
      2 C2         -0.0229   -0.0693    0.0447 C.ar      1 <0>         0.1665
      3 C3         -0.0155   -0.7327   -1.1794 C.ar      1 <0>        -0.1630
      4 C4         -0.0074   -2.0992   -1.2143 C.ar      1 <0>        -0.0625
      5 C5         -0.0068   -2.7940    0.0070 C.ar      1 <0>        -0.1089
      6 C6         -0.0145   -2.0581    1.2176 C.ar      1 <0>         0.1381
      7 N1         -0.0173   -0.7211    1.1825 N.ar      1 <0>        -0.4673
      8 C7         -0.0139   -2.7495    2.4406 C.ar      1 <0>        -0.0799
      9 C8         -0.0055   -4.1115    2.4546 C.ar      1 <0>        -0.0967
     10 C9          0.0026   -4.8435    1.2722 C.ar      1 <0>        -0.1038
     11 C10         0.0018   -4.2041    0.0495 C.ar      1 <0>         0.1607
     12 N2          0.0100   -4.9428   -1.1301 N.pl3     1 <0>        -0.6732
     13 C11         1.2761   -5.3417   -1.7641 C.3       1 <0>         0.1189
     14 C12         1.2238   -4.9473   -3.2438 C.3       1 <0>        -0.0255
     15 N3          0.0263   -5.5297   -3.8626 N.4       1 <0>        -0.3804
     16 C13        -1.1805   -4.9526   -3.2570 C.3       1 <0>        -0.0322
     17 C14        -1.2473   -5.3521   -1.7749 C.3       1 <0>         0.1198
     18 C15         0.0336   -5.2439   -5.3035 C.3       1 <0>        -0.0072
     19 C16        -1.1461   -5.9543   -5.9703 C.3       1 <0>        -0.0971
     20 C17        -1.1386   -5.6610   -7.4485 C.ar      1 <0>        -0.0776
     21 C18        -1.8170   -4.5596   -7.9377 C.ar      1 <0>        -0.1386
     22 C19        -1.8126   -4.2871   -9.2931 C.ar      1 <0>        -0.0804
     23 C20        -1.1300   -5.1148  -10.1632 C.ar      1 <0>        -0.1434
     24 C21        -0.4479   -6.2214   -9.6753 C.ar      1 <0>         0.2020
     25 C22        -0.4497   -6.4892   -8.3125 C.ar      1 <0>        -0.1555
     26 N4          0.2445   -7.0619  -10.5542 N.am      1 <0>        -0.5742
     27 C23         1.0949   -8.1943  -10.1579 C.3       1 <0>         0.0857
     28 C24         1.6017   -8.7621  -11.4979 C.3       1 <0>         0.0889
     29 N5          0.9830   -7.8894  -12.5069 N.am      1 <0>        -0.7318
     30 C25         0.2334   -6.9663  -11.8902 C.2       1 <0>         0.6994
     31 O1         -0.3969   -6.1161  -12.4888 O.2       1 <0>        -0.5594
     32 H1          0.9944    1.8066    0.0650 H         1 <0>         0.0861
     33 H2         -0.5487    1.8085   -0.8223 H         1 <0>         0.0802
     34 H3         -0.5455    1.7876    0.9576 H         1 <0>         0.0841
     35 H4         -0.0165   -0.1684   -2.1002 H         1 <0>         0.1388
     36 H5         -0.0019   -2.6302   -2.1547 H         1 <0>         0.1232
     37 H6         -0.0198   -2.2006    3.3707 H         1 <0>         0.1418
     38 H7         -0.0048   -4.6322    3.4007 H         1 <0>         0.1381
     39 H8          0.0096   -5.9228    1.3114 H         1 <0>         0.1308
     40 H9          2.1065   -4.8299   -1.2777 H         1 <0>         0.1163
     41 H10         1.4054   -6.4205   -1.6769 H         1 <0>         0.0826
     42 H11         1.1855   -3.8614   -3.3293 H         1 <0>         0.1284
     43 H12         2.1133   -5.3208   -3.7511 H         1 <0>         0.1390
     44 H13        -1.1461   -3.8665   -3.3421 H         1 <0>         0.1294
     45 H14        -2.0627   -5.3301   -3.7741 H         1 <0>         0.1406
     46 H15        -1.3685   -6.4320   -1.6889 H         1 <0>         0.0832
     47 H16        -2.0861   -4.8472   -1.2958 H         1 <0>         0.1162
     48 H17        -0.0535   -4.1688   -5.4611 H         1 <0>         0.1311
     49 H18         0.9665   -5.6007   -5.7400 H         1 <0>         0.1329
     50 H19        -1.0590   -7.0293   -5.8127 H         1 <0>         0.0951
     51 H20        -2.0789   -5.5974   -5.5338 H         1 <0>         0.0966
     52 H21        -2.3517   -3.9111   -7.2594 H         1 <0>         0.1244
     53 H22        -2.3436   -3.4264   -9.6721 H         1 <0>         0.1341
     54 H23        -1.1272   -4.9017  -11.2220 H         1 <0>         0.1632
     55 H24         0.0839   -7.3464   -7.9293 H         1 <0>         0.1261
     56 H25         1.9301   -7.8505   -9.5478 H         1 <0>         0.0916
     57 H26         0.5107   -8.9423   -9.6219 H         1 <0>         0.0922
     58 H27         2.6885   -8.7002  -11.5531 H         1 <0>         0.0930
     59 H28         1.2691   -9.7921  -11.6273 H         1 <0>         0.0930
     60 H29         1.0964   -7.9716  -13.4667 H         1 <0>         0.4388
     61 H30         0.0277   -6.5286   -3.7203 H         1 <0>         0.4226
@<TRIPOS>BOND
     1    1    2 1
     2    1   32 1
     3    1   33 1
     4    1   34 1
     5    2    7 ar
     6    2    3 ar
     7    3    4 ar
     8    3   35 1
     9    4    5 ar
    10    4   36 1
    11    5   11 ar
    12    5    6 ar
    13    6    7 ar
    14    6    8 ar
    15    8    9 ar
    16    8   37 1
    17    9   10 ar
    18    9   38 1
    19   10   11 ar
    20   10   39 1
    21   11   12 1
    22   12   17 1
    23   12   13 1
    24   13   14 1
    25   13   40 1
    26   13   41 1
    27   14   15 1
    28   14   42 1
    29   14   43 1
    30   15   16 1
    31   15   18 1
    32   15   61 1
    33   16   17 1
    34   16   44 1
    35   16   45 1
    36   17   46 1
    37   17   47 1
    38   18   19 1
    39   18   48 1
    40   18   49 1
    41   19   20 1
    42   19   50 1
    43   19   51 1
    44   20   25 ar
    45   20   21 ar
    46   21   22 ar
    47   21   52 1
    48   22   23 ar
    49   22   53 1
    50   23   24 ar
    51   23   54 1
    52   24   25 ar
    53   24   26 1
    54   25   55 1
    55   26   30 am
    56   26   27 1
    57   27   28 1
    58   27   56 1
    59   27   57 1
    60   28   29 1
    61   28   58 1
    62   28   59 1
    63   29   30 am
    64   29   60 1
    65   30   31 2
@<TRIPOS>MOLECULE
ZINC34451922
   60    64     0     0     0
SMALL
USER_CHARGES

@<TRIPOS>ATOM
      1 C1         -0.0321    1.4340    0.0669 C.3       1 <0>        -0.1087
      2 C2         -0.0231   -0.0728    0.0484 C.ar      1 <0>         0.1614
      3 C3         -0.0155   -0.7357   -1.1761 C.ar      1 <0>        -0.1790
      4 C4         -0.0069   -2.1021   -1.2116 C.ar      1 <0>        -0.0439
      5 C5         -0.0060   -2.7975    0.0093 C.ar      1 <0>        -0.1162
      6 C6         -0.0140   -2.0623    1.2203 C.ar      1 <0>         0.1383
      7 N1         -0.0173   -0.7252    1.1858 N.ar      1 <0>        -0.4780
      8 C7         -0.0131   -2.7542    2.4430 C.ar      1 <0>        -0.1017
      9 C8         -0.0042   -4.1162    2.4563 C.ar      1 <0>        -0.0895
     10 C9          0.0042   -4.8477    1.2736 C.ar      1 <0>        -0.1280
     11 C10         0.0032   -4.2076    0.0512 C.ar      1 <0>         0.1972
     12 N2          0.0115   -4.9458   -1.1288 N.pl3     1 <0>        -0.6786
     13 C11         1.2784   -5.3431   -1.7618 C.3       1 <0>         0.1496
     14 C12         1.2359   -4.9304   -3.2369 C.3       1 <0>         0.0396
     15 N3          0.0281   -5.4851   -3.8627 N.3       1 <0>        -0.5337
     16 C13        -1.1893   -4.9364   -3.2504 C.3       1 <0>         0.0347
     17 C14        -1.2462   -5.3545   -1.7725 C.3       1 <0>         0.1493
     18 C15         0.0356   -5.2584   -5.3140 C.3       1 <0>         0.0625
     19 C16        -1.0979   -6.0570   -5.9608 C.3       1 <0>        -0.0749
     20 C17        -1.0902   -5.8244   -7.4498 C.ar      1 <0>        -0.0542
     21 C18        -1.8204   -4.7814   -7.9898 C.ar      1 <0>        -0.1431
     22 C19        -1.8159   -4.5647   -9.3553 C.ar      1 <0>        -0.0866
     23 C20        -1.0816   -5.3899  -10.1846 C.ar      1 <0>        -0.1581
     24 C21        -0.3474   -6.4379   -9.6456 C.ar      1 <0>         0.1910
     25 C22        -0.3495   -6.6495   -8.2729 C.ar      1 <0>        -0.1551
     26 N4          0.3976   -7.2758  -10.4831 N.am      1 <0>        -0.5709
     27 C23         1.3021   -8.3444  -10.0332 C.3       1 <0>         0.0845
     28 C24         1.8522   -8.9388  -11.3442 C.3       1 <0>         0.0912
     29 N5          1.1993   -8.1420  -12.3936 N.am      1 <0>        -0.7361
     30 C25         0.3956   -7.2356  -11.8220 C.2       1 <0>         0.6995
     31 O1         -0.2721   -6.4452  -12.4605 O.2       1 <0>        -0.5652
     32 H1          0.9934    1.8035    0.0696 H         1 <0>         0.0813
     33 H2         -0.5496    1.8052   -0.8177 H         1 <0>         0.0768
     34 H3         -0.5465    1.7834    0.9621 H         1 <0>         0.0795
     35 H4         -0.0168   -0.1709   -2.0966 H         1 <0>         0.1342
     36 H5         -0.0012   -2.6326   -2.1523 H         1 <0>         0.1348
     37 H6         -0.0192   -2.2057    3.3733 H         1 <0>         0.1347
     38 H7         -0.0032   -4.6373    3.4022 H         1 <0>         0.1312
     39 H8          0.0116   -5.9269    1.3122 H         1 <0>         0.1282
     40 H9          2.1089   -4.8415   -1.2650 H         1 <0>         0.0717
     41 H10         1.4019   -6.4235   -1.6872 H         1 <0>         0.0627
     42 H11         1.2167   -3.8430   -3.3100 H         1 <0>         0.0346
     43 H12         2.1191   -5.3142   -3.7476 H         1 <0>         0.0822
     44 H13        -1.1747   -3.8489   -3.3233 H         1 <0>         0.0351
     45 H14        -2.0649   -5.3244   -3.7708 H         1 <0>         0.0854
     46 H15        -1.3606   -6.4360   -1.6990 H         1 <0>         0.0631
     47 H16        -2.0854   -4.8605   -1.2829 H         1 <0>         0.0716
     48 H17        -0.1062   -4.1968   -5.5167 H         1 <0>         0.0355
     49 H18         0.9905   -5.5828   -5.7275 H         1 <0>         0.0763
     50 H19        -0.9561   -7.1185   -5.7582 H         1 <0>         0.0819
     51 H20        -2.0528   -5.7326   -5.5474 H         1 <0>         0.0744
     52 H21        -2.3957   -4.1350   -7.3435 H         1 <0>         0.1206
     53 H22        -2.3875   -3.7496   -9.7740 H         1 <0>         0.1267
     54 H23        -1.0788   -5.2204  -11.2512 H         1 <0>         0.1568
     55 H24         0.2243   -7.4609   -7.8501 H         1 <0>         0.1245
     56 H25         2.1115   -7.9321   -9.4307 H         1 <0>         0.0924
     57 H26         0.7524   -9.0998   -9.4716 H         1 <0>         0.0923
     58 H27         2.9348   -8.8217  -11.3927 H         1 <0>         0.0897
     59 H28         1.5757   -9.9893  -11.4336 H         1 <0>         0.0895
     60 H29         1.3270   -8.2573  -13.3482 H         1 <0>         0.4348
@<TRIPOS>BOND
     1    1    2 1
     2    1   32 1
     3    1   33 1
     4    1   34 1
     5    2    7 ar
     6    2    3 ar
     7    3    4 ar
     8    3   35 1
     9    4    5 ar
    10    4   36 1
    11    5   11 ar
    12    5    6 ar
    13    6    7 ar
    14    6    8 ar
    15    8    9 ar
    16    8   37 1
    17    9   10 ar
    18    9   38 1
    19   10   11 ar
    20   10   39 1
    21   11   12 1
    22   12   17 1
    23   12   13 1
    24   13   14 1
    25   13   40 1
    26   13   41 1
    27   14   15 1
    28   14   42 1
    29   14   43 1
    30   15   16 1
    31   15   18 1
    32   16   17 1
    33   16   44 1
    34   16   45 1
    35   17   46 1
    36   17   47 1
    37   18   19 1
    38   18   48 1
    39   18   49 1
    40   19   20 1
    41   19   50 1
    42   19   51 1
    43   20   25 ar
    44   20   21 ar
    45   21   22 ar
    46   21   52 1
    47   22   23 ar
    48   22   53 1
    49   23   24 ar
    50   23   54 1
    51   24   25 ar
    52   24   26 1
    53   25   55 1
    54   26   30 am
    55   26   27 1
    56   27   28 1
    57   27   56 1
    58   27   57 1
    59   28   29 1
    60   28   58 1
    61   28   59 1
    62   29   30 am
    63   29   60 1
    64   30   31 2
@<TRIPOS>MOLECULE
ZINC34451922
   62    66     0     0     0
SMALL
USER_CHARGES

@<TRIPOS>ATOM
      1 C1         -0.0312    1.4376    0.0625 C.3       1 <0>        -0.1610
      2 C2         -0.0229   -0.0693    0.0447 C.ar      1 <0>         0.2542
      3 C3         -0.0155   -0.7327   -1.1794 C.ar      1 <0>        -0.1670
      4 C4         -0.0074   -2.0992   -1.2143 C.ar      1 <0>         0.0386
      5 C5         -0.0068   -2.7940    0.0070 C.ar      1 <0>        -0.0964
      6 C6         -0.0145   -2.0581    1.2176 C.ar      1 <0>         0.1451
      7 N1         -0.0173   -0.7211    1.1825 N.ar      1 <0>        -0.4584
      8 C7         -0.0139   -2.7495    2.4406 C.ar      1 <0>        -0.1305
      9 C8         -0.0055   -4.1115    2.4546 C.ar      1 <0>        -0.0263
     10 C9          0.0026   -4.8435    1.2722 C.ar      1 <0>        -0.0895
     11 C10         0.0018   -4.2041    0.0495 C.ar      1 <0>         0.2051
     12 N2          0.0100   -4.9428   -1.1301 N.pl3     1 <0>        -0.6830
     13 C11         1.2761   -5.3417   -1.7641 C.3       1 <0>         0.1133
     14 C12         1.2238   -4.9473   -3.2438 C.3       1 <0>        -0.0251
     15 N3          0.0263   -5.5297   -3.8626 N.4       1 <0>        -0.3836
     16 C13        -1.1805   -4.9526   -3.2570 C.3       1 <0>        -0.0322
     17 C14        -1.2473   -5.3521   -1.7749 C.3       1 <0>         0.1142
     18 C15         0.0336   -5.2439   -5.3035 C.3       1 <0>        -0.0083
     19 C16        -1.1461   -5.9543   -5.9703 C.3       1 <0>        -0.0958
     20 C17        -1.1386   -5.6610   -7.4485 C.ar      1 <0>        -0.0824
     21 C18        -1.8170   -4.5596   -7.9377 C.ar      1 <0>        -0.1409
     22 C19        -1.8126   -4.2871   -9.2931 C.ar      1 <0>        -0.0796
     23 C20        -1.1300   -5.1148  -10.1632 C.ar      1 <0>        -0.1415
     24 C21        -0.4479   -6.2214   -9.6753 C.ar      1 <0>         0.2063
     25 C22        -0.4497   -6.4892   -8.3125 C.ar      1 <0>        -0.1564
     26 N4          0.2445   -7.0619  -10.5542 N.am      1 <0>        -0.5752
     27 C23         1.0949   -8.1943  -10.1579 C.3       1 <0>         0.0862
     28 C24         1.6017   -8.7621  -11.4979 C.3       1 <0>         0.0880
     29 N5          0.9830   -7.8894  -12.5069 N.am      1 <0>        -0.7302
     30 C25         0.2334   -6.9663  -11.8902 C.2       1 <0>         0.6992
     31 O1         -0.3969   -6.1161  -12.4888 O.2       1 <0>        -0.5578
     32 H1          0.9944    1.8066    0.0650 H         1 <0>         0.1292
     33 H2         -0.5487    1.8085   -0.8223 H         1 <0>         0.1262
     34 H3         -0.5455    1.7876    0.9576 H         1 <0>         0.1073
     35 H4         -0.0165   -0.1684   -2.1002 H         1 <0>         0.1869
     36 H5         -0.0019   -2.6302   -2.1547 H         1 <0>         0.1595
     37 H6         -0.0198   -2.2006    3.3707 H         1 <0>         0.1627
     38 H7         -0.0048   -4.6322    3.4007 H         1 <0>         0.1641
     39 H8          0.0096   -5.9228    1.3114 H         1 <0>         0.1565
     40 H9          2.1065   -4.8299   -1.2777 H         1 <0>         0.1196
     41 H10         1.4054   -6.4205   -1.6769 H         1 <0>         0.0952
     42 H11         1.1855   -3.8614   -3.3293 H         1 <0>         0.1261
     43 H12         2.1133   -5.3208   -3.7511 H         1 <0>         0.1471
     44 H13        -1.1461   -3.8665   -3.3421 H         1 <0>         0.1272
     45 H14        -2.0627   -5.3301   -3.7741 H         1 <0>         0.1488
     46 H15        -1.3685   -6.4320   -1.6889 H         1 <0>         0.0958
     47 H16        -2.0861   -4.8472   -1.2958 H         1 <0>         0.1195
     48 H17        -0.0535   -4.1688   -5.4611 H         1 <0>         0.1321
     49 H18         0.9665   -5.6007   -5.7400 H         1 <0>         0.1368
     50 H19        -1.0590   -7.0293   -5.8127 H         1 <0>         0.0966
     51 H20        -2.0789   -5.5974   -5.5338 H         1 <0>         0.0955
     52 H21        -2.3517   -3.9111   -7.2594 H         1 <0>         0.1224
     53 H22        -2.3436   -3.4264   -9.6721 H         1 <0>         0.1347
     54 H23        -1.1272   -4.9017  -11.2220 H         1 <0>         0.1647
     55 H24         0.0839   -7.3464   -7.9293 H         1 <0>         0.1263
     56 H25         1.9301   -7.8505   -9.5478 H         1 <0>         0.0912
     57 H26         0.5107   -8.9423   -9.6219 H         1 <0>         0.0923
     58 H27         2.6885   -8.7002  -11.5531 H         1 <0>         0.0940
     59 H28         1.2691   -9.7921  -11.6273 H         1 <0>         0.0943
     60 H29         1.0964   -7.9716  -13.4667 H         1 <0>         0.4403
     61 H30         0.0277   -6.5286   -3.7203 H         1 <0>         0.4274
     62 H31        -0.0190   -0.2237    2.0152 H         1 <0>         0.4506
@<TRIPOS>BOND
     1    1    2 1
     2    1   32 1
     3    1   33 1
     4    1   34 1
     5    2    7 ar
     6    2    3 ar
     7    3    4 ar
     8    3   35 1
     9    4    5 ar
    10    4   36 1
    11    5   11 ar
    12    5    6 ar
    13    6    7 ar
    14    6    8 ar
    15    7   62 1
    16    8    9 ar
    17    8   37 1
    18    9   10 ar
    19    9   38 1
    20   10   11 ar
    21   10   39 1
    22   11   12 1
    23   12   17 1
    24   12   13 1
    25   13   14 1
    26   13   40 1
    27   13   41 1
    28   14   15 1
    29   14   42 1
    30   14   43 1
    31   15   16 1
    32   15   18 1
    33   15   61 1
    34   16   17 1
    35   16   44 1
    36   16   45 1
    37   17   46 1
    38   17   47 1
    39   18   19 1
    40   18   48 1
    41   18   49 1
    42   19   20 1
    43   19   50 1
    44   19   51 1
    45   20   25 ar
    46   20   21 ar
    47   21   22 ar
    48   21   52 1
    49   22   23 ar
    50   22   53 1
    51   23   24 ar
    52   23   54 1
    53   24   25 ar
    54   24   26 1
    55   25   55 1
    56   26   30 am
    57   26   27 1
    58   27   28 1
    59   27   56 1
    60   27   57 1
    61   28   29 1
    62   28   58 1
    63   28   59 1
    64   29   30 am
    65   29   60 1
    66   30   31 2
@<TRIPOS>MOLECULE
ZINC00347781
   35    37     0     0     0
SMALL
USER_CHARGES
2-(methylBLAHyl)ethanamine
@<TRIPOS>ATOM
      1 C1          1.7411   -1.8531   -0.0162 C.3       1 <0>        -0.1052
      2 C2          1.2936   -0.4141   -0.0086 C.2       1 <0>         0.1245
      3 C3          2.1238    0.6549   -0.0109 C.2       1 <0>        -0.2175
      4 C4          1.2901    1.8572   -0.0003 C.ar      1 <0>        -0.0818
      5 C5          1.4732    3.2422    0.0020 C.ar      1 <0>        -0.0893
      6 C6          0.3800    4.0671    0.0147 C.ar      1 <0>        -0.1266
      7 C7         -0.9238    3.5709    0.0265 C.ar      1 <0>        -0.0972
      8 C8         -1.1286    2.2191    0.0300 C.ar      1 <0>        -0.0818
      9 C9         -0.0167    1.3810    0.0096 C.ar      1 <0>         0.0729
     10 N1          0.0021   -0.0041    0.0020 N.pl3     1 <0>        -0.4737
     11 C10        -1.2747   -0.7301    0.0037 C.3       1 <0>         0.1103
     12 C11        -2.3445    0.1615   -0.6333 C.3       1 <0>        -0.1348
     13 C12        -2.4644    1.5253    0.0543 C.3       1 <0>        -0.0831
     14 C13         3.6302    0.6142   -0.0227 C.3       1 <0>        -0.0575
     15 C14         4.1288    0.6059   -1.4691 C.3       1 <0>        -0.0041
     16 H1          1.8416   -2.1969   -1.0456 H         1 <0>         0.0808
     17 H2          2.7026   -1.9372    0.4905 H         1 <0>         0.0847
     18 H3          1.0030   -2.4659    0.5012 H         1 <0>         0.0761
     19 H4          2.4694    3.6593   -0.0057 H         1 <0>         0.1189
     20 H5          0.5321    5.1363    0.0153 H         1 <0>         0.1247
     21 H6         -1.7644    4.2489    0.0363 H         1 <0>         0.1316
     22 H7         -1.1725   -1.6522   -0.5684 H         1 <0>         0.0939
     23 H8         -1.5629   -0.9618    1.0291 H         1 <0>         0.0848
     24 H9         -3.3069   -0.3471   -0.5774 H         1 <0>         0.0956
     25 H10        -2.0888    0.3167   -1.6815 H         1 <0>         0.0729
     26 H11        -2.7819    1.3845    1.0875 H         1 <0>         0.0833
     27 H12        -3.1996    2.1341   -0.4719 H         1 <0>         0.0888
     28 H13         4.0214    1.4920    0.4915 H         1 <0>         0.0914
     29 H14         3.9733   -0.2873    0.4850 H         1 <0>         0.0882
     30 H15         3.7376   -0.2719   -1.9833 H         1 <0>         0.1287
     31 H16         3.7857    1.5074   -1.9768 H         1 <0>         0.1347
     32 H17         5.9514    0.5601   -2.4254 H         1 <0>         0.4390
     33 H18         5.9839    1.3355   -0.9545 H         1 <0>         0.4368
     34 N2          5.6011    0.5441   -1.4690 N.4       1 <0>        -0.6478
     35 H19         5.9022   -0.3270   -1.0165 H         1 <0>         0.4378
@<TRIPOS>BOND
     1    1    2 1
     2    1   16 1
     3    1   17 1
     4    1   18 1
     5    2   10 1
     6    2    3 2
     7    3    4 1
     8    3   14 1
     9    4    9 ar
    10    4    5 ar
    11    5    6 ar
    12    5   19 1
    13    6    7 ar
    14    6   20 1
    15    7    8 ar
    16    7   21 1
    17    8   13 1
    18    8    9 ar
    19    9   10 1
    20   10   11 1
    21   11   12 1
    22   11   22 1
    23   11   23 1
    24   12   13 1
    25   12   24 1
    26   12   25 1
    27   13   26 1
    28   13   27 1
    29   14   15 1
    30   14   28 1
    31   14   29 1
    32   15   30 1
    33   15   31 1
    34   15   34 1
    35   32   34 1
    36   33   34 1
    37   34   35 1
@<TRIPOS>MOLECULE
ZINC22014599
   32    34     0     0     0
SMALL
USER_CHARGES
2-BLAHylethanamine
@<TRIPOS>ATOM
      1 C1          1.1717    2.0943    0.0021 C.ar      1 <0>        -0.1308
      2 C2         -0.0165    1.3656    0.0096 C.ar      1 <0>        -0.0974
      3 C3          0.0021   -0.0041    0.0020 C.ar      1 <0>        -0.0822
      4 C4          1.2603   -0.6010   -0.0119 C.ar      1 <0>         0.0722
      5 C5          2.4661    0.1165   -0.0210 C.ar      1 <0>        -0.0886
      6 C6          2.4198    1.5136   -0.0132 C.ar      1 <0>        -0.0864
      7 C7          3.5004   -0.8998   -0.0364 C.2       1 <0>        -0.2118
      8 C8          2.8816   -2.1080   -0.0342 C.2       1 <0>         0.0839
      9 N1          1.5311   -1.9467   -0.0180 N.pl3     1 <0>        -0.4722
     10 C9          0.4238   -2.9124   -0.0062 C.3       1 <0>         0.1095
     11 C10        -0.7872   -2.2558    0.6685 C.3       1 <0>        -0.1361
     12 C11        -1.1779   -0.9303    0.0048 C.3       1 <0>        -0.0838
     13 C12         4.9880   -0.6590   -0.0511 C.3       1 <0>        -0.0579
     14 C13         5.4866   -0.4598    1.3816 C.3       1 <0>        -0.0013
     15 N2          6.9367   -0.2251    1.3672 N.4       1 <0>        -0.6878
     16 H1          1.1099    3.1725    0.0090 H         1 <0>         0.1206
     17 H2         -0.9624    1.8868    0.0168 H         1 <0>         0.1280
     18 H3          3.3207    2.1093   -0.0194 H         1 <0>         0.1252
     19 H4          3.3891   -3.0613   -0.0433 H         1 <0>         0.1660
     20 H5          0.1714   -3.1935   -1.0393 H         1 <0>         0.0877
     21 H6          0.7255   -3.8094    0.5545 H         1 <0>         0.0965
     22 H7         -1.6518   -2.9332    0.6094 H         1 <0>         0.0978
     23 H8         -0.5530   -2.0514    1.7237 H         1 <0>         0.0750
     24 H9         -2.0044   -0.4695    0.5657 H         1 <0>         0.0903
     25 H10        -1.4980   -1.1195   -1.0304 H         1 <0>         0.0845
     26 H11         5.4954   -1.5263   -0.4987 H         1 <0>         0.0878
     27 H12         5.2080    0.2408   -0.6443 H         1 <0>         0.0897
     28 H13         4.9792    0.4075    1.8291 H         1 <0>         0.1277
     29 H14         5.2666   -1.3596    1.9748 H         1 <0>         0.1259
     30 H15         7.2952   -0.0819    2.3972 H         1 <0>         0.4582
     31 H16         7.1566    0.6747    0.7740 H         1 <0>         0.4553
     32 H17         7.4441   -1.0924    0.9196 H         1 <0>         0.4544
@<TRIPOS>BOND
     1    1    6 ar
     2    1    2 ar
     3    1   16 1
     4    2    3 ar
     5    2   17 1
     6    3   12 1
     7    3    4 ar
     8    4    9 1
     9    4    5 ar
    10    5    6 ar
    11    5    7 1
    12    6   18 1
    13    7    8 2
    14    7   13 1
    15    8    9 1
    16    8   19 1
    17    9   10 1
    18   10   11 1
    19   10   20 1
    20   10   21 1
    21   11   12 1
    22   11   22 1
    23   11   23 1
    24   12   24 1
    25   12   25 1
    26   13   14 1
    27   13   26 1
    28   13   27 1
    29   14   15 1
    30   14   28 1
    31   14   29 1
    32   15   30 1
    33   15   31 1
    34   15   32 1
@<TRIPOS>MOLECULE
ZINC03775140
   62    64     0     0     0
SMALL
USER_CHARGES

@<TRIPOS>ATOM
      1 C1         -0.0173    1.4248    0.0099 C.3       1 <0>         0.0171
      2 O1          0.0021   -0.0041    0.0020 O.3       1 <0>        -0.2760
      3 C2          0.6048   -0.6061   -1.0540 C.ar      1 <0>         0.2490
      4 C3          1.1714    0.1577   -2.0595 C.ar      1 <0>        -0.2968
      5 C4          1.7875   -0.4643   -3.1379 C.ar      1 <0>         0.3045
      6 C5          1.8368   -1.8562   -3.2112 C.ar      1 <0>        -0.1599
      7 C6          1.2804   -2.6188   -2.2247 C.ar      1 <0>         0.0104
      8 C7          0.6619   -2.0064   -1.1291 C.ar      1 <0>        -0.2378
      9 C8          0.0677   -2.8282   -0.0619 C.2       1 <0>         0.5777
     10 O2         -0.4739   -2.2937    0.8871 O.2       1 <0>        -0.5075
     11 N1          0.1238   -4.1727   -0.1363 N.am      1 <0>        -0.7330
     12 C9         -0.4675   -4.9905    0.9257 C.3       1 <0>         0.1404
     13 H1         -1.3642   -4.5012    1.3060 H         1 <0>         0.1248
     14 C10         0.5437   -5.1622    2.0629 C.3       1 <0>        -0.1546
     15 C11         1.7671   -5.9184    1.5404 C.3       1 <0>        -0.0167
     16 N2          1.3566   -7.2378    1.0453 N.4       1 <0>        -0.3759
     17 C12         0.4423   -7.0806   -0.0921 C.3       1 <0>        -0.0388
     18 C13        -0.8339   -6.3685    0.3670 C.3       1 <0>         0.0659
     19 H2         -1.3203   -6.9585    1.1438 H         1 <0>         0.1015
     20 O3         -1.7219   -6.2131   -0.7418 O.3       1 <0>        -0.3502
     21 C14        -2.6322   -7.3011   -0.9143 C.3       1 <0>         0.0179
     22 C15         2.5438   -7.9895    0.6171 C.3       1 <0>        -0.0062
     23 C16         3.4343   -8.2703    1.8292 C.3       1 <0>        -0.1507
     24 C17         4.6708   -9.0533    1.3832 C.3       1 <0>         0.0614
     25 O4          5.5024   -9.3155    2.5152 O.3       1 <0>        -0.3099
     26 C18         6.6507  -10.0076    2.2904 C.ar      1 <0>         0.1104
     27 C19         6.9722  -10.4203    1.0058 C.ar      1 <0>        -0.1786
     28 C20         8.1394  -11.1237    0.7787 C.ar      1 <0>        -0.1136
     29 C21         8.9878  -11.4170    1.8328 C.ar      1 <0>         0.0730
     30 C22         8.6679  -11.0061    3.1156 C.ar      1 <0>        -0.1109
     31 C23         7.5046  -10.2969    3.3445 C.ar      1 <0>        -0.1156
     32 F1         10.1287  -12.1053    1.6094 F         1 <0>        -0.1339
     33 Cl1         2.6089   -2.6229   -4.5639 Cl        1 <0>        -0.0623
     34 N3          2.3569    0.3038   -4.1485 N.pl3     1 <0>        -0.8495
     35 H3          1.0053    1.8021    0.0021 H         1 <0>         0.0609
     36 H4         -0.5445    1.7859   -0.8732 H         1 <0>         0.0614
     37 H5         -0.5275    1.7763    0.9067 H         1 <0>         0.1085
     38 H6          1.1342    1.2357   -2.0059 H         1 <0>         0.1464
     39 H7          1.3215   -3.6961   -2.2880 H         1 <0>         0.1333
     40 H8          0.5557   -4.5989   -0.8931 H         1 <0>         0.3942
     41 H9          0.8503   -4.1821    2.4284 H         1 <0>         0.1283
     42 H10         0.0859   -5.7273    2.8748 H         1 <0>         0.1026
     43 H11         2.2242   -5.3523    0.7288 H         1 <0>         0.1317
     44 H12         2.4891   -6.0421    2.3475 H         1 <0>         0.1399
     45 H13         0.9276   -6.4898   -0.8690 H         1 <0>         0.1341
     46 H14         0.1862   -8.0624   -0.4903 H         1 <0>         0.1380
     47 H15        -2.0715   -8.2215   -1.0778 H         1 <0>         0.0481
     48 H16        -3.2481   -7.4047   -0.0210 H         1 <0>         0.0566
     49 H17        -3.2712   -7.1071   -1.7758 H         1 <0>         0.1042
     50 H18         2.2339   -8.9329    0.1676 H         1 <0>         0.1368
     51 H19         3.1003   -7.4039   -0.1147 H         1 <0>         0.1356
     52 H20         3.7442   -7.3269    2.2786 H         1 <0>         0.1012
     53 H21         2.8778   -8.8559    2.5610 H         1 <0>         0.1013
     54 H22         4.3608   -9.9967    0.9337 H         1 <0>         0.0740
     55 H23         5.2272   -8.4676    0.6514 H         1 <0>         0.0740
     56 H24         6.3103  -10.1922    0.1835 H         1 <0>         0.1353
     57 H25         8.3900  -11.4451   -0.2214 H         1 <0>         0.1422
     58 H26         9.3304  -11.2359    3.9370 H         1 <0>         0.1482
     59 H27         7.2577   -9.9722    4.3445 H         1 <0>         0.1439
     60 H28         2.3233    1.2719   -4.0992 H         1 <0>         0.4097
     61 H29         2.7876   -0.1289   -4.9023 H         1 <0>         0.4089
     62 H30         0.8896   -7.7426    1.7837 H         1 <0>         0.4252
@<TRIPOS>BOND
     1    1    2 1
     2    1   35 1
     3    1   36 1
     4    1   37 1
     5    2    3 1
     6    3    8 ar
     7    3    4 ar
     8    4    5 ar
     9    4   38 1
    10    5    6 ar
    11    5   34 1
    12    6    7 ar
    13    6   33 1
    14    7    8 ar
    15    7   39 1
    16    8    9 1
    17    9   10 2
    18    9   11 am
    19   11   12 1
    20   11   40 1
    21   12   13 1
    22   12   18 1
    23   12   14 1
    24   14   15 1
    25   14   41 1
    26   14   42 1
    27   15   16 1
    28   15   43 1
    29   15   44 1
    30   16   17 1
    31   16   22 1
    32   16   62 1
    33   17   18 1
    34   17   45 1
    35   17   46 1
    36   18   19 1
    37   18   20 1
    38   20   21 1
    39   21   47 1
    40   21   48 1
    41   21   49 1
    42   22   23 1
    43   22   50 1
    44   22   51 1
    45   23   24 1
    46   23   52 1
    47   23   53 1
    48   24   25 1
    49   24   54 1
    50   24   55 1
    51   25   26 1
    52   26   31 ar
    53   26   27 ar
    54   27   28 ar
    55   27   56 1
    56   28   29 ar
    57   28   57 1
    58   29   30 ar
    59   29   32 1
    60   30   31 ar
    61   30   58 1
    62   31   59 1
    63   34   60 1
    64   34   61 1
@<TRIPOS>MOLECULE
ZINC03830564
   62    64     0     0     0
SMALL
USER_CHARGES

@<TRIPOS>ATOM
      1 C1         -0.0173    1.4248    0.0099 C.3       1 <0>         0.0173
      2 O1          0.0021   -0.0041    0.0020 O.3       1 <0>        -0.2768
      3 C2          0.6048   -0.6061   -1.0540 C.ar      1 <0>         0.2482
      4 C3          1.1714    0.1577   -2.0595 C.ar      1 <0>        -0.2974
      5 C4          1.7875   -0.4643   -3.1379 C.ar      1 <0>         0.3044
      6 C5          1.8368   -1.8562   -3.2112 C.ar      1 <0>        -0.1594
      7 C6          1.2804   -2.6188   -2.2247 C.ar      1 <0>         0.0124
      8 C7          0.6619   -2.0064   -1.1291 C.ar      1 <0>        -0.2376
      9 C8          0.0677   -2.8282   -0.0619 C.2       1 <0>         0.5803
     10 O2         -0.4739   -2.2937    0.8871 O.2       1 <0>        -0.5144
     11 N1          0.1238   -4.1727   -0.1363 N.am      1 <0>        -0.7279
     12 C9         -0.4675   -4.9905    0.9257 C.3       1 <0>         0.1426
     13 H1         -0.3382   -4.4904    1.8855 H         1 <0>         0.1147
     14 C10        -1.9606   -5.1884    0.6484 C.3       1 <0>        -0.1574
     15 C11        -2.5547   -6.1082    1.7173 C.3       1 <0>        -0.0121
     16 N2         -1.8729   -7.4076    1.6837 N.4       1 <0>        -0.3780
     17 C12        -0.4544   -7.2346    2.0193 C.3       1 <0>        -0.0308
     18 C13         0.2219   -6.3574    0.9634 C.3       1 <0>         0.0634
     19 H2          0.1375   -6.8346   -0.0130 H         1 <0>         0.0897
     20 O3          1.6015   -6.1871    1.2946 O.3       1 <0>        -0.3498
     21 C14         2.4612   -7.1803    0.7321 C.3       1 <0>         0.0175
     22 C15        -2.4981   -8.3123    2.6576 C.3       1 <0>        -0.0056
     23 C16        -3.9400   -8.5999    2.2341 C.3       1 <0>        -0.1510
     24 C17        -4.5912   -9.5422    3.2484 C.3       1 <0>         0.0612
     25 O4         -5.9378   -9.8107    2.8528 O.3       1 <0>        -0.3101
     26 C18        -6.6627  -10.6375    3.6523 C.ar      1 <0>         0.1103
     27 C19        -6.0908  -11.1740    4.7964 C.ar      1 <0>        -0.1786
     28 C20        -6.8286  -12.0140    5.6079 C.ar      1 <0>        -0.1136
     29 C21        -8.1381  -12.3209    5.2793 C.ar      1 <0>         0.0729
     30 C22        -8.7100  -11.7865    4.1373 C.ar      1 <0>        -0.1110
     31 C23        -7.9767  -10.9409    3.3276 C.ar      1 <0>        -0.1157
     32 F1         -8.8583  -13.1429    6.0736 F         1 <0>        -0.1339
     33 Cl1         2.6089   -2.6229   -4.5639 Cl        1 <0>        -0.0612
     34 N3          2.3569    0.3038   -4.1485 N.pl3     1 <0>        -0.8498
     35 H3          1.0053    1.8021    0.0021 H         1 <0>         0.0610
     36 H4         -0.5445    1.7859   -0.8732 H         1 <0>         0.0608
     37 H5         -0.5275    1.7763    0.9067 H         1 <0>         0.1075
     38 H6          1.1342    1.2357   -2.0059 H         1 <0>         0.1460
     39 H7          1.3215   -3.6961   -2.2880 H         1 <0>         0.1366
     40 H8          0.5557   -4.5989   -0.8931 H         1 <0>         0.4011
     41 H9         -2.4669   -4.2235    0.6762 H         1 <0>         0.1280
     42 H10        -2.0914   -5.6407   -0.3346 H         1 <0>         0.0936
     43 H11        -2.4236   -5.6548    2.6998 H         1 <0>         0.1373
     44 H12        -3.6177   -6.2510    1.5230 H         1 <0>         0.1408
     45 H13        -0.3681   -6.7573    2.9954 H         1 <0>         0.1434
     46 H14         0.0331   -8.2090    2.0480 H         1 <0>         0.1370
     47 H15         2.1631   -8.1650    1.0923 H         1 <0>         0.0484
     48 H16         2.3857   -7.1529   -0.3549 H         1 <0>         0.0550
     49 H17         3.4905   -6.9808    1.0300 H         1 <0>         0.1046
     50 H18        -1.9380   -9.2465    2.6975 H         1 <0>         0.1365
     51 H19        -2.4951   -7.8445    3.6421 H         1 <0>         0.1371
     52 H20        -4.5001   -7.6657    2.1942 H         1 <0>         0.1015
     53 H21        -3.9430   -9.0676    1.2495 H         1 <0>         0.1005
     54 H22        -4.0310  -10.4764    3.2882 H         1 <0>         0.0740
     55 H23        -4.5881   -9.0744    4.2329 H         1 <0>         0.0745
     56 H24        -5.0691  -10.9353    5.0526 H         1 <0>         0.1356
     57 H25        -6.3836  -12.4318    6.4989 H         1 <0>         0.1423
     58 H26        -9.7315  -12.0270    3.8820 H         1 <0>         0.1482
     59 H27        -8.4246  -10.5203    2.4394 H         1 <0>         0.1438
     60 H28         2.3233    1.2719   -4.0992 H         1 <0>         0.4092
     61 H29         2.7876   -0.1289   -4.9023 H         1 <0>         0.4089
     62 H30        -1.9528   -7.8044    0.7595 H         1 <0>         0.4239
@<TRIPOS>BOND
     1    1    2 1
     2    1   35 1
     3    1   36 1
     4    1   37 1
     5    2    3 1
     6    3    8 ar
     7    3    4 ar
     8    4    5 ar
     9    4   38 1
    10    5    6 ar
    11    5   34 1
    12    6    7 ar
    13    6   33 1
    14    7    8 ar
    15    7   39 1
    16    8    9 1
    17    9   10 2
    18    9   11 am
    19   11   12 1
    20   11   40 1
    21   12   13 1
    22   12   18 1
    23   12   14 1
    24   14   15 1
    25   14   41 1
    26   14   42 1
    27   15   16 1
    28   15   43 1
    29   15   44 1
    30   16   17 1
    31   16   22 1
    32   16   62 1
    33   17   18 1
    34   17   45 1
    35   17   46 1
    36   18   19 1
    37   18   20 1
    38   20   21 1
    39   21   47 1
    40   21   48 1
    41   21   49 1
    42   22   23 1
    43   22   50 1
    44   22   51 1
    45   23   24 1
    46   23   52 1
    47   23   53 1
    48   24   25 1
    49   24   54 1
    50   24   55 1
    51   25   26 1
    52   26   31 ar
    53   26   27 ar
    54   27   28 ar
    55   27   56 1
    56   28   29 ar
    57   28   57 1
    58   29   30 ar
    59   29   32 1
    60   30   31 ar
    61   30   58 1
    62   31   59 1
    63   34   60 1
    64   34   61 1
@<TRIPOS>MOLECULE
ZINC52619107
   59    62     0     0     0
SMALL
USER_CHARGES

@<TRIPOS>ATOM
      1 C1         -0.0167    1.3800    0.0096 C.ar      1 <0>        -0.0718
      2 C2          1.1935    2.0589    0.0017 C.ar      1 <0>        -0.1708
      3 C3          2.3747    1.3394   -0.0134 C.ar      1 <0>         0.1057
      4 N1          2.3643    0.0223   -0.0208 N.ar      1 <0>        -0.4761
      5 C4          1.2291   -0.6644   -0.0137 C.ar      1 <0>         0.1591
      6 C5          0.0021   -0.0041    0.0020 C.ar      1 <0>        -0.1591
      7 C6          1.2664   -2.1468   -0.0230 C.ar      1 <0>        -0.0227
      8 C7          0.0760   -2.8740   -0.0213 C.ar      1 <0>        -0.1086
      9 C8          0.1095   -4.2506   -0.0295 C.ar      1 <0>        -0.0602
     10 C9          1.3360   -4.9187   -0.0400 C.ar      1 <0>        -0.1263
     11 C10         2.5274   -4.1897   -0.0421 C.ar      1 <0>        -0.0900
     12 C11         2.4917   -2.8132   -0.0392 C.ar      1 <0>        -0.0872
     13 C12         1.3732   -6.3961   -0.0483 C.2       1 <0>         0.5581
     14 O1          0.3360   -7.0302   -0.0460 O.2       1 <0>        -0.5332
     15 N2          2.5569   -7.0404   -0.0583 N.am      1 <0>        -0.7231
     16 C13         2.5937   -8.5049   -0.0666 C.3       1 <0>         0.1519
     17 C14         4.0267   -8.9713   -0.0771 C.2       1 <0>        -0.1829
     18 C15         4.4532   -9.7979    0.8454 C.2       1 <0>        -0.1138
     19 C16         5.8862  -10.2643    0.8349 C.3       1 <0>         0.0804
     20 N3          6.5056   -9.9726    2.1346 N.3       1 <0>        -0.5294
     21 C17         6.6037   -8.5239    2.3577 C.3       1 <0>         0.0395
     22 C18         7.0840   -8.2623    3.7892 C.3       1 <0>         0.1519
     23 N4          8.3309   -9.0111    4.0078 N.pl3     1 <0>        -0.6750
     24 C19         8.3497  -10.4437    3.6756 C.3       1 <0>         0.1521
     25 C20         7.8196  -10.6195    2.2486 C.3       1 <0>         0.0385
     26 C21         9.4675   -8.3781    4.5182 C.ar      1 <0>         0.1934
     27 C22         9.6818   -8.3321    5.8897 C.ar      1 <0>        -0.1091
     28 C23        10.8059   -7.7060    6.3917 C.ar      1 <0>        -0.0961
     29 C24        11.7187   -7.1246    5.5309 C.ar      1 <0>        -0.1045
     30 C25        11.5093   -7.1675    4.1636 C.ar      1 <0>        -0.0286
     31 C26        10.3887   -7.7984    3.6542 C.ar      1 <0>        -0.0428
     32 Cl1        10.1296   -7.8592    1.9388 Cl        1 <0>        -0.0438
     33 Cl2        12.6577   -6.4358    3.0868 Cl        1 <0>        -0.0489
     34 H1         -0.9522    1.9194    0.0259 H         1 <0>         0.1389
     35 H2          1.2130    3.1387    0.0070 H         1 <0>         0.1383
     36 H3          3.3183    1.8647   -0.0196 H         1 <0>         0.1604
     37 H4         -0.9212   -0.5643    0.0082 H         1 <0>         0.1395
     38 H5         -0.8722   -2.3571   -0.0132 H         1 <0>         0.1352
     39 H6         -0.8122   -4.8134   -0.0275 H         1 <0>         0.1417
     40 H7          3.4763   -4.7055   -0.0502 H         1 <0>         0.1287
     41 H8          3.4128   -2.2492   -0.0453 H         1 <0>         0.1423
     42 H9          3.3845   -6.5344   -0.0601 H         1 <0>         0.4011
     43 H10         2.0941   -8.8859    0.8241 H         1 <0>         0.0749
     44 H11         2.0843   -8.8762   -0.9558 H         1 <0>         0.0778
     45 H12         4.7020   -8.6241   -0.8451 H         1 <0>         0.1143
     46 H13         3.7779  -10.1451    1.6134 H         1 <0>         0.1204
     47 H14         5.9174  -11.3381    0.6504 H         1 <0>         0.0869
     48 H15         6.4318   -9.7443    0.0475 H         1 <0>         0.0387
     49 H16         7.3142   -8.0945    1.6514 H         1 <0>         0.0400
     50 H17         5.6249   -8.0666    2.2131 H         1 <0>         0.0812
     51 H18         7.2683   -7.1966    3.9245 H         1 <0>         0.0710
     52 H19         6.3261   -8.5984    4.4968 H         1 <0>         0.0626
     53 H20         9.3708  -10.8202    3.7358 H         1 <0>         0.0720
     54 H21         7.7135  -10.9895    4.3723 H         1 <0>         0.0634
     55 H22         7.7226  -11.6819    2.0249 H         1 <0>         0.0813
     56 H23         8.5132  -10.1608    1.5439 H         1 <0>         0.0409
     57 H24         8.9696   -8.7854    6.5633 H         1 <0>         0.1388
     58 H25        10.9721   -7.6701    7.4582 H         1 <0>         0.1404
     59 H26        12.5967   -6.6358    5.9265 H         1 <0>         0.1425
@<TRIPOS>BOND
     1    1    6 ar
     2    1    2 ar
     3    1   34 1
     4    2    3 ar
     5    2   35 1
     6    3    4 ar
     7    3   36 1
     8    4    5 ar
     9    5    6 ar
    10    5    7 1
    11    6   37 1
    12    7   12 ar
    13    7    8 ar
    14    8    9 ar
    15    8   38 1
    16    9   10 ar
    17    9   39 1
    18   10   11 ar
    19   10   13 1
    20   11   12 ar
    21   11   40 1
    22   12   41 1
    23   13   14 2
    24   13   15 am
    25   15   16 1
    26   15   42 1
    27   16   17 1
    28   16   43 1
    29   16   44 1
    30   17   18 2
    31   17   45 1
    32   18   19 1
    33   18   46 1
    34   19   20 1
    35   19   47 1
    36   19   48 1
    37   20   25 1
    38   20   21 1
    39   21   22 1
    40   21   49 1
    41   21   50 1
    42   22   23 1
    43   22   51 1
    44   22   52 1
    45   23   24 1
    46   23   26 1
    47   24   25 1
    48   24   53 1
    49   24   54 1
    50   25   55 1
    51   25   56 1
    52   26   31 ar
    53   26   27 ar
    54   27   28 ar
    55   27   57 1
    56   28   29 ar
    57   28   58 1
    58   29   30 ar
    59   29   59 1
    60   30   31 ar
    61   30   33 1
    62   31   32 1
@<TRIPOS>MOLECULE
ZINC00538194
   54    57     0     0     0
SMALL
USER_CHARGES

@<TRIPOS>ATOM
      1 C1         -0.0184    1.5028    0.0103 C.3       1 <0>        -0.1183
      2 C2          0.0021   -0.0041    0.0020 C.2       1 <0>         0.2437
      3 C3         -1.1850   -0.7103    0.0039 C.2       1 <0>        -0.3474
      4 C4         -1.1404   -2.1092   -0.0040 C.2       1 <0>         0.5188
      5 O1         -2.1719   -2.7624   -0.0030 O.2       1 <0>        -0.5334
      6 N1          0.0611   -2.7250   -0.0132 N.am      1 <0>        -0.4259
      7 C5          0.1211   -4.0855   -0.0211 C.2       1 <0>         0.0951
      8 C6          1.3125   -4.7247   -0.0303 C.2       1 <0>        -0.1540
      9 C7          2.5062   -3.9895   -0.0313 C.2       1 <0>        -0.0169
     10 C8          2.4570   -2.6277   -0.0235 C.2       1 <0>        -0.1401
     11 C9          1.2077   -1.9806   -0.0149 C.2       1 <0>         0.4045
     12 N2          1.1576   -0.6497   -0.0125 N.2       1 <0>        -0.5425
     13 C10        -2.5067    0.0136    0.0147 C.3       1 <0>        -0.0580
     14 C11        -3.0215    0.1567   -1.4190 C.3       1 <0>        -0.0066
     15 N3         -4.3099    0.8624   -1.4085 N.4       1 <0>        -0.3846
     16 C12        -4.1118    2.2322   -0.9196 C.3       1 <0>        -0.0111
     17 C13        -5.4623    2.9460   -0.8298 C.3       1 <0>        -0.1360
     18 C14        -6.1056    2.9862   -2.2189 C.3       1 <0>        -0.1473
     19 C15        -6.2393    1.5562   -2.7503 C.3       1 <0>        -0.1372
     20 C16        -4.8600    0.8938   -2.7689 C.3       1 <0>        -0.0028
     21 C17        -7.4704    3.6182   -2.1241 C.2       1 <0>         0.4077
     22 O2         -8.0811    3.5883   -1.0767 O.2       1 <0>        -0.4339
     23 C18        -8.0616    4.2710   -3.3013 C.ar      1 <0>        -0.1953
     24 C19        -7.3620    4.3022   -4.5129 C.ar      1 <0>        -0.0465
     25 C20        -7.9216    4.9155   -5.6120 C.ar      1 <0>        -0.1663
     26 C21        -9.1754    5.5017   -5.5197 C.ar      1 <0>         0.1452
     27 C22        -9.8742    5.4743   -4.3216 C.ar      1 <0>        -0.1629
     28 C23        -9.3287    4.8588   -3.2166 C.ar      1 <0>        -0.0246
     29 F1         -9.7183    6.1024   -6.6012 F         1 <0>        -0.1249
     30 H1          1.0042    1.8801    0.0026 H         1 <0>         0.0924
     31 H2         -0.5455    1.8639   -0.8728 H         1 <0>         0.0828
     32 H3         -0.5286    1.8543    0.9071 H         1 <0>         0.0918
     33 H4         -0.7932   -4.6603   -0.0196 H         1 <0>         0.1868
     34 H5          1.3446   -5.8042   -0.0365 H         1 <0>         0.1679
     35 H6          3.4584   -4.4990   -0.0379 H         1 <0>         0.1624
     36 H7          3.3695   -2.0499   -0.0243 H         1 <0>         0.1737
     37 H8         -3.2268   -0.5535    0.6044 H         1 <0>         0.0958
     38 H9         -2.3757    1.0025    0.4541 H         1 <0>         0.0943
     39 H10        -2.3014    0.7239   -2.0088 H         1 <0>         0.1275
     40 H11        -3.1525   -0.8322   -1.8584 H         1 <0>         0.1309
     41 H12        -3.6509    2.2020    0.0678 H         1 <0>         0.1368
     42 H13        -3.4608    2.7723   -1.6070 H         1 <0>         0.1318
     43 H14        -6.1140    2.4069   -0.1423 H         1 <0>         0.1009
     44 H15        -5.3128    3.9634   -0.4683 H         1 <0>         0.1167
     45 H16        -5.4790    3.5689   -2.8941 H         1 <0>         0.1172
     46 H17        -6.9071    0.9881   -2.1027 H         1 <0>         0.0969
     47 H18        -6.6452    1.5801   -3.7616 H         1 <0>         0.1198
     48 H19        -4.1931    1.4624   -3.4170 H         1 <0>         0.1320
     49 H20        -4.9515   -0.1244   -3.1469 H         1 <0>         0.1356
     50 H21        -6.3855    3.8468   -4.5859 H         1 <0>         0.1390
     51 H22        -7.3828    4.9404   -6.5477 H         1 <0>         0.1469
     52 H23       -10.8500    5.9325   -4.2564 H         1 <0>         0.1488
     53 H24        -9.8756    4.8342   -2.2857 H         1 <0>         0.1470
     54 H25        -4.9519    0.3792   -0.7982 H         1 <0>         0.4254
@<TRIPOS>BOND
     1    1    2 1
     2    1   30 1
     3    1   31 1
     4    1   32 1
     5    2   12 1
     6    2    3 2
     7    3    4 1
     8    3   13 1
     9    4    5 2
    10    4    6 am
    11    6   11 1
    12    6    7 1
    13    7    8 2
    14    7   33 1
    15    8    9 1
    16    8   34 1
    17    9   10 2
    18    9   35 1
    19   10   11 1
    20   10   36 1
    21   11   12 2
    22   13   14 1
    23   13   37 1
    24   13   38 1
    25   14   15 1
    26   14   39 1
    27   14   40 1
    28   15   20 1
    29   15   16 1
    30   15   54 1
    31   16   17 1
    32   16   41 1
    33   16   42 1
    34   17   18 1
    35   17   43 1
    36   17   44 1
    37   18   19 1
    38   18   21 1
    39   18   45 1
    40   19   20 1
    41   19   46 1
    42   19   47 1
    43   20   48 1
    44   20   49 1
    45   21   22 2
    46   21   23 1
    47   23   28 ar
    48   23   24 ar
    49   24   25 ar
    50   24   50 1
    51   25   26 ar
    52   25   51 1
    53   26   27 ar
    54   26   29 1
    55   27   28 ar
    56   27   52 1
    57   28   53 1
@<TRIPOS>MOLECULE
ZINC19376338
   32    34     0     0     0
SMALL
USER_CHARGES

@<TRIPOS>ATOM
      1 C1         -0.0239    1.3370    0.2441 C.ar      1 <0>        -0.1256
      2 C2          1.1550    2.0478    0.4568 C.ar      1 <0>        -0.0782
      3 C3          2.3643    1.4231    0.4379 C.ar      1 <0>        -0.1141
      4 C4          2.4311    0.0393    0.2011 C.ar      1 <0>         0.1744
      5 C5          1.2312   -0.6814   -0.0144 C.ar      1 <0>        -0.1375
      6 C6          0.0018   -0.0048    0.0116 C.ar      1 <0>        -0.0809
      7 C7          1.2976   -2.0694   -0.2519 C.ar      1 <0>        -0.0096
      8 C8          2.5231   -2.6645   -0.2643 C.ar      1 <0>        -0.2222
      9 C9          3.6751   -1.8960   -0.0441 C.ar      1 <0>         0.4150
     10 N1          3.6064   -0.5993    0.1777 N.ar      1 <0>        -0.5363
     11 N2          4.9157   -2.5156   -0.0597 N.pl3     1 <0>        -0.6266
     12 C10         6.1561   -1.7247   -0.0617 C.3       1 <0>         0.1015
     13 C11         7.0719   -2.2550    1.0465 C.3       1 <0>        -0.0225
     14 N3          7.2730   -3.6982    0.8653 N.4       1 <0>        -0.5046
     15 C12         5.9976   -4.4059    1.0344 C.3       1 <0>        -0.0221
     16 C13         5.0286   -3.9823   -0.0687 C.3       1 <0>         0.0992
     17 H1         -0.9708    1.8557    0.2683 H         1 <0>         0.1324
     18 H2          1.1089    3.1113    0.6392 H         1 <0>         0.1343
     19 H3          3.2692    1.9888    0.6039 H         1 <0>         0.1349
     20 H4         -0.9189   -0.5453   -0.1515 H         1 <0>         0.1333
     21 H5          0.4000   -2.6463   -0.4193 H         1 <0>         0.1464
     22 H6          2.6072   -3.7262   -0.4432 H         1 <0>         0.1365
     23 H7          6.6530   -1.8250   -1.0266 H         1 <0>         0.0880
     24 H8          5.9227   -0.6768    0.1263 H         1 <0>         0.1390
     25 H9          8.0340   -1.7450    0.9980 H         1 <0>         0.1449
     26 H10         6.6116   -2.0712    2.0173 H         1 <0>         0.1341
     27 H11         7.6328   -3.8727   -0.0611 H         1 <0>         0.4286
     28 H12         6.1681   -5.4809    0.9769 H         1 <0>         0.1469
     29 H13         5.5698   -4.1571    2.0056 H         1 <0>         0.1344
     30 H14         4.0501   -4.4261    0.1146 H         1 <0>         0.1284
     31 H15         5.4097   -4.3144   -1.0344 H         1 <0>         0.0943
     32 H16         7.9351   -4.0327    1.5492 H         1 <0>         0.4339
@<TRIPOS>BOND
     1    1    6 ar
     2    1    2 ar
     3    1   17 1
     4    2    3 ar
     5    2   18 1
     6    3    4 ar
     7    3   19 1
     8    4   10 ar
     9    4    5 ar
    10    5    6 ar
    11    5    7 ar
    12    6   20 1
    13    7    8 ar
    14    7   21 1
    15    8    9 ar
    16    8   22 1
    17    9   10 ar
    18    9   11 1
    19   11   16 1
    20   11   12 1
    21   12   13 1
    22   12   23 1
    23   12   24 1
    24   13   14 1
    25   13   25 1
    26   13   26 1
    27   14   15 1
    28   14   27 1
    29   14   32 1
    30   15   16 1
    31   15   28 1
    32   15   29 1
    33   16   30 1
    34   16   31 1
@<TRIPOS>MOLECULE
ZINC28463701
   31    33     0     0     0
SMALL
USER_CHARGES

@<TRIPOS>ATOM
      1 C1         -0.0184    1.5028    0.0103 C.3       1 <0>        -0.1245
      2 C2          0.0021   -0.0041    0.0020 C.ar      1 <0>        -0.1242
      3 C3         -0.0986   -0.6848   -1.1937 C.ar      1 <0>         0.0061
      4 C4         -0.0779   -2.0684   -1.2112 C.ar      1 <0>        -0.1366
      5 C5          0.0532   -2.7680   -0.0259 C.ar      1 <0>        -0.0517
      6 C6          0.1599   -2.0913    1.1728 C.ar      1 <0>        -0.1579
      7 C7          0.1285   -0.7030    1.2036 C.ar      1 <0>         0.1951
      8 N1          0.1830   -0.2275    2.5084 N.pl3     1 <0>        -0.6424
      9 C8         -0.0774    1.1415    2.9801 C.3       1 <0>         0.1041
     10 C9         -1.0713    1.0311    4.1467 C.3       1 <0>        -0.0254
     11 N2         -0.5833    0.0552    5.1269 N.4       1 <0>        -0.5035
     12 C10        -0.5514   -1.2975    4.5514 C.3       1 <0>        -0.0185
     13 C11         0.4960   -1.3323    3.4339 C.3       1 <0>         0.1298
     14 H1          1.5034   -1.2336    3.8382 H         1 <0>         0.1081
     15 C12         0.3354   -2.6011    2.5871 C.3       1 <0>        -0.0747
     16 Cl1        -0.2523    0.1970   -2.6811 Cl        1 <0>        -0.0472
     17 H2          0.9749    1.8783    0.2562 H         1 <0>         0.0739
     18 H3         -0.3112    1.8676   -0.9742 H         1 <0>         0.0836
     19 H4         -0.7336    1.8523    0.7549 H         1 <0>         0.0666
     20 H5         -0.1643   -2.5998   -2.1474 H         1 <0>         0.1425
     21 H6          0.0719   -3.8478   -0.0377 H         1 <0>         0.1378
     22 H7          0.8502    1.5995    3.3235 H         1 <0>         0.0919
     23 H8         -0.5117    1.7358    2.1762 H         1 <0>         0.1370
     24 H9         -1.1765    2.0043    4.6262 H         1 <0>         0.1461
     25 H10        -2.0409    0.7091    3.7671 H         1 <0>         0.1345
     26 H11         0.3478    0.3140    5.4171 H         1 <0>         0.4285
     27 H12        -0.2846   -2.0176    5.3250 H         1 <0>         0.1467
     28 H13        -1.5311   -1.5437    4.1420 H         1 <0>         0.1370
     29 H14        -0.5410   -3.1695    2.8984 H         1 <0>         0.0984
     30 H15         1.2338   -3.2138    2.6621 H         1 <0>         0.1044
     31 H16        -1.1933    0.0592    5.9306 H         1 <0>         0.4346
@<TRIPOS>BOND
     1    1    2 1
     2    1   17 1
     3    1   18 1
     4    1   19 1
     5    2    7 ar
     6    2    3 ar
     7    3    4 ar
     8    3   16 1
     9    4    5 ar
    10    4   20 1
    11    5    6 ar
    12    5   21 1
    13    6   15 1
    14    6    7 ar
    15    7    8 1
    16    8   13 1
    17    8    9 1
    18    9   10 1
    19    9   22 1
    20    9   23 1
    21   10   11 1
    22   10   24 1
    23   10   25 1
    24   11   12 1
    25   11   26 1
    26   11   31 1
    27   12   13 1
    28   12   27 1
    29   12   28 1
    30   13   14 1
    31   13   15 1
    32   15   29 1
    33   15   30 1
@<TRIPOS>MOLECULE
ZINC20114362
   56    59     0     0     0
SMALL
USER_CHARGES
2-(2,4-dichlorophenoxy)-N-[4-methyl-2-(4-methylpiperazin-1-yl)-6-quinolyl]acetamide
@<TRIPOS>ATOM
      1 C1          2.4959   -0.3129   -0.5698 C.3       1 <0>        -0.1464
      2 C2          2.4212    1.1773   -0.3581 C.ar      1 <0>         0.0855
      3 C3          3.5508    1.9392   -0.3489 C.ar      1 <0>        -0.1863
      4 C4          3.4572    3.3239   -0.1507 C.ar      1 <0>         0.4262
      5 N1          2.2954    3.9174    0.0296 N.ar      1 <0>        -0.5226
      6 C5          1.1523    3.2215    0.0302 C.ar      1 <0>         0.1388
      7 C6          1.1806    1.8189   -0.1650 C.ar      1 <0>        -0.0769
      8 C7         -0.0199    1.0929   -0.1636 C.ar      1 <0>        -0.1021
      9 C8         -1.2132    1.7558    0.0226 C.ar      1 <0>         0.1830
     10 C9         -1.2340    3.1406    0.2204 C.ar      1 <0>        -0.0459
     11 C10        -0.0828    3.8645    0.2229 C.ar      1 <0>        -0.1187
     12 N2         -2.4144    1.0370    0.0195 N.am      1 <0>        -0.6877
     13 C11        -3.5372    1.6031   -0.4654 C.2       1 <0>         0.5230
     14 O1         -3.4885    2.6975   -0.9861 O.2       1 <0>        -0.4838
     15 C12        -4.8533    0.8764   -0.3606 C.3       1 <0>         0.0363
     16 O2         -5.8861    1.6753   -0.9413 O.3       1 <0>        -0.2764
     17 C13        -7.1446    1.1613   -0.9288 C.ar      1 <0>         0.1370
     18 C14        -7.3799   -0.0857   -0.3691 C.ar      1 <0>        -0.1865
     19 C15        -8.6595   -0.6065   -0.3573 C.ar      1 <0>        -0.0629
     20 C16        -9.7066    0.1149   -0.9032 C.ar      1 <0>        -0.0572
     21 C17        -9.4748    1.3588   -1.4625 C.ar      1 <0>        -0.0618
     22 C18        -8.1968    1.8863   -1.4709 C.ar      1 <0>        -0.0533
     23 Cl1        -7.9072    3.4509   -2.1652 Cl        1 <0>        -0.0346
     24 Cl2       -11.3133   -0.5423   -0.8867 Cl        1 <0>        -0.0468
     25 N3          4.6161    4.0871   -0.1437 N.pl3     1 <0>        -0.4723
     26 C19         5.5660    3.5930    0.8629 C.3       1 <0>         0.0548
     27 C20         6.8585    4.4089    0.7844 C.3       1 <0>         0.0456
     28 N4          6.5525    5.8291    1.0055 N.3       1 <0>        -0.5461
     29 C21         5.6026    6.3231   -0.0011 C.3       1 <0>         0.0538
     30 C22         4.3100    5.5073    0.0774 C.3       1 <0>         0.0158
     31 C23         7.7793    6.6371    1.0128 C.3       1 <0>         0.0193
     32 H1          3.5463   -0.6126   -0.6997 H         1 <0>         0.0957
     33 H2          1.9232   -0.5847   -1.4687 H         1 <0>         0.1048
     34 H3          2.0728   -0.8291    0.3046 H         1 <0>         0.1048
     35 H4          4.5162    1.4773   -0.4937 H         1 <0>         0.1815
     36 H5         -0.0090    0.0232   -0.3119 H         1 <0>         0.1601
     37 H6         -2.1786    3.6428    0.3685 H         1 <0>         0.1622
     38 H7         -0.1175    4.9335    0.3727 H         1 <0>         0.1567
     39 H8         -2.4419    0.0101    0.4128 H         1 <0>         0.4503
     40 H9         -4.7865   -0.0822   -0.8959 H         1 <0>         0.1071
     41 H10        -5.0857    0.6896    0.6982 H         1 <0>         0.1084
     42 H11        -6.5633   -0.6492    0.0575 H         1 <0>         0.1465
     43 H12        -8.8427   -1.5774    0.0788 H         1 <0>         0.1472
     44 H13       -10.2933    1.9203   -1.8881 H         1 <0>         0.1550
     45 H14         5.1254    3.6977    1.8654 H         1 <0>         0.0808
     46 H15         5.7878    2.5332    0.6687 H         1 <0>         0.1114
     47 H16         7.5601    4.0595    1.5562 H         1 <0>         0.1059
     48 H17         7.3130    4.2811   -0.2091 H         1 <0>         0.0578
     49 H18         5.3808    7.3829    0.1930 H         1 <0>         0.1044
     50 H19         6.0431    6.2183   -1.0036 H         1 <0>         0.0585
     51 H20         3.6080    5.8555   -0.6945 H         1 <0>         0.1024
     52 H21         3.8550    5.6340    1.0708 H         1 <0>         0.0819
     53 H22         7.5216    7.6934    1.1798 H         1 <0>         0.0785
     54 H23         8.2924    6.5333    0.0454 H         1 <0>         0.0362
     55 H24         8.4424    6.2896    1.8187 H         1 <0>         0.0800
     56 H25         2.2518    5.0057    0.1836 H         1 <0>         0.4711
@<TRIPOS>BOND
     1    1    2 1
     2    1   32 1
     3    1   33 1
     4    1   34 1
     5    2    7 ar
     6    2    3 ar
     7    3    4 ar
     8    3   35 1
     9    4    5 ar
    10    4   25 1
    11    5    6 ar
    12    5   56 1
    13    6   11 ar
    14    6    7 ar
    15    7    8 ar
    16    8    9 ar
    17    8   36 1
    18    9   10 ar
    19    9   12 1
    20   10   11 ar
    21   10   37 1
    22   11   38 1
    23   12   13 am
    24   12   39 1
    25   13   14 2
    26   13   15 1
    27   15   16 1
    28   15   40 1
    29   15   41 1
    30   16   17 1
    31   17   22 ar
    32   17   18 ar
    33   18   19 ar
    34   18   42 1
    35   19   20 ar
    36   19   43 1
    37   20   21 ar
    38   20   24 1
    39   21   22 ar
    40   21   44 1
    41   22   23 1
    42   25   30 1
    43   25   26 1
    44   26   27 1
    45   26   45 1
    46   26   46 1
    47   27   28 1
    48   27   47 1
    49   27   48 1
    50   28   29 1
    51   28   31 1
    52   29   30 1
    53   29   49 1
    54   29   50 1
    55   30   51 1
    56   30   52 1
    57   31   53 1
    58   31   54 1
    59   31   55 1
@<TRIPOS>MOLECULE
ZINC20114362
   56    59     0     0     0
SMALL
USER_CHARGES
2-(2,4-dichlorophenoxy)-N-[4-methyl-2-(4-methylpiperazin-1-yl)-6-quinolyl]acetamide
@<TRIPOS>ATOM
      1 C1          2.4959   -0.3129   -0.5698 C.3       1 <0>        -0.1272
      2 C2          2.4212    1.1773   -0.3581 C.ar      1 <0>         0.0032
      3 C3          3.5508    1.9392   -0.3489 C.ar      1 <0>        -0.1815
      4 C4          3.4572    3.3239   -0.1507 C.ar      1 <0>         0.3212
      5 N1          2.2954    3.9174    0.0296 N.ar      1 <0>        -0.5085
      6 C5          1.1523    3.2215    0.0302 C.ar      1 <0>         0.1432
      7 C6          1.1806    1.8189   -0.1650 C.ar      1 <0>        -0.0891
      8 C7         -0.0199    1.0929   -0.1636 C.ar      1 <0>        -0.1276
      9 C8         -1.2132    1.7558    0.0226 C.ar      1 <0>         0.1700
     10 C9         -1.2340    3.1406    0.2204 C.ar      1 <0>        -0.0888
     11 C10        -0.0828    3.8645    0.2229 C.ar      1 <0>        -0.0803
     12 N2         -2.4144    1.0370    0.0195 N.am      1 <0>        -0.6861
     13 C11        -3.5372    1.6031   -0.4654 C.2       1 <0>         0.5197
     14 O1         -3.4885    2.6975   -0.9861 O.2       1 <0>        -0.4875
     15 C12        -4.8533    0.8764   -0.3606 C.3       1 <0>         0.0366
     16 O2         -5.8861    1.6753   -0.9413 O.3       1 <0>        -0.2750
     17 C13        -7.1446    1.1613   -0.9288 C.ar      1 <0>         0.1398
     18 C14        -7.3799   -0.0857   -0.3691 C.ar      1 <0>        -0.1874
     19 C15        -8.6595   -0.6065   -0.3573 C.ar      1 <0>        -0.0628
     20 C16        -9.7066    0.1149   -0.9032 C.ar      1 <0>        -0.0592
     21 C17        -9.4748    1.3588   -1.4625 C.ar      1 <0>        -0.0620
     22 C18        -8.1968    1.8863   -1.4709 C.ar      1 <0>        -0.0547
     23 Cl1        -7.9072    3.4509   -2.1652 Cl        1 <0>        -0.0349
     24 Cl2       -11.3133   -0.5423   -0.8867 Cl        1 <0>        -0.0498
     25 N3          4.6161    4.0871   -0.1437 N.pl3     1 <0>        -0.4772
     26 C19         5.5660    3.5930    0.8629 C.3       1 <0>         0.0270
     27 C20         6.8585    4.4089    0.7844 C.3       1 <0>         0.0007
     28 N4          6.5525    5.8291    1.0055 N.4       1 <0>        -0.4044
     29 C21         5.6026    6.3231   -0.0011 C.3       1 <0>        -0.0033
     30 C22         4.3100    5.5073    0.0774 C.3       1 <0>         0.0364
     31 C23         7.7793    6.6371    1.0128 C.3       1 <0>        -0.0451
     32 H1          3.5463   -0.6126   -0.6997 H         1 <0>         0.0773
     33 H2          1.9232   -0.5847   -1.4687 H         1 <0>         0.0852
     34 H3          2.0728   -0.8291    0.3046 H         1 <0>         0.0842
     35 H4          4.5162    1.4773   -0.4937 H         1 <0>         0.1397
     36 H5         -0.0090    0.0232   -0.3119 H         1 <0>         0.1393
     37 H6         -2.1786    3.6428    0.3685 H         1 <0>         0.1456
     38 H7         -0.1175    4.9335    0.3727 H         1 <0>         0.1409
     39 H8         -2.4419    0.0101    0.4128 H         1 <0>         0.4418
     40 H9         -4.7865   -0.0822   -0.8959 H         1 <0>         0.1040
     41 H10        -5.0857    0.6896    0.6982 H         1 <0>         0.1052
     42 H11        -6.5633   -0.6492    0.0575 H         1 <0>         0.1467
     43 H12        -8.8427   -1.5774    0.0788 H         1 <0>         0.1463
     44 H13       -10.2933    1.9203   -1.8881 H         1 <0>         0.1540
     45 H14         5.1254    3.6977    1.8654 H         1 <0>         0.0727
     46 H15         5.7878    2.5332    0.6687 H         1 <0>         0.1308
     47 H16         7.5601    4.0595    1.5562 H         1 <0>         0.1422
     48 H17         7.3130    4.2811   -0.2091 H         1 <0>         0.1381
     49 H18         5.3808    7.3829    0.1930 H         1 <0>         0.1410
     50 H19         6.0431    6.2183   -1.0036 H         1 <0>         0.1355
     51 H20         3.6080    5.8555   -0.6945 H         1 <0>         0.1332
     52 H21         3.8550    5.6340    1.0708 H         1 <0>         0.0772
     53 H22         7.5216    7.6934    1.1798 H         1 <0>         0.1256
     54 H23         8.2924    6.5333    0.0454 H         1 <0>         0.1204
     55 H24         8.4424    6.2896    1.8187 H         1 <0>         0.1251
     56 H25         6.0802    5.9249    1.9943 H         1 <0>         0.4424
@<TRIPOS>BOND
     1    1    2 1
     2    1   32 1
     3    1   33 1
     4    1   34 1
     5    2    7 ar
     6    2    3 ar
     7    3    4 ar
     8    3   35 1
     9    4    5 ar
    10    4   25 1
    11    5    6 ar
    12    6   11 ar
    13    6    7 ar
    14    7    8 ar
    15    8    9 ar
    16    8   36 1
    17    9   10 ar
    18    9   12 1
    19   10   11 ar
    20   10   37 1
    21   11   38 1
    22   12   13 am
    23   12   39 1
    24   13   14 2
    25   13   15 1
    26   15   16 1
    27   15   40 1
    28   15   41 1
    29   16   17 1
    30   17   22 ar
    31   17   18 ar
    32   18   19 ar
    33   18   42 1
    34   19   20 ar
    35   19   43 1
    36   20   21 ar
    37   20   24 1
    38   21   22 ar
    39   21   44 1
    40   22   23 1
    41   25   30 1
    42   25   26 1
    43   26   27 1
    44   26   45 1
    45   26   46 1
    46   27   28 1
    47   27   47 1
    48   27   48 1
    49   28   29 1
    50   28   31 1
    51   28   56 1
    52   29   30 1
    53   29   49 1
    54   29   50 1
    55   30   51 1
    56   30   52 1
    57   31   53 1
    58   31   54 1
    59   31   55 1
@<TRIPOS>MOLECULE
ZINC20114362
   55    58     0     0     0
SMALL
USER_CHARGES
2-(2,4-dichlorophenoxy)-N-[4-methyl-2-(4-methylpiperazin-1-yl)-6-quinolyl]acetamide
@<TRIPOS>ATOM
      1 C1          2.4959   -0.3129   -0.5698 C.3       1 <0>        -0.1205
      2 C2          2.4212    1.1773   -0.3581 C.ar      1 <0>        -0.0098
      3 C3          3.5508    1.9392   -0.3489 C.ar      1 <0>        -0.1768
      4 C4          3.4572    3.3239   -0.1507 C.ar      1 <0>         0.3436
      5 N1          2.2954    3.9174    0.0296 N.ar      1 <0>        -0.5162
      6 C5          1.1523    3.2215    0.0302 C.ar      1 <0>         0.1510
      7 C6          1.1806    1.8189   -0.1650 C.ar      1 <0>        -0.1025
      8 C7         -0.0199    1.0929   -0.1636 C.ar      1 <0>        -0.1198
      9 C8         -1.2132    1.7558    0.0226 C.ar      1 <0>         0.1502
     10 C9         -1.2340    3.1406    0.2204 C.ar      1 <0>        -0.0937
     11 C10        -0.0828    3.8645    0.2229 C.ar      1 <0>        -0.0814
     12 N2         -2.4144    1.0370    0.0195 N.am      1 <0>        -0.6826
     13 C11        -3.5372    1.6031   -0.4654 C.2       1 <0>         0.5169
     14 O1         -3.4885    2.6975   -0.9861 O.2       1 <0>        -0.4896
     15 C12        -4.8533    0.8764   -0.3606 C.3       1 <0>         0.0369
     16 O2         -5.8861    1.6753   -0.9413 O.3       1 <0>        -0.2735
     17 C13        -7.1446    1.1613   -0.9288 C.ar      1 <0>         0.1430
     18 C14        -7.3799   -0.0857   -0.3691 C.ar      1 <0>        -0.1879
     19 C15        -8.6595   -0.6065   -0.3573 C.ar      1 <0>        -0.0629
     20 C16        -9.7066    0.1149   -0.9032 C.ar      1 <0>        -0.0613
     21 C17        -9.4748    1.3588   -1.4625 C.ar      1 <0>        -0.0624
     22 C18        -8.1968    1.8863   -1.4709 C.ar      1 <0>        -0.0560
     23 Cl1        -7.9072    3.4509   -2.1652 Cl        1 <0>        -0.0344
     24 Cl2       -11.3133   -0.5423   -0.8867 Cl        1 <0>        -0.0537
     25 N3          4.6161    4.0871   -0.1437 N.pl3     1 <0>        -0.4786
     26 C19         5.5660    3.5930    0.8629 C.3       1 <0>         0.0609
     27 C20         6.8585    4.4089    0.7844 C.3       1 <0>         0.0539
     28 N4          6.5525    5.8291    1.0055 N.3       1 <0>        -0.5459
     29 C21         5.6026    6.3231   -0.0011 C.3       1 <0>         0.0503
     30 C22         4.3100    5.5073    0.0774 C.3       1 <0>         0.0686
     31 C23         7.7793    6.6371    1.0128 C.3       1 <0>         0.0226
     32 H1          3.5463   -0.6126   -0.6997 H         1 <0>         0.0747
     33 H2          1.9232   -0.5847   -1.4687 H         1 <0>         0.0794
     34 H3          2.0728   -0.8291    0.3046 H         1 <0>         0.0791
     35 H4          4.5162    1.4773   -0.4937 H         1 <0>         0.1385
     36 H5         -0.0090    0.0232   -0.3119 H         1 <0>         0.1338
     37 H6         -2.1786    3.6428    0.3685 H         1 <0>         0.1403
     38 H7         -0.1175    4.9335    0.3727 H         1 <0>         0.1387
     39 H8         -2.4419    0.0101    0.4128 H         1 <0>         0.4373
     40 H9         -4.7865   -0.0822   -0.8959 H         1 <0>         0.1022
     41 H10        -5.0857    0.6896    0.6982 H         1 <0>         0.1036
     42 H11        -6.5633   -0.6492    0.0575 H         1 <0>         0.1474
     43 H12        -8.8427   -1.5774    0.0788 H         1 <0>         0.1453
     44 H13       -10.2933    1.9203   -1.8881 H         1 <0>         0.1528
     45 H14         5.1254    3.6977    1.8654 H         1 <0>         0.0577
     46 H15         5.7878    2.5332    0.6687 H         1 <0>         0.0902
     47 H16         7.5601    4.0595    1.5562 H         1 <0>         0.0881
     48 H17         7.3130    4.2811   -0.2091 H         1 <0>         0.0468
     49 H18         5.3808    7.3829    0.1930 H         1 <0>         0.0868
     50 H19         6.0431    6.2183   -1.0036 H         1 <0>         0.0438
     51 H20         3.6080    5.8555   -0.6945 H         1 <0>         0.0927
     52 H21         3.8550    5.6340    1.0708 H         1 <0>         0.0622
     53 H22         7.5216    7.6934    1.1798 H         1 <0>         0.0713
     54 H23         8.2924    6.5333    0.0454 H         1 <0>         0.0280
     55 H24         8.4424    6.2896    1.8187 H         1 <0>         0.0709
@<TRIPOS>BOND
     1    1    2 1
     2    1   32 1
     3    1   33 1
     4    1   34 1
     5    2    7 ar
     6    2    3 ar
     7    3    4 ar
     8    3   35 1
     9    4    5 ar
    10    4   25 1
    11    5    6 ar
    12    6   11 ar
    13    6    7 ar
    14    7    8 ar
    15    8    9 ar
    16    8   36 1
    17    9   10 ar
    18    9   12 1
    19   10   11 ar
    20   10   37 1
    21   11   38 1
    22   12   13 am
    23   12   39 1
    24   13   14 2
    25   13   15 1
    26   15   16 1
    27   15   40 1
    28   15   41 1
    29   16   17 1
    30   17   22 ar
    31   17   18 ar
    32   18   19 ar
    33   18   42 1
    34   19   20 ar
    35   19   43 1
    36   20   21 ar
    37   20   24 1
    38   21   22 ar
    39   21   44 1
    40   22   23 1
    41   25   30 1
    42   25   26 1
    43   26   27 1
    44   26   45 1
    45   26   46 1
    46   27   28 1
    47   27   47 1
    48   27   48 1
    49   28   29 1
    50   28   31 1
    51   29   30 1
    52   29   49 1
    53   29   50 1
    54   30   51 1
    55   30   52 1
    56   31   53 1
    57   31   54 1
    58   31   55 1
@<TRIPOS>MOLECULE
ZINC02568243
   34    36     0     0     0
SMALL
USER_CHARGES

@<TRIPOS>ATOM
      1 C1         -0.0173    1.4248    0.0099 C.3       1 <0>         0.0252
      2 O1          0.0021   -0.0041    0.0020 O.3       1 <0>        -0.3183
      3 C2         -1.2010   -0.6379    0.0101 C.ar      1 <0>         0.1169
      4 C3         -2.3775    0.1067    0.0195 C.ar      1 <0>        -0.1762
      5 C4         -3.6034   -0.5202    0.0273 C.ar      1 <0>        -0.0783
      6 C5         -3.6744   -1.9098    0.0258 C.ar      1 <0>         0.0592
      7 C6         -2.4884   -2.6622    0.0163 C.ar      1 <0>        -0.0484
      8 C7         -1.2520   -2.0182    0.0032 C.ar      1 <0>        -0.1259
      9 C8         -2.9033   -4.0754    0.0172 C.2       1 <0>        -0.1922
     10 C9         -4.2612   -4.0825    0.0269 C.2       1 <0>         0.1018
     11 N1         -4.7283   -2.8009    0.0320 N.pl3     1 <0>        -0.5832
     12 H1         -5.6658   -2.5518    0.0397 H         1 <0>         0.4236
     13 C10        -2.0157   -5.2547    0.0093 C.2       1 <0>        -0.0022
     14 C11        -1.3988   -5.5778   -1.1088 C.2       1 <0>        -0.1971
     15 C12        -0.4803   -6.7603   -1.2219 C.3       1 <0>         0.0381
     16 N2         -0.0462   -7.2002    0.1091 N.4       1 <0>        -0.5087
     17 C13        -1.2320   -7.4084    0.9551 C.3       1 <0>        -0.0039
     18 C14        -1.8429   -6.0411    1.2796 C.3       1 <0>        -0.1164
     19 H2          1.0053    1.8021    0.0021 H         1 <0>         0.1041
     20 H3         -0.5445    1.7859   -0.8732 H         1 <0>         0.0579
     21 H4         -0.5275    1.7763    0.9067 H         1 <0>         0.0578
     22 H5         -2.3280    1.1855    0.0211 H         1 <0>         0.1378
     23 H6         -4.5099    0.0668    0.0350 H         1 <0>         0.1301
     24 H7         -0.3392   -2.5953   -0.0086 H         1 <0>         0.1257
     25 H8         -4.8782   -4.9689    0.0300 H         1 <0>         0.1757
     26 H9         -1.5611   -4.9651   -1.9833 H         1 <0>         0.1495
     27 H10        -1.0039   -7.5772   -1.7186 H         1 <0>         0.1390
     28 H11         0.3928   -6.4834   -1.8127 H         1 <0>         0.1408
     29 H12         0.4669   -8.0652    0.0282 H         1 <0>         0.4342
     30 H13        -1.9591   -8.0207    0.4217 H         1 <0>         0.1341
     31 H14        -0.9391   -7.9058    1.8797 H         1 <0>         0.1381
     32 H15        -1.1844   -5.4970    1.9567 H         1 <0>         0.1074
     33 H16        -2.8140   -6.1827    1.7539 H         1 <0>         0.1225
     34 H17         0.5436   -6.4936    0.5225 H         1 <0>         0.4315
@<TRIPOS>BOND
     1    1    2 1
     2    1   19 1
     3    1   20 1
     4    1   21 1
     5    2    3 1
     6    3    8 ar
     7    3    4 ar
     8    4    5 ar
     9    4   22 1
    10    5    6 ar
    11    5   23 1
    12    6   11 1
    13    6    7 ar
    14    7    8 ar
    15    7    9 1
    16    8   24 1
    17    9   10 2
    18    9   13 1
    19   10   11 1
    20   10   25 1
    21   11   12 1
    22   13   18 1
    23   13   14 2
    24   14   15 1
    25   14   26 1
    26   15   16 1
    27   15   27 1
    28   15   28 1
    29   16   17 1
    30   16   29 1
    31   16   34 1
    32   17   18 1
    33   17   30 1
    34   17   31 1
    35   18   32 1
    36   18   33 1
@<TRIPOS>MOLECULE
ZINC01714738
   49    50     0     0     0
SMALL
USER_CHARGES

@<TRIPOS>ATOM
      1 C1         -0.0467    1.4769    0.0229 C.3       1 <0>        -0.0475
      2 N1         -0.0215    0.0082    0.0086 N.4       1 <0>        -0.3868
      3 C2          0.6979   -0.4807    1.1924 C.3       1 <0>        -0.0541
      4 C3         -1.3977   -0.5054    0.0251 C.3       1 <0>        -0.0063
      5 C4         -1.3752   -2.0288   -0.1154 C.3       1 <0>        -0.1338
      6 C5         -2.8086   -2.5637   -0.0982 C.3       1 <0>        -0.1120
      7 S1         -2.7820   -4.3698   -0.2648 S.3       1 <0>        -0.1081
      8 C6         -4.4834   -4.8264   -0.2280 C.ar      1 <0>        -0.1291
      9 C7         -5.4630   -3.8519   -0.0994 C.ar      1 <0>        -0.1103
     10 C8         -6.7968   -4.2126   -0.0714 C.ar      1 <0>        -0.1204
     11 C9         -7.1600   -5.5434   -0.1706 C.ar      1 <0>        -0.0897
     12 C10        -6.1911   -6.5212   -0.2990 C.ar      1 <0>        -0.1142
     13 C11        -4.8504   -6.1686   -0.3339 C.ar      1 <0>         0.1802
     14 N2         -3.8676   -7.1568   -0.4692 N.am      1 <0>        -0.6663
     15 C12        -4.1713   -8.3342   -1.0505 C.2       1 <0>         0.5530
     16 O1         -5.2696   -8.5020   -1.5477 O.2       1 <0>        -0.5168
     17 C13        -3.1805   -9.4113   -1.0839 C.2       1 <0>        -0.2326
     18 C14        -3.4844  -10.5891   -1.6654 C.2       1 <0>         0.0088
     19 C15        -2.4880  -11.6722   -1.6990 C.ar      1 <0>        -0.0896
     20 C16        -1.2272  -11.4852   -1.1238 C.ar      1 <0>        -0.0979
     21 C17        -0.2992  -12.5045   -1.1593 C.ar      1 <0>        -0.1240
     22 C18        -0.6128  -13.7100   -1.7626 C.ar      1 <0>        -0.1005
     23 C19        -1.8585  -13.9027   -2.3341 C.ar      1 <0>        -0.1218
     24 C20        -2.7994  -12.8952   -2.3012 C.ar      1 <0>        -0.0883
     25 H1          0.9744    1.8580    0.0106 H         1 <0>         0.1261
     26 H2         -0.5805    1.8397   -0.8556 H         1 <0>         0.1242
     27 H3         -0.5529    1.8228    0.9241 H         1 <0>         0.1227
     28 H4          0.7166   -1.5705    1.1819 H         1 <0>         0.1248
     29 H5          1.7190   -0.0996    1.1802 H         1 <0>         0.1262
     30 H6          0.1917   -0.1348    2.0937 H         1 <0>         0.1236
     31 H7         -1.8754   -0.2344    0.9666 H         1 <0>         0.1333
     32 H8         -1.9571   -0.0723   -0.8041 H         1 <0>         0.1345
     33 H9         -0.8975   -2.2998   -1.0569 H         1 <0>         0.0988
     34 H10        -0.8158   -2.4619    0.7138 H         1 <0>         0.0989
     35 H11        -3.2863   -2.2926    0.8433 H         1 <0>         0.0993
     36 H12        -3.3680   -2.1306   -0.9274 H         1 <0>         0.0998
     37 H13        -5.1830   -2.8118   -0.0210 H         1 <0>         0.1225
     38 H14        -7.5579   -3.4530    0.0288 H         1 <0>         0.1302
     39 H15        -8.2038   -5.8197   -0.1474 H         1 <0>         0.1345
     40 H16        -6.4786   -7.5594   -0.3759 H         1 <0>         0.1551
     41 H17        -2.9681   -6.9940   -0.1446 H         1 <0>         0.4115
     42 H18        -2.2060   -9.2624   -0.6427 H         1 <0>         0.1329
     43 H19        -4.4588  -10.7380   -2.1066 H         1 <0>         0.1394
     44 H20        -0.9807  -10.5448   -0.6532 H         1 <0>         0.1261
     45 H21         0.6750  -12.3617   -0.7155 H         1 <0>         0.1275
     46 H22         0.1185  -14.5043   -1.7879 H         1 <0>         0.1276
     47 H23        -2.0957  -14.8460   -2.8034 H         1 <0>         0.1299
     48 H24        -3.7727  -13.0487   -2.7433 H         1 <0>         0.1305
     49 H25         0.4470   -0.3120   -0.8257 H         1 <0>         0.4283
@<TRIPOS>BOND
     1    1    2 1
     2    1   25 1
     3    1   26 1
     4    1   27 1
     5    2    3 1
     6    2    4 1
     7    2   49 1
     8    3   28 1
     9    3   29 1
    10    3   30 1
    11    4    5 1
    12    4   31 1
    13    4   32 1
    14    5    6 1
    15    5   33 1
    16    5   34 1
    17    6    7 1
    18    6   35 1
    19    6   36 1
    20    7    8 1
    21    8   13 ar
    22    8    9 ar
    23    9   10 ar
    24    9   37 1
    25   10   11 ar
    26   10   38 1
    27   11   12 ar
    28   11   39 1
    29   12   13 ar
    30   12   40 1
    31   13   14 1
    32   14   15 am
    33   14   41 1
    34   15   16 2
    35   15   17 1
    36   17   18 2
    37   17   42 1
    38   18   19 1
    39   18   43 1
    40   19   24 ar
    41   19   20 ar
    42   20   21 ar
    43   20   44 1
    44   21   22 ar
    45   21   45 1
    46   22   23 ar
    47   22   46 1
    48   23   24 ar
    49   23   47 1
    50   24   48 1
@<TRIPOS>MOLECULE
ZINC02539813
   29    30     0     0     0
SMALL
USER_CHARGES

@<TRIPOS>ATOM
      1 C1         -0.0169    1.3975    0.0097 C.ar      1 <0>        -0.0643
      2 C2          1.1463    2.1089    0.0024 C.ar      1 <0>        -0.1252
      3 C3          2.3728    1.4480   -0.0128 C.ar      1 <0>         0.1197
      4 C4          2.4053    0.0394   -0.0207 C.ar      1 <0>        -0.1125
      5 C5          1.2161   -0.6846   -0.0130 C.ar      1 <0>        -0.0121
      6 C6          0.0021   -0.0041    0.0020 C.ar      1 <0>        -0.1565
      7 C7         -1.2668   -0.7591    0.0106 C.2       1 <0>         0.5664
      8 O1         -1.2509   -1.9747    0.0039 O.2       1 <0>        -0.5461
      9 N1         -2.4427   -0.1006    0.0258 N.am      1 <0>        -0.8483
     10 C8          3.8230   -0.3326   -0.0371 C.2       1 <0>        -0.1957
     11 C9          4.5266    0.8101   -0.0381 C.2       1 <0>         0.0855
     12 N2          3.6763    1.8825   -0.0237 N.pl3     1 <0>        -0.5837
     13 H1          3.9530    2.8122   -0.0215 H         1 <0>         0.4262
     14 C10         4.3836   -1.7314   -0.0499 C.3       1 <0>        -0.0648
     15 C11         4.4419   -2.2443   -1.4902 C.3       1 <0>        -0.0085
     16 N3          4.9884   -3.6078   -1.5026 N.4       1 <0>        -0.6386
     17 H2         -0.9624    1.9192    0.0261 H         1 <0>         0.1348
     18 H3          1.1168    3.1884    0.0082 H         1 <0>         0.1333
     19 H4          1.2355   -1.7645   -0.0193 H         1 <0>         0.1349
     20 H5         -2.4554    0.8693    0.0312 H         1 <0>         0.4024
     21 H6         -3.2762   -0.5966    0.0315 H         1 <0>         0.4094
     22 H7          5.6046    0.8742   -0.0483 H         1 <0>         0.1771
     23 H8          5.3877   -1.7243    0.3742 H         1 <0>         0.0945
     24 H9          3.7434   -2.3848    0.5429 H         1 <0>         0.0952
     25 H10         3.4379   -2.2514   -1.9143 H         1 <0>         0.1343
     26 H11         5.0821   -1.5909   -2.0829 H         1 <0>         0.1335
     27 H12         5.9178   -3.6013   -1.1100 H         1 <0>         0.4344
     28 H13         4.3958   -4.2127   -0.9539 H         1 <0>         0.4362
     29 H14         5.0268   -3.9461   -2.4524 H         1 <0>         0.4385
@<TRIPOS>BOND
     1    1    6 ar
     2    1    2 ar
     3    1   17 1
     4    2    3 ar
     5    2   18 1
     6    3   12 1
     7    3    4 ar
     8    4    5 ar
     9    4   10 1
    10    5    6 ar
    11    5   19 1
    12    6    7 1
    13    7    8 2
    14    7    9 am
    15    9   20 1
    16    9   21 1
    17   10   11 2
    18   10   14 1
    19   11   12 1
    20   11   22 1
    21   12   13 1
    22   14   15 1
    23   14   23 1
    24   14   24 1
    25   15   16 1
    26   15   25 1
    27   15   26 1
    28   16   27 1
    29   16   28 1
    30   16   29 1
@<TRIPOS>MOLECULE
ZINC02034700
   26    27     0     0     0
SMALL
USER_CHARGES
3-(2-aminoethyl)-1H-indol-4-ol
@<TRIPOS>ATOM
      1 C1          3.2465   -1.8603   -0.0389 C.ar      1 <0>        -0.0777
      2 C2          1.8759   -1.7228   -0.0251 C.ar      1 <0>        -0.1288
      3 C3          1.3033   -0.4543   -0.0128 C.ar      1 <0>         0.1102
      4 C4          2.1342    0.6794   -0.0147 C.ar      1 <0>        -0.1244
      5 C5          3.5258    0.5253   -0.0283 C.ar      1 <0>         0.1355
      6 C6          4.0708   -0.7442   -0.0408 C.ar      1 <0>        -0.1570
      7 O1          4.3348    1.6170   -0.0298 O.3       1 <0>        -0.4931
      8 C7          1.2391    1.8390    0.0001 C.2       1 <0>        -0.1968
      9 C8         -0.0165    1.3651    0.0095 C.2       1 <0>         0.0836
     10 N1          0.0021   -0.0041    0.0020 N.pl3     1 <0>        -0.5871
     11 H1         -0.7842   -0.5721    0.0060 H         1 <0>         0.4254
     12 C9          1.6502    3.2888    0.0032 C.3       1 <0>        -0.0648
     13 C10         1.8963    3.7522   -1.4340 C.3       1 <0>        -0.0008
     14 H2          3.6842   -2.8476   -0.0480 H         1 <0>         0.1380
     15 H3          1.2454   -2.5997   -0.0241 H         1 <0>         0.1297
     16 H4          5.1436   -0.8684   -0.0517 H         1 <0>         0.1349
     17 H5          4.5606    1.9381   -0.9135 H         1 <0>         0.3794
     18 H6         -0.9089    1.9733    0.0173 H         1 <0>         0.1751
     19 H7          0.8576    3.8903    0.4482 H         1 <0>         0.0906
     20 H8          2.5649    3.4058    0.5844 H         1 <0>         0.0998
     21 H9          2.6890    3.1508   -1.8790 H         1 <0>         0.1295
     22 H10         0.9816    3.6352   -2.0151 H         1 <0>         0.1303
     23 H11         3.1062    5.3107   -0.8459 H         1 <0>         0.4380
     24 H12         2.4655    5.4956   -2.3694 H         1 <0>         0.4393
     25 N2          2.2763    5.1759   -1.4210 N.4       1 <0>        -0.6477
     26 H13         1.5041    5.7277   -1.0292 H         1 <0>         0.4391
@<TRIPOS>BOND
     1    1    6 ar
     2    1    2 ar
     3    1   14 1
     4    2    3 ar
     5    2   15 1
     6    3   10 1
     7    3    4 ar
     8    4    5 ar
     9    4    8 1
    10    5    6 ar
    11    5    7 1
    12    6   16 1
    13    7   17 1
    14    8    9 2
    15    8   12 1
    16    9   10 1
    17    9   18 1
    18   10   11 1
    19   12   13 1
    20   12   19 1
    21   12   20 1
    22   13   21 1
    23   13   22 1
    24   13   25 1
    25   23   25 1
    26   24   25 1
    27   25   26 1
@<TRIPOS>MOLECULE
ZINC00008795
   28    30     0     0     0
SMALL
USER_CHARGES
chloroBLAH
@<TRIPOS>ATOM
      1 C1          1.1682    2.0848    0.0021 C.ar      1 <0>        -0.1222
      2 C2         -0.0166    1.3705    0.0096 C.ar      1 <0>        -0.0577
      3 C3          0.0021   -0.0041    0.0020 C.ar      1 <0>        -0.1392
      4 C4          1.2198   -0.6989    0.0012 C.ar      1 <0>         0.1213
      5 C5          2.4046    0.0308   -0.0234 C.ar      1 <0>        -0.1335
      6 C6          2.3767    1.4109   -0.0213 C.ar      1 <0>        -0.0015
      7 Cl1         3.8643    2.3052   -0.0479 Cl        1 <0>        -0.0472
      8 N1          0.9601   -2.0492    0.0477 N.pl3     1 <0>        -0.5130
      9 C7          1.9078   -3.0272   -0.4388 C.3       1 <0>         0.0445
     10 C8          1.4145   -4.4151    0.0057 C.3       1 <0>         0.0022
     11 C9         -0.8930   -3.5894    0.0184 C.3       1 <0>         0.0175
     12 C10        -0.3768   -2.2739   -0.5580 C.3       1 <0>         0.0527
     13 H1         -0.3358   -2.2909   -1.6471 H         1 <0>         0.0994
     14 C11        -1.1211   -1.0337   -0.0321 C.3       1 <0>        -0.0630
     15 H2          1.1501    3.1646    0.0148 H         1 <0>         0.1448
     16 H3         -0.9605    1.8952    0.0169 H         1 <0>         0.1398
     17 H4          3.3526   -0.4864   -0.0447 H         1 <0>         0.1326
     18 H5          1.9584   -2.9837   -1.5267 H         1 <0>         0.0725
     19 H6          2.8922   -2.8312   -0.0139 H         1 <0>         0.1263
     20 H7          2.0606   -5.1797   -0.4257 H         1 <0>         0.1410
     21 H8          1.4600   -4.4800    1.0928 H         1 <0>         0.1390
     22 H9         -0.9020   -3.5409    1.1073 H         1 <0>         0.1454
     23 H10        -1.8971   -3.7909   -0.3547 H         1 <0>         0.1448
     24 H11        -1.5206   -1.2108    0.9665 H         1 <0>         0.1027
     25 H12        -1.9107   -0.7294   -0.7191 H         1 <0>         0.1001
     26 N2          0.0283   -4.6659   -0.4446 N.4       1 <0>        -0.5233
     27 H13        -0.2896   -5.5651   -0.0643 H         1 <0>         0.4417
     28 H14         0.0111   -4.7029   -1.4705 H         1 <0>         0.4323
@<TRIPOS>BOND
     1    1    6 ar
     2    1    2 ar
     3    1   15 1
     4    2    3 ar
     5    2   16 1
     6    3   14 1
     7    3    4 ar
     8    4    5 ar
     9    4    8 1
    10    5    6 ar
    11    5   17 1
    12    6    7 1
    13    8   12 1
    14    8    9 1
    15    9   10 1
    16    9   18 1
    17    9   19 1
    18   10   20 1
    19   10   21 1
    20   10   26 1
    21   11   12 1
    22   11   22 1
    23   11   23 1
    24   11   26 1
    25   12   13 1
    26   12   14 1
    27   14   24 1
    28   14   25 1
    29   26   27 1
    30   26   28 1
@<TRIPOS>MOLECULE
ZINC00026029
   28    30     0     0     0
SMALL
USER_CHARGES
chloroBLAH
@<TRIPOS>ATOM
      1 C1          4.8254    4.3522   -2.0238 C.ar      1 <0>        -0.1321
      2 C2          3.7198    4.5848   -1.2135 C.ar      1 <0>        -0.0487
      3 C3          2.8504    3.5360   -1.0158 C.ar      1 <0>        -0.1479
      4 C4          3.0481    2.2754   -1.6202 C.ar      1 <0>         0.1347
      5 C5          4.1692    2.0571   -2.4207 C.ar      1 <0>        -0.1379
      6 C6          5.0424    3.1185   -2.6048 C.ar      1 <0>         0.0004
      7 Cl1         6.4495    2.8897   -3.5955 Cl        1 <0>        -0.0530
      8 N1          2.0184    1.4529   -1.2796 N.pl3     1 <0>        -0.5266
      9 C7          2.1146    0.0125   -1.2887 C.3       1 <0>         0.0527
     10 C8          0.6890   -0.5542   -1.1707 C.3       1 <0>         0.0013
     11 C9         -0.0180    1.4732    0.0101 C.3       1 <0>         0.0151
     12 C10         1.4363    1.9375   -0.0013 C.3       1 <0>         0.0583
     13 H1          1.9849    1.5678    0.8651 H         1 <0>         0.0998
     14 C11         1.5896    3.4612   -0.1840 C.3       1 <0>        -0.0658
     15 H2          5.5285    5.1523   -2.2022 H         1 <0>         0.1408
     16 H3          3.5498    5.5492   -0.7580 H         1 <0>         0.1470
     17 H4          4.3504    1.0968   -2.8805 H         1 <0>         0.1396
     18 H5          2.7163   -0.3227   -0.4439 H         1 <0>         0.0730
     19 H6          2.5689   -0.3222   -2.2213 H         1 <0>         0.1261
     20 H7          0.7413   -1.6391   -1.0790 H         1 <0>         0.1415
     21 H8          0.1268   -0.2973   -2.0684 H         1 <0>         0.1388
     22 H9         -0.5337    1.8433   -0.8760 H         1 <0>         0.1447
     23 H10        -0.5166    1.8337    0.9099 H         1 <0>         0.1446
     24 H11         0.7393    3.8783   -0.7236 H         1 <0>         0.1020
     25 H12         1.7233    3.9592    0.7763 H         1 <0>         0.1005
     26 N2         -0.0072   -0.0170    0.0183 N.4       1 <0>        -0.5230
     27 H13         0.4744   -0.3437    0.8642 H         1 <0>         0.4323
     28 H14        -0.9754   -0.3588    0.0221 H         1 <0>         0.4415
@<TRIPOS>BOND
     1    1    6 ar
     2    1    2 ar
     3    1   15 1
     4    2    3 ar
     5    2   16 1
     6    3   14 1
     7    3    4 ar
     8    4    5 ar
     9    4    8 1
    10    5    6 ar
    11    5   17 1
    12    6    7 1
    13    8   12 1
    14    8    9 1
    15    9   10 1
    16    9   18 1
    17    9   19 1
    18   10   20 1
    19   10   21 1
    20   10   26 1
    21   11   12 1
    22   11   22 1
    23   11   23 1
    24   11   26 1
    25   12   13 1
    26   12   14 1
    27   14   24 1
    28   14   25 1
    29   26   27 1
    30   26   28 1
@<TRIPOS>MOLECULE
ZINC03812975
   60    64     0     0     0
SMALL
USER_CHARGES

@<TRIPOS>ATOM
      1 C1         -0.0178    1.4608    0.0101 C.3       1 <0>         0.0716
      2 N1          0.0021   -0.0041    0.0020 N.pl3     1 <0>        -0.4812
      3 C2          0.0080   -0.7895   -1.1411 C.2       1 <0>         0.0913
      4 C3          0.0282   -2.0729   -0.8158 C.2       1 <0>        -0.2023
      5 C4          0.0400   -2.1061    0.6467 C.ar      1 <0>        -0.1336
      6 C5          0.0233   -0.7876    1.1160 C.ar      1 <0>         0.1162
      7 C6          0.0281   -0.6014    2.4974 C.ar      1 <0>        -0.1058
      8 C7          0.0555   -1.7454    3.2836 C.ar      1 <0>        -0.0964
      9 C8          0.0797   -3.0442    2.7772 C.ar      1 <0>        -0.1174
     10 C9          0.0695   -3.2585    1.4352 C.ar      1 <0>        -0.0501
     11 C10         0.1084   -4.5672    0.7055 C.3       1 <0>        -0.0367
     12 H1          1.1465   -4.8604    0.5493 H         1 <0>         0.1043
     13 C11        -0.5981   -5.6387    1.5422 C.3       1 <0>        -0.1264
     14 C12        -0.5917   -6.9634    0.7749 C.3       1 <0>        -0.1191
     15 H2          0.4364   -7.2946    0.6283 H         1 <0>         0.1074
     16 C13        -1.2619   -6.7580   -0.5856 C.3       1 <0>        -0.0110
     17 N2         -0.5193   -5.7488   -1.3493 N.4       1 <0>        -0.3819
     18 C14        -0.5941   -4.4602   -0.6486 C.3       1 <0>         0.0378
     19 H3         -1.6407   -4.2114   -0.4733 H         1 <0>         0.1390
     20 C15         0.0386   -3.3796   -1.5674 C.3       1 <0>        -0.0465
     21 C16        -1.1140   -5.6136   -2.6857 C.3       1 <0>        -0.0542
     22 C17        -1.3607   -8.0194    1.5713 C.3       1 <0>         0.1445
     23 N3         -1.2530   -9.3149    0.8957 N.am      1 <0>        -0.7202
     24 C18        -1.8561  -10.4004    1.4197 C.2       1 <0>         0.6478
     25 O1         -2.4890  -10.3045    2.4525 O.2       1 <0>        -0.5572
     26 O2         -1.7571  -11.5909    0.7987 O.3       1 <0>        -0.3583
     27 C19        -2.4213  -12.6986    1.4101 C.3       1 <0>         0.1298
     28 C20        -2.2011  -13.9369    0.5799 C.ar      1 <0>        -0.1065
     29 C21        -3.0857  -14.2560   -0.4333 C.ar      1 <0>        -0.0941
     30 C22        -2.8838  -15.3918   -1.1949 C.ar      1 <0>        -0.1226
     31 C23        -1.7970  -16.2083   -0.9436 C.ar      1 <0>        -0.1033
     32 C24        -0.9119  -15.8887    0.0690 C.ar      1 <0>        -0.1217
     33 C25        -1.1115  -14.7506    0.8278 C.ar      1 <0>        -0.0932
     34 H4          1.0048    1.8381    0.0023 H         1 <0>         0.0763
     35 H5         -0.5450    1.8219   -0.8730 H         1 <0>         0.0887
     36 H6         -0.5280    1.8123    0.9069 H         1 <0>         0.0865
     37 H7         -0.0028   -0.4089   -2.1517 H         1 <0>         0.1709
     38 H8          0.0117    0.3857    2.9353 H         1 <0>         0.1341
     39 H9          0.0586   -1.6213    4.3564 H         1 <0>         0.1280
     40 H10         0.1012   -3.8846    3.4551 H         1 <0>         0.1263
     41 H11        -0.0744   -5.7644    2.4899 H         1 <0>         0.1052
     42 H12        -1.6269   -5.3328    1.7318 H         1 <0>         0.0927
     43 H13        -1.2652   -7.6995   -1.1349 H         1 <0>         0.1320
     44 H14        -2.2876   -6.4199   -0.4381 H         1 <0>         0.1355
     45 H15        -0.5532   -3.2857   -2.4780 H         1 <0>         0.0973
     46 H16         1.0635   -3.6515   -1.8197 H         1 <0>         0.0936
     47 H17        -2.1551   -5.3050   -2.5906 H         1 <0>         0.1238
     48 H18        -0.5634   -4.8642   -3.2543 H         1 <0>         0.1297
     49 H19        -1.0648   -6.5713   -3.2039 H         1 <0>         0.1265
     50 H20        -0.9396   -8.0964    2.5738 H         1 <0>         0.0941
     51 H21        -2.4096   -7.7310    1.6390 H         1 <0>         0.0857
     52 H22        -0.7477   -9.3914    0.0712 H         1 <0>         0.4044
     53 H23        -2.0192  -12.8560    2.4109 H         1 <0>         0.0813
     54 H24        -3.4892  -12.4906    1.4762 H         1 <0>         0.0808
     55 H25        -3.9348  -13.6181   -0.6297 H         1 <0>         0.1240
     56 H26        -3.5753  -15.6415   -1.9860 H         1 <0>         0.1278
     57 H27        -1.6396  -17.0961   -1.5381 H         1 <0>         0.1277
     58 H28        -0.0630  -16.5268    0.2656 H         1 <0>         0.1284
     59 H29        -0.4179  -14.4989    1.6165 H         1 <0>         0.1249
     60 H30         0.4428   -6.0388   -1.4403 H         1 <0>         0.4239
@<TRIPOS>BOND
     1    1    2 1
     2    1   34 1
     3    1   35 1
     4    1   36 1
     5    2    6 1
     6    2    3 1
     7    3    4 2
     8    3   37 1
     9    4   20 1
    10    4    5 1
    11    5   10 ar
    12    5    6 ar
    13    6    7 ar
    14    7    8 ar
    15    7   38 1
    16    8    9 ar
    17    8   39 1
    18    9   10 ar
    19    9   40 1
    20   10   11 1
    21   11   12 1
    22   11   18 1
    23   11   13 1
    24   13   14 1
    25   13   41 1
    26   13   42 1
    27   14   15 1
    28   14   16 1
    29   14   22 1
    30   16   17 1
    31   16   43 1
    32   16   44 1
    33   17   18 1
    34   17   21 1
    35   17   60 1
    36   18   19 1
    37   18   20 1
    38   20   45 1
    39   20   46 1
    40   21   47 1
    41   21   48 1
    42   21   49 1
    43   22   23 1
    44   22   50 1
    45   22   51 1
    46   23   24 am
    47   23   52 1
    48   24   25 2
    49   24   26 1
    50   26   27 1
    51   27   28 1
    52   27   53 1
    53   27   54 1
    54   28   33 ar
    55   28   29 ar
    56   29   30 ar
    57   29   55 1
    58   30   31 ar
    59   30   56 1
    60   31   32 ar
    61   31   57 1
    62   32   33 ar
    63   32   58 1
    64   33   59 1
@<TRIPOS>MOLECULE
ZINC02562379
   26    27     0     0     0
SMALL
USER_CHARGES
3-(2-aminoethyl)-1H-indol-6-ol
@<TRIPOS>ATOM
      1 C1          2.9488    3.1917    3.6835 C.ar      1 <0>        -0.1562
      2 C2          1.8988    2.8641    2.8735 C.ar      1 <0>        -0.0661
      3 C3          1.1584    1.7085    3.1291 C.ar      1 <0>        -0.1109
      4 C4          1.4862    0.8910    4.2263 C.ar      1 <0>         0.1122
      5 C5          2.5581    1.2394    5.0407 C.ar      1 <0>        -0.1533
      6 C6          3.2831    2.3843    4.7675 C.ar      1 <0>         0.1357
      7 O1          4.3308    2.7250    5.5640 O.3       1 <0>        -0.4948
      8 N1          0.5929   -0.1569    4.2335 N.pl3     1 <0>        -0.5872
      9 H1          0.5867   -0.8795    4.8806 H         1 <0>         0.4245
     10 C7         -0.2849   -0.0272    3.1902 C.2       1 <0>         0.0857
     11 C8          0.0000    1.0800    2.4877 C.2       1 <0>        -0.2037
     12 C9         -0.7288    1.5792    1.2668 C.3       1 <0>        -0.0626
     13 C10        -0.0127    1.0858    0.0080 C.3       1 <0>        -0.0037
     14 H2          3.5235    4.0836    3.4819 H         1 <0>         0.1344
     15 H3          1.6453    3.4948    2.0342 H         1 <0>         0.1241
     16 H4          2.8230    0.6181    5.8835 H         1 <0>         0.1325
     17 H5          5.1779    2.3561    5.2789 H         1 <0>         0.3970
     18 H6         -1.0873   -0.7144    2.9659 H         1 <0>         0.1747
     19 H7         -0.7436    2.6691    1.2728 H         1 <0>         0.0924
     20 H8         -1.7514    1.2020    1.2746 H         1 <0>         0.0924
     21 H9          0.0021   -0.0041    0.0020 H         1 <0>         0.1339
     22 H10         1.0099    1.4631    0.0003 H         1 <0>         0.1315
     23 H11        -0.2694    1.2597   -2.0273 H         1 <0>         0.4398
     24 H12        -1.6917    1.2898   -1.1659 H         1 <0>         0.4364
     25 N2         -0.7207    1.5974   -1.1788 N.4       1 <0>        -0.6480
     26 H13        -0.6943    2.6238   -1.1711 H         1 <0>         0.4393
@<TRIPOS>BOND
     1    1    6 ar
     2    1    2 ar
     3    1   14 1
     4    2    3 ar
     5    2   15 1
     6    3   11 1
     7    3    4 ar
     8    4    5 ar
     9    4    8 1
    10    5    6 ar
    11    5   16 1
    12    6    7 1
    13    7   17 1
    14    8    9 1
    15    8   10 1
    16   10   11 2
    17   10   18 1
    18   11   12 1
    19   12   13 1
    20   12   19 1
    21   12   20 1
    22   13   21 1
    23   13   22 1
    24   13   25 1
    25   23   25 1
    26   24   25 1
    27   25   26 1
@<TRIPOS>MOLECULE
ZINC13613346
   70    73     0     0     0
SMALL
USER_CHARGES
1-(5-acetyl-4-methyl-thiazol-2-yl)-3-[(1R,2S)-2-[[(3S)-3-[(4-fluorophenyl)methyl]-1-piperidyl]methyl]cyclohexyl]urea
@<TRIPOS>ATOM
      1 C1         -5.6728    3.5355   10.4423 C.3       1 <0>        -0.0985
      2 C2         -4.6582    2.4944   10.0451 C.2       1 <0>         0.1933
      3 C3         -3.7716    1.9589   10.9773 C.2       1 <0>        -0.3113
      4 S1         -2.8609    0.8186    9.9455 S.3       1 <0>         0.1442
      5 C4         -3.6901    1.1481    8.4559 C.2       1 <0>         0.3169
      6 N1         -4.5788    2.0630    8.8160 N.2       1 <0>        -0.5137
      7 N2         -3.4800    0.5913    7.2086 N.am      1 <0>        -0.6248
      8 C5         -4.2380    0.9759    6.1626 C.2       1 <0>         0.6890
      9 O1         -5.1064    1.8126    6.3164 O.2       1 <0>        -0.4745
     10 N3         -4.0331    0.4330    4.9462 N.am      1 <0>        -0.7457
     11 C6         -4.8570    0.8510    3.8092 C.3       1 <0>         0.1464
     12 H1         -5.0943    1.9108    3.9027 H         1 <0>         0.1167
     13 C7         -6.1528    0.0378    3.7921 C.3       1 <0>        -0.1315
     14 C8         -7.0133    0.4744    2.6047 C.3       1 <0>        -0.1229
     15 C9         -6.2447    0.2367    1.3032 C.3       1 <0>        -0.1247
     16 C10        -4.9489    1.0500    1.3204 C.3       1 <0>        -0.1077
     17 C11        -4.0884    0.6134    2.5078 C.3       1 <0>        -0.1184
     18 H2         -3.8511   -0.4464    2.4143 H         1 <0>         0.1014
     19 C12        -2.7926    1.4266    2.5249 C.3       1 <0>        -0.0042
     20 C13        -1.3448   -0.3944    3.1945 C.3       1 <0>        -0.0167
     21 C14        -0.5437   -0.9679    4.3656 C.3       1 <0>        -0.1472
     22 C15         0.5823    0.0038    4.7329 C.3       1 <0>        -0.1376
     23 C16        -0.0241    1.3672    5.0765 C.3       1 <0>        -0.1063
     24 H3         -0.6734    1.2679    5.9463 H         1 <0>         0.0863
     25 C17        -0.8401    1.8730    3.8848 C.3       1 <0>        -0.0032
     26 C18         1.0969    2.3613    5.3868 C.3       1 <0>        -0.0692
     27 C19         1.8243    1.9254    6.6325 C.ar      1 <0>        -0.1091
     28 C20         1.4045    2.3751    7.8705 C.ar      1 <0>        -0.0849
     29 C21         2.0679    1.9722    9.0140 C.ar      1 <0>        -0.1488
     30 C22         3.1598    1.1261    8.9185 C.ar      1 <0>         0.1092
     31 C23         3.5825    0.6806    7.6776 C.ar      1 <0>        -0.1504
     32 C24         2.9144    1.0806    6.5359 C.ar      1 <0>        -0.0842
     33 F1          3.8119    0.7354   10.0353 F         1 <0>        -0.1325
     34 C25        -3.6351    2.2352   12.3519 C.2       1 <0>         0.4350
     35 O2         -4.3618    3.0514   12.8826 O.2       1 <0>        -0.4405
     36 C26        -2.5875    1.5183   13.1641 C.3       1 <0>        -0.1890
     37 H4         -6.5941    3.0442   10.7553 H         1 <0>         0.0902
     38 H5         -5.2797    4.1299   11.2671 H         1 <0>         0.1003
     39 H6         -5.8785    4.1855    9.5918 H         1 <0>         0.0817
     40 H7         -2.7871   -0.0763    7.0859 H         1 <0>         0.4219
     41 H8         -3.3401   -0.2346    4.8235 H         1 <0>         0.3858
     42 H9         -6.7004    0.2071    4.7192 H         1 <0>         0.0818
     43 H10        -5.9155   -1.0220    3.6986 H         1 <0>         0.0717
     44 H11        -7.2506    1.5341    2.6981 H         1 <0>         0.0725
     45 H12        -7.9365   -0.1050    2.5924 H         1 <0>         0.0786
     46 H13        -6.8577    0.5478    0.4573 H         1 <0>         0.0807
     47 H14        -6.0074   -0.8230    1.2097 H         1 <0>         0.0694
     48 H15        -5.1862    2.1097    1.4138 H         1 <0>         0.0813
     49 H16        -4.4013    0.8806    0.3932 H         1 <0>         0.0849
     50 H17        -3.0228    2.4727    2.7269 H         1 <0>         0.1320
     51 H18        -2.2987    1.3436    1.5568 H         1 <0>         0.1388
     52 H19        -2.1556   -1.0770    2.9402 H         1 <0>         0.1264
     53 H20        -0.6897   -0.2715    2.3320 H         1 <0>         0.1378
     54 H21        -1.2013   -1.1039    5.2242 H         1 <0>         0.0746
     55 H22        -0.1160   -1.9284    4.0782 H         1 <0>         0.1198
     56 H23         1.2618    0.1101    3.8873 H         1 <0>         0.0892
     57 H24         1.1288   -0.3794    5.5946 H         1 <0>         0.1011
     58 H25        -1.2845    2.8372    4.1319 H         1 <0>         0.1269
     59 H26        -0.1875    1.9851    3.0190 H         1 <0>         0.1349
     60 H27         1.7955    2.3937    4.5507 H         1 <0>         0.0889
     61 H28         0.6708    3.3523    5.5428 H         1 <0>         0.0863
     62 H29         0.5554    3.0383    7.9444 H         1 <0>         0.1302
     63 H30         1.7372    2.3204    9.9814 H         1 <0>         0.1395
     64 H31         4.4339    0.0203    7.6019 H         1 <0>         0.1399
     65 H32         3.2442    0.7335    5.5679 H         1 <0>         0.1333
     66 H33        -1.7354    2.0413   13.1451 H         1 <0>         0.0904
     67 H34        -2.9307    1.4200   14.1940 H         1 <0>         0.0983
     68 H35        -2.4155    0.5280   12.7424 H         1 <0>         0.0792
     69 N4         -1.9210    0.9057    3.5983 N.4       1 <0>        -0.4126
     70 H36        -2.4820    0.7719    4.4478 H         1 <0>         0.4031
@<TRIPOS>BOND
     1    1    2 1
     2    1   37 1
     3    1   38 1
     4    1   39 1
     5    2    6 1
     6    2    3 2
     7    3    4 1
     8    3   34 1
     9    4    5 1
    10    5    6 2
    11    5    7 1
    12    7    8 am
    13    7   40 1
    14    8    9 2
    15    8   10 am
    16   10   11 1
    17   10   41 1
    18   11   12 1
    19   11   17 1
    20   11   13 1
    21   13   14 1
    22   13   42 1
    23   13   43 1
    24   14   15 1
    25   14   44 1
    26   14   45 1
    27   15   16 1
    28   15   46 1
    29   15   47 1
    30   16   17 1
    31   16   48 1
    32   16   49 1
    33   17   18 1
    34   17   19 1
    35   19   50 1
    36   19   51 1
    37   19   69 1
    38   20   21 1
    39   20   52 1
    40   20   53 1
    41   20   69 1
    42   21   22 1
    43   21   54 1
    44   21   55 1
    45   22   23 1
    46   22   56 1
    47   22   57 1
    48   23   24 1
    49   23   25 1
    50   23   26 1
    51   25   58 1
    52   25   59 1
    53   25   69 1
    54   26   27 1
    55   26   60 1
    56   26   61 1
    57   27   32 ar
    58   27   28 ar
    59   28   29 ar
    60   28   62 1
    61   29   30 ar
    62   29   63 1
    63   30   31 ar
    64   30   33 1
    65   31   32 ar
    66   31   64 1
    67   32   65 1
    68   34   35 2
    69   34   36 1
    70   36   66 1
    71   36   67 1
    72   36   68 1
    73   69   70 1
@<TRIPOS>MOLECULE
ZINC13679050
   28    29     0     0     0
SMALL
USER_CHARGES
1-[(2S)-2-aminopropyl]-7-fluoro-indazol-6-ol
@<TRIPOS>ATOM
      1 C1         -0.0127    1.0858    0.0080 C.3       1 <0>        -0.1820
      2 C2         -0.7288    1.5792    1.2668 C.3       1 <0>         0.0135
      3 H1         -1.7514    1.2020    1.2746 H         1 <0>         0.1421
      4 C3          0.0111    1.0724    2.5063 C.3       1 <0>         0.1217
      5 N1         -0.7392    1.4432    3.7087 N.pl3     1 <0>        -0.4330
      6 C4         -1.7120    0.6828    4.3060 C.ar      1 <0>         0.1084
      7 C5         -2.1662    1.4099    5.4232 C.ar      1 <0>        -0.1641
      8 C6         -3.1728    0.8783    6.2376 C.ar      1 <0>        -0.0205
      9 C7         -3.7092   -0.3415    5.9463 C.ar      1 <0>        -0.1486
     10 C8         -3.2644   -1.0669    4.8427 C.ar      1 <0>         0.1473
     11 C9         -2.2715   -0.5615    4.0238 C.ar      1 <0>         0.0346
     12 F1         -1.8464   -1.2705    2.9553 F         1 <0>        -0.1316
     13 O1         -3.8115   -2.2811    4.5686 O.3       1 <0>        -0.4825
     14 C10        -1.3966    2.6500    5.4452 C.2       1 <0>         0.1192
     15 N2         -0.5746    2.6269    4.4354 N.2       1 <0>        -0.2739
     16 H2          0.0021   -0.0041    0.0020 H         1 <0>         0.1116
     17 H3          1.0099    1.4631    0.0003 H         1 <0>         0.0885
     18 H4         -0.5399    1.4469   -0.8751 H         1 <0>         0.0921
     19 H5          0.1037   -0.0125    2.4560 H         1 <0>         0.1362
     20 H6          1.0041    1.5203    2.5452 H         1 <0>         0.1222
     21 H7         -3.5243    1.4331    7.0949 H         1 <0>         0.1508
     22 H8         -4.4856   -0.7490    6.5769 H         1 <0>         0.1540
     23 H9         -3.3568   -3.0220    4.9921 H         1 <0>         0.4070
     24 H10        -1.4890    3.4432    6.1723 H         1 <0>         0.2130
     25 H11        -1.2723    3.3983    2.0632 H         1 <0>         0.4369
     26 H12         0.1882    3.4225    1.2680 H         1 <0>         0.4372
     27 N3         -0.7608    3.0524    1.2530 N.4       1 <0>        -0.6421
     28 H13        -1.2315    3.3718    0.3982 H         1 <0>         0.4420
@<TRIPOS>BOND
     1    1    2 1
     2    1   16 1
     3    1   17 1
     4    1   18 1
     5    2    3 1
     6    2    4 1
     7    2   27 1
     8    4    5 1
     9    4   19 1
    10    4   20 1
    11    5   15 1
    12    5    6 1
    13    6   11 ar
    14    6    7 ar
    15    7    8 ar
    16    7   14 1
    17    8    9 ar
    18    8   21 1
    19    9   10 ar
    20    9   22 1
    21   10   11 ar
    22   10   13 1
    23   11   12 1
    24   13   23 1
    25   14   15 2
    26   14   24 1
    27   25   27 1
    28   26   27 1
    29   27   28 1
