@<TRIPOS>MOLECULE
ZINC13766152
   36    39     0     0     0
SMALL
USER_CHARGES
7-fluoro-4-piperazin-1-yl-pyrrolo[1,2-a]quinoxaline
@<TRIPOS>ATOM
      1 C1         -3.4022    2.8245    0.0468 C.2       1 <0>        -0.1668
      2 C2         -2.6061    1.6744    0.0344 C.2       1 <0>        -0.1324
      3 C3         -1.2930    2.0919    0.0195 C.2       1 <0>        -0.0406
      4 C4         -0.0167    1.3776    0.0096 C.2       1 <0>         0.4056
      5 N1          1.1129    2.0507    0.0024 N.2       1 <0>        -0.5189
      6 C5          1.1262    3.4098    0.0091 C.ar      1 <0>         0.1313
      7 C6          2.3480    4.0939    0.0011 C.ar      1 <0>        -0.1113
      8 C7          2.3643    5.4724    0.0055 C.ar      1 <0>         0.1177
      9 C8          1.1751    6.1888    0.0202 C.ar      1 <0>        -0.1214
     10 C9         -0.0365    5.5283    0.0291 C.ar      1 <0>        -0.0882
     11 C10        -0.0716    4.1407    0.0235 C.ar      1 <0>         0.0731
     12 N2         -1.2927    3.4714    0.0316 N.pl3     1 <0>        -0.3537
     13 C11        -2.5792    3.9015    0.0448 C.2       1 <0>         0.0174
     14 F1          3.5444    6.1301   -0.0036 F         1 <0>        -0.1229
     15 N3          0.0021   -0.0041    0.0020 N.pl3     1 <0>        -0.4663
     16 C12        -0.7648   -0.5349   -1.1337 C.3       1 <0>         0.0199
     17 C13        -0.7862   -2.0636   -1.0614 C.3       1 <0>         0.0028
     18 C14         1.3596   -2.0406    0.0584 C.3       1 <0>        -0.0008
     19 C15         1.3810   -0.5120   -0.0139 C.3       1 <0>         0.0345
     20 H1         -4.4819    2.8498    0.0559 H         1 <0>         0.1606
     21 H2         -2.9547    0.6522    0.0329 H         1 <0>         0.1534
     22 H3          3.2764    3.5422   -0.0096 H         1 <0>         0.1565
     23 H4          1.1983    7.2685    0.0242 H         1 <0>         0.1560
     24 H5         -0.9580    6.0913    0.0402 H         1 <0>         0.1487
     25 H6         -2.8961    4.9339    0.0528 H         1 <0>         0.1799
     26 H7         -1.7855   -0.1546   -1.0928 H         1 <0>         0.1396
     27 H8         -0.2967   -0.2215   -2.0668 H         1 <0>         0.0773
     28 H9         -1.3298   -2.4606   -1.9186 H         1 <0>         0.1467
     29 H10        -1.2786   -2.3772   -0.1409 H         1 <0>         0.1444
     30 H11         2.3803   -2.4209    0.0176 H         1 <0>         0.1451
     31 H12         0.8918   -2.3540    0.9917 H         1 <0>         0.1417
     32 H13         1.8735   -0.1983   -0.9343 H         1 <0>         0.0817
     33 H14         1.9247   -0.1149    0.8434 H         1 <0>         0.1356
     34 N4          0.5964   -2.5777   -1.0840 N.4       1 <0>        -0.5203
     35 H15         1.0502   -2.2914   -1.9594 H         1 <0>         0.4325
     36 H16         0.5779   -3.6027   -1.0275 H         1 <0>         0.4416
@<TRIPOS>BOND
     1    1   13 2
     2    1    2 1
     3    1   20 1
     4    2    3 2
     5    2   21 1
     6    3   12 1
     7    3    4 1
     8    4    5 2
     9    4   15 1
    10    5    6 1
    11    6   11 ar
    12    6    7 ar
    13    7    8 ar
    14    7   22 1
    15    8    9 ar
    16    8   14 1
    17    9   10 ar
    18    9   23 1
    19   10   11 ar
    20   10   24 1
    21   11   12 1
    22   12   13 1
    23   13   25 1
    24   15   19 1
    25   15   16 1
    26   16   17 1
    27   16   26 1
    28   16   27 1
    29   17   28 1
    30   17   29 1
    31   17   34 1
    32   18   19 1
    33   18   30 1
    34   18   31 1
    35   18   34 1
    36   19   32 1
    37   19   33 1
    38   34   35 1
    39   34   36 1
@<TRIPOS>MOLECULE
ZINC26898933
   29    30     0     0     0
SMALL
USER_CHARGES
1-methyl-4-(2-pyridyl)piperazine
@<TRIPOS>ATOM
      1 C1         -4.3883   -3.2573    1.0880 C.3       1 <0>         0.0190
      2 N1         -3.1224   -2.5120    1.0794 N.3       1 <0>        -0.5465
      3 C2         -2.2928   -2.8964   -0.0710 C.3       1 <0>         0.0531
      4 C3         -0.9536   -2.1587   -0.0000 C.3       1 <0>         0.0181
      5 N2         -1.1957   -0.7092    0.0101 N.pl3     1 <0>        -0.4734
      6 C4         -2.0254   -0.3249    1.1606 C.3       1 <0>         0.0542
      7 C5         -3.3645   -1.0626    1.0896 C.3       1 <0>         0.0455
      8 C6          0.0021   -0.0041    0.0020 C.ar      1 <0>         0.3612
      9 C7         -0.0168    1.3872    0.0097 C.ar      1 <0>        -0.1498
     10 C8          1.1824    2.0761    0.0019 C.ar      1 <0>         0.0218
     11 C9          2.3650    1.3480   -0.0128 C.ar      1 <0>        -0.1501
     12 C10         2.3098   -0.0311   -0.0202 C.ar      1 <0>         0.1414
     13 N3          1.1508   -0.6622   -0.0125 N.ar      1 <0>        -0.5074
     14 H1         -4.1781   -4.3370    1.0801 H         1 <0>         0.0787
     15 H2         -4.9762   -2.9916    0.1971 H         1 <0>         0.0363
     16 H3         -4.9584   -3.0013    1.9933 H         1 <0>         0.0802
     17 H4         -2.1162   -3.9819   -0.0493 H         1 <0>         0.1037
     18 H5         -2.8115   -2.6279   -1.0031 H         1 <0>         0.0580
     19 H6         -0.4232   -2.4493    0.9188 H         1 <0>         0.0791
     20 H7         -0.3424   -2.4233   -0.8754 H         1 <0>         0.1008
     21 H8         -1.5067   -0.5935    2.0927 H         1 <0>         0.0782
     22 H9         -2.2021    0.7606    1.1390 H         1 <0>         0.1094
     23 H10        -3.8955   -0.7731    0.1708 H         1 <0>         0.0574
     24 H11        -3.9762   -0.7992    1.9650 H         1 <0>         0.1053
     25 H12        -0.9551    1.9218    0.0170 H         1 <0>         0.1818
     26 H13         1.1988    3.1559    0.0072 H         1 <0>         0.1771
     27 H14         3.3181    1.8558   -0.0188 H         1 <0>         0.1828
     28 H15         3.2270   -0.6012   -0.0320 H         1 <0>         0.2068
     29 H16         1.1544   -1.7622   -0.0184 H         1 <0>         0.4773
@<TRIPOS>BOND
     1    1    2 1
     2    1   14 1
     3    1   15 1
     4    1   16 1
     5    2    7 1
     6    2    3 1
     7    3    4 1
     8    3   17 1
     9    3   18 1
    10    4    5 1
    11    4   19 1
    12    4   20 1
    13    5    6 1
    14    5    8 1
    15    6    7 1
    16    6   21 1
    17    6   22 1
    18    7   23 1
    19    7   24 1
    20    8   13 ar
    21    8    9 ar
    22    9   10 ar
    23    9   25 1
    24   10   11 ar
    25   10   26 1
    26   11   12 ar
    27   11   27 1
    28   12   13 ar
    29   12   28 1
    30   13   29 1
@<TRIPOS>MOLECULE
ZINC26898933
   29    30     0     0     0
SMALL
USER_CHARGES
1-methyl-4-(2-pyridyl)piperazine
@<TRIPOS>ATOM
      1 C1         -4.3883   -3.2573    1.0880 C.3       1 <0>        -0.0452
      2 N1         -3.1224   -2.5120    1.0794 N.4       1 <0>        -0.4044
      3 C2         -2.2928   -2.8964   -0.0710 C.3       1 <0>        -0.0035
      4 C3         -0.9536   -2.1587   -0.0000 C.3       1 <0>         0.0371
      5 N2         -1.1957   -0.7092    0.0101 N.pl3     1 <0>        -0.4780
      6 C4         -2.0254   -0.3249    1.1606 C.3       1 <0>         0.0264
      7 C5         -3.3645   -1.0626    1.0896 C.3       1 <0>         0.0010
      8 C6          0.0021   -0.0041    0.0020 C.ar      1 <0>         0.2885
      9 C7         -0.0168    1.3872    0.0097 C.ar      1 <0>        -0.1765
     10 C8          1.1824    2.0761    0.0019 C.ar      1 <0>        -0.0495
     11 C9          2.3650    1.3480   -0.0128 C.ar      1 <0>        -0.1787
     12 C10         2.3098   -0.0311   -0.0202 C.ar      1 <0>         0.1283
     13 N3          1.1508   -0.6622   -0.0125 N.ar      1 <0>        -0.5180
     14 H1         -4.1781   -4.3370    1.0801 H         1 <0>         0.1259
     15 H2         -4.9762   -2.9916    0.1971 H         1 <0>         0.1205
     16 H3         -4.9584   -3.0013    1.9933 H         1 <0>         0.1254
     17 H4         -2.1162   -3.9819   -0.0493 H         1 <0>         0.1412
     18 H5         -2.8115   -2.6279   -1.0031 H         1 <0>         0.1353
     19 H6         -0.4232   -2.4493    0.9188 H         1 <0>         0.0759
     20 H7         -0.3424   -2.4233   -0.8754 H         1 <0>         0.1323
     21 H8         -1.5067   -0.5935    2.0927 H         1 <0>         0.0718
     22 H9         -2.2021    0.7606    1.1390 H         1 <0>         0.1301
     23 H10        -3.8955   -0.7731    0.1708 H         1 <0>         0.1379
     24 H11        -3.9762   -0.7992    1.9650 H         1 <0>         0.1423
     25 H12        -0.9551    1.9218    0.0170 H         1 <0>         0.1385
     26 H13         1.1988    3.1559    0.0072 H         1 <0>         0.1444
     27 H14         3.3181    1.8558   -0.0188 H         1 <0>         0.1440
     28 H15         3.2270   -0.6012   -0.0320 H         1 <0>         0.1649
     29 H16        -2.5727   -2.7710    1.9963 H         1 <0>         0.4423
@<TRIPOS>BOND
     1    1    2 1
     2    1   14 1
     3    1   15 1
     4    1   16 1
     5    2    7 1
     6    2    3 1
     7    2   29 1
     8    3    4 1
     9    3   17 1
    10    3   18 1
    11    4    5 1
    12    4   19 1
    13    4   20 1
    14    5    6 1
    15    5    8 1
    16    6    7 1
    17    6   21 1
    18    6   22 1
    19    7   23 1
    20    7   24 1
    21    8   13 ar
    22    8    9 ar
    23    9   10 ar
    24    9   25 1
    25   10   11 ar
    26   10   26 1
    27   11   12 ar
    28   11   27 1
    29   12   13 ar
    30   12   28 1
@<TRIPOS>MOLECULE
ZINC26898933
   28    29     0     0     0
SMALL
USER_CHARGES
1-methyl-4-(2-pyridyl)piperazine
@<TRIPOS>ATOM
      1 C1         -4.3883   -3.2573    1.0880 C.3       1 <0>         0.0224
      2 N1         -3.1224   -2.5120    1.0794 N.3       1 <0>        -0.5463
      3 C2         -2.2928   -2.8964   -0.0710 C.3       1 <0>         0.0501
      4 C3         -0.9536   -2.1587   -0.0000 C.3       1 <0>         0.0687
      5 N2         -1.1957   -0.7092    0.0101 N.pl3     1 <0>        -0.4801
      6 C4         -2.0254   -0.3249    1.1606 C.3       1 <0>         0.0604
      7 C5         -3.3645   -1.0626    1.0896 C.3       1 <0>         0.0538
      8 C6          0.0021   -0.0041    0.0020 C.ar      1 <0>         0.3120
      9 C7         -0.0168    1.3872    0.0097 C.ar      1 <0>        -0.1876
     10 C8          1.1824    2.0761    0.0019 C.ar      1 <0>        -0.0532
     11 C9          2.3650    1.3480   -0.0128 C.ar      1 <0>        -0.2020
     12 C10         2.3098   -0.0311   -0.0202 C.ar      1 <0>         0.1261
     13 N3          1.1508   -0.6622   -0.0125 N.ar      1 <0>        -0.5206
     14 H1         -4.1781   -4.3370    1.0801 H         1 <0>         0.0714
     15 H2         -4.9762   -2.9916    0.1971 H         1 <0>         0.0281
     16 H3         -4.9584   -3.0013    1.9933 H         1 <0>         0.0711
     17 H4         -2.1162   -3.9819   -0.0493 H         1 <0>         0.0867
     18 H5         -2.8115   -2.6279   -1.0031 H         1 <0>         0.0436
     19 H6         -0.4232   -2.4493    0.9188 H         1 <0>         0.0604
     20 H7         -0.3424   -2.4233   -0.8754 H         1 <0>         0.0915
     21 H8         -1.5067   -0.5935    2.0927 H         1 <0>         0.0562
     22 H9         -2.2021    0.7606    1.1390 H         1 <0>         0.0897
     23 H10        -3.8955   -0.7731    0.1708 H         1 <0>         0.0466
     24 H11        -3.9762   -0.7992    1.9650 H         1 <0>         0.0880
     25 H12        -0.9551    1.9218    0.0170 H         1 <0>         0.1352
     26 H13         1.1988    3.1559    0.0072 H         1 <0>         0.1362
     27 H14         3.3181    1.8558   -0.0188 H         1 <0>         0.1348
     28 H15         3.2270   -0.6012   -0.0320 H         1 <0>         0.1568
@<TRIPOS>BOND
     1    1    2 1
     2    1   14 1
     3    1   15 1
     4    1   16 1
     5    2    7 1
     6    2    3 1
     7    3    4 1
     8    3   17 1
     9    3   18 1
    10    4    5 1
    11    4   19 1
    12    4   20 1
    13    5    6 1
    14    5    8 1
    15    6    7 1
    16    6   21 1
    17    6   22 1
    18    7   23 1
    19    7   24 1
    20    8   13 ar
    21    8    9 ar
    22    9   10 ar
    23    9   25 1
    24   10   11 ar
    25   10   26 1
    26   11   12 ar
    27   11   27 1
    28   12   13 ar
    29   12   28 1
@<TRIPOS>MOLECULE
ZINC01499769
   38    41     0     0     0
SMALL
USER_CHARGES
fluoro-(4-methylpiperazin-1-yl)-BLAH
@<TRIPOS>ATOM
      1 C1         -6.4205   -0.0475    1.1249 C.3       1 <0>        -0.0407
      2 C2         -4.7294   -1.3323   -0.0387 C.3       1 <0>         0.0005
      3 C3         -3.2738   -1.8013    0.0248 C.3       1 <0>         0.0334
      4 N1         -2.3845   -0.6314    0.0222 N.pl3     1 <0>        -0.4603
      5 C4         -2.6653    0.2426    1.1697 C.3       1 <0>         0.0245
      6 C5         -4.1208    0.7115    1.1063 C.3       1 <0>         0.0055
      7 C6         -1.0573   -1.0181    0.0071 C.2       1 <0>         0.4224
      8 C7          0.0021   -0.0041    0.0020 C.2       1 <0>         0.1537
      9 N2         -0.0158    1.3144    0.0093 N.2       1 <0>        -0.4398
     10 C8          1.2375    1.7701   -0.0003 C.2       1 <0>         0.0165
     11 C9          2.0802    0.7098   -0.0140 C.2       1 <0>        -0.0273
     12 N3          1.3105   -0.4115   -0.0126 N.pl3     1 <0>        -0.3609
     13 C10         1.5973   -1.7680   -0.0217 C.ar      1 <0>         0.0688
     14 C11         2.9154   -2.2072   -0.0356 C.ar      1 <0>        -0.0825
     15 C12         3.1935   -3.5574   -0.0454 C.ar      1 <0>        -0.1183
     16 C13         2.1615   -4.4877   -0.0406 C.ar      1 <0>         0.1239
     17 C14         0.8483   -4.0717   -0.0264 C.ar      1 <0>        -0.1080
     18 C15         0.5490   -2.7031   -0.0168 C.ar      1 <0>         0.1322
     19 N4         -0.7448   -2.2936   -0.0023 N.2       1 <0>        -0.4987
     20 F1          2.4476   -5.8080   -0.0495 F         1 <0>        -0.1201
     21 H1         -7.0555   -0.9306    1.1946 H         1 <0>         0.1236
     22 H2         -6.6010    0.5985    1.9841 H         1 <0>         0.1238
     23 H3         -6.6515    0.4947    0.2079 H         1 <0>         0.1253
     24 H4         -4.8937   -0.7810   -0.9646 H         1 <0>         0.1420
     25 H5         -5.3918   -2.1974   -0.0081 H         1 <0>         0.1426
     26 H6         -3.0551   -2.4263   -0.8410 H         1 <0>         0.1365
     27 H7         -3.1164   -2.3758    0.9376 H         1 <0>         0.0827
     28 H8         -2.5009   -0.3087    2.0956 H         1 <0>         0.0740
     29 H9         -2.0029    1.1077    1.1387 H         1 <0>         0.1489
     30 H10        -4.2783    1.2861    0.1934 H         1 <0>         0.1454
     31 H11        -4.3399    1.3368    1.9718 H         1 <0>         0.1434
     32 H12         1.5311    2.8094    0.0025 H         1 <0>         0.1961
     33 H13         3.1595    0.7476   -0.0238 H         1 <0>         0.1956
     34 H14         3.7229   -1.4901   -0.0394 H         1 <0>         0.1509
     35 H15         4.2196   -3.8941   -0.0566 H         1 <0>         0.1585
     36 H16         0.0505   -4.7997   -0.0231 H         1 <0>         0.1603
     37 N5         -5.0046   -0.4731    1.1319 N.4       1 <0>        -0.4023
     38 H17        -4.8212   -1.0079    1.9890 H         1 <0>         0.4280
@<TRIPOS>BOND
     1    1   21 1
     2    1   22 1
     3    1   23 1
     4    1   37 1
     5    2    3 1
     6    2   24 1
     7    2   25 1
     8    2   37 1
     9    3    4 1
    10    3   26 1
    11    3   27 1
    12    4    5 1
    13    4    7 1
    14    5    6 1
    15    5   28 1
    16    5   29 1
    17    6   30 1
    18    6   31 1
    19    6   37 1
    20    7   19 2
    21    7    8 1
    22    8   12 1
    23    8    9 2
    24    9   10 1
    25   10   11 2
    26   10   32 1
    27   11   12 1
    28   11   33 1
    29   12   13 1
    30   13   18 ar
    31   13   14 ar
    32   14   15 ar
    33   14   34 1
    34   15   16 ar
    35   15   35 1
    36   16   17 ar
    37   16   20 1
    38   17   18 ar
    39   17   36 1
    40   18   19 1
    41   37   38 1
@<TRIPOS>MOLECULE
ZINC01499710
   38    41     0     0     0
SMALL
USER_CHARGES
(4-methylpiperazin-1-yl)BLAH
@<TRIPOS>ATOM
      1 C1          0.1921   11.3141    1.1180 C.3       1 <0>        -0.0406
      2 C2         -0.4854    9.2901   -0.0260 C.3       1 <0>         0.0006
      3 C3         -0.4545    7.7616    0.0463 C.3       1 <0>         0.0345
      4 N1          0.9410    7.3012    0.0309 N.pl3     1 <0>        -0.4605
      5 C4          1.6888    7.8580    1.1669 C.3       1 <0>         0.0247
      6 C5          1.6578    9.3864    1.0946 C.3       1 <0>         0.0058
      7 C6          1.0071    5.9204    0.0233 C.2       1 <0>         0.4088
      8 C7          2.3105    5.2485    0.0073 C.2       1 <0>         0.1576
      9 N2          3.5514    5.6939   -0.0022 N.2       1 <0>        -0.4439
     10 C8          4.3898    4.6567   -0.0158 C.2       1 <0>         0.0146
     11 C9          3.6612    3.5151   -0.0149 C.2       1 <0>        -0.0306
     12 N3          2.3505    3.8785    0.0005 N.pl3     1 <0>        -0.3627
     13 C10         1.1615    3.1664    0.0075 C.ar      1 <0>         0.0822
     14 C11         1.1745    1.7772    0.0004 C.ar      1 <0>        -0.1169
     15 C12        -0.0126    1.0758    0.0080 C.ar      1 <0>        -0.0807
     16 C13        -1.2257    1.7487    0.0174 C.ar      1 <0>        -0.1034
     17 C14        -1.2601    3.1238    0.0299 C.ar      1 <0>        -0.0659
     18 C15        -0.0638    3.8532    0.0224 C.ar      1 <0>         0.0987
     19 N4         -0.0974    5.2099    0.0300 N.2       1 <0>        -0.4938
     20 H1         -0.8488   11.6277    1.1974 H         1 <0>         0.1234
     21 H2          0.7537   11.7001    1.9688 H         1 <0>         0.1235
     22 H3          0.6193   11.7034    0.1939 H         1 <0>         0.1251
     23 H4         -0.0280    9.6193   -0.9590 H         1 <0>         0.1416
     24 H5         -1.5186    9.6352    0.0140 H         1 <0>         0.1419
     25 H6         -0.9839    7.3462   -0.8112 H         1 <0>         0.1354
     26 H7         -0.9363    7.4312    0.9665 H         1 <0>         0.0812
     27 H8          1.2313    7.5287    2.0999 H         1 <0>         0.0724
     28 H9          2.7219    7.5128    1.1265 H         1 <0>         0.1480
     29 H10         2.1396    9.7168    0.1744 H         1 <0>         0.1450
     30 H11         2.1874    9.8022    1.9519 H         1 <0>         0.1427
     31 H12         5.4681    4.7170   -0.0254 H         1 <0>         0.1947
     32 H13         4.0478    2.5067   -0.0240 H         1 <0>         0.1935
     33 H14         2.1150    1.2463   -0.0114 H         1 <0>         0.1395
     34 H15         0.0021   -0.0041    0.0020 H         1 <0>         0.1450
     35 H16        -2.1494    1.1891    0.0191 H         1 <0>         0.1453
     36 H17        -2.2082    3.6407    0.0415 H         1 <0>         0.1475
     37 N5          0.2505    9.8368    1.1332 N.4       1 <0>        -0.4021
     38 H18        -0.1860    9.4946    1.9973 H         1 <0>         0.4278
@<TRIPOS>BOND
     1    1   20 1
     2    1   21 1
     3    1   22 1
     4    1   37 1
     5    2    3 1
     6    2   23 1
     7    2   24 1
     8    2   37 1
     9    3    4 1
    10    3   25 1
    11    3   26 1
    12    4    5 1
    13    4    7 1
    14    5    6 1
    15    5   27 1
    16    5   28 1
    17    6   29 1
    18    6   30 1
    19    6   37 1
    20    7   19 2
    21    7    8 1
    22    8   12 1
    23    8    9 2
    24    9   10 1
    25   10   11 2
    26   10   31 1
    27   11   12 1
    28   11   32 1
    29   12   13 1
    30   13   18 ar
    31   13   14 ar
    32   14   15 ar
    33   14   33 1
    34   15   16 ar
    35   15   34 1
    36   16   17 ar
    37   16   35 1
    38   17   18 ar
    39   17   36 1
    40   18   19 1
    41   37   38 1
@<TRIPOS>MOLECULE
ZINC13801466
   39    42     0     0     0
SMALL
USER_CHARGES
7-methyl-4-piperazin-1-yl-pyrrolo[1,2-a]quinoxaline
@<TRIPOS>ATOM
      1 C1          3.6797    6.2047   -0.0017 C.3       1 <0>        -0.1201
      2 C2          2.3633    5.4713    0.0075 C.ar      1 <0>        -0.0719
      3 C3          1.1763    6.1874    0.0222 C.ar      1 <0>        -0.0859
      4 C4         -0.0362    5.5281    0.0307 C.ar      1 <0>        -0.1166
      5 C5         -0.0719    4.1405    0.0246 C.ar      1 <0>         0.0795
      6 C6          1.1259    3.4099    0.0096 C.ar      1 <0>         0.1038
      7 C7          2.3474    4.0948    0.0016 C.ar      1 <0>        -0.0735
      8 N1          1.1129    2.0508    0.0024 N.2       1 <0>        -0.5141
      9 C8         -0.0167    1.3776    0.0096 C.2       1 <0>         0.3926
     10 C9         -1.2931    2.0920    0.0196 C.2       1 <0>        -0.0363
     11 N2         -1.2926    3.4716    0.0327 N.pl3     1 <0>        -0.3533
     12 C10        -2.5792    3.9018    0.0466 C.2       1 <0>         0.0131
     13 C11        -3.4022    2.8249    0.0485 C.2       1 <0>        -0.1680
     14 C12        -2.6060    1.6747    0.0354 C.2       1 <0>        -0.1387
     15 N3          0.0021   -0.0041    0.0020 N.pl3     1 <0>        -0.4660
     16 C13        -0.7648   -0.5349   -1.1337 C.3       1 <0>         0.0200
     17 C14        -0.7862   -2.0636   -1.0614 C.3       1 <0>         0.0029
     18 C15         1.3596   -2.0406    0.0584 C.3       1 <0>        -0.0008
     19 C16         1.3810   -0.5120   -0.0139 C.3       1 <0>         0.0356
     20 H1          4.0070    6.3767    1.0237 H         1 <0>         0.0800
     21 H2          4.4253    5.6065   -0.5255 H         1 <0>         0.0729
     22 H3          3.5591    7.1614   -0.5099 H         1 <0>         0.0754
     23 H4          1.2005    7.2671    0.0266 H         1 <0>         0.1421
     24 H5         -0.9572    6.0919    0.0418 H         1 <0>         0.1378
     25 H6          3.2761    3.5436   -0.0095 H         1 <0>         0.1430
     26 H7         -2.8961    4.9343    0.0553 H         1 <0>         0.1776
     27 H8         -4.4818    2.8503    0.0579 H         1 <0>         0.1588
     28 H9         -2.9547    0.6525    0.0338 H         1 <0>         0.1517
     29 H10        -1.7855   -0.1546   -1.0928 H         1 <0>         0.1389
     30 H11        -0.2967   -0.2215   -2.0668 H         1 <0>         0.0757
     31 H12        -1.3298   -2.4606   -1.9186 H         1 <0>         0.1459
     32 H13        -1.2786   -2.3772   -0.1409 H         1 <0>         0.1440
     33 H14         2.3803   -2.4209    0.0176 H         1 <0>         0.1443
     34 H15         0.8918   -2.3540    0.9917 H         1 <0>         0.1413
     35 H16         1.8735   -0.1983   -0.9343 H         1 <0>         0.0802
     36 H17         1.9247   -0.1149    0.8434 H         1 <0>         0.1346
     37 N4          0.5964   -2.5777   -1.0840 N.4       1 <0>        -0.5200
     38 H18         1.0502   -2.2914   -1.9594 H         1 <0>         0.4322
     39 H19         0.5779   -3.6027   -1.0275 H         1 <0>         0.4410
@<TRIPOS>BOND
     1    1    2 1
     2    1   20 1
     3    1   21 1
     4    1   22 1
     5    2    7 ar
     6    2    3 ar
     7    3    4 ar
     8    3   23 1
     9    4    5 ar
    10    4   24 1
    11    5   11 1
    12    5    6 ar
    13    6    7 ar
    14    6    8 1
    15    7   25 1
    16    8    9 2
    17    9   10 1
    18    9   15 1
    19   10   14 2
    20   10   11 1
    21   11   12 1
    22   12   13 2
    23   12   26 1
    24   13   14 1
    25   13   27 1
    26   14   28 1
    27   15   19 1
    28   15   16 1
    29   16   17 1
    30   16   29 1
    31   16   30 1
    32   17   31 1
    33   17   32 1
    34   17   37 1
    35   18   19 1
    36   18   33 1
    37   18   34 1
    38   18   37 1
    39   19   35 1
    40   19   36 1
    41   37   38 1
    42   37   39 1
@<TRIPOS>MOLECULE
ZINC08684187
   41    44     0     0     0
SMALL
USER_CHARGES

@<TRIPOS>ATOM
      1 C1         -0.0167    1.3797    0.0096 C.ar      1 <0>        -0.0543
      2 C2          1.1779    2.0988    0.0021 C.ar      1 <0>        -0.0896
      3 C3          2.3983    1.4101   -0.0133 C.ar      1 <0>         0.1142
      4 C4          2.4077    0.0057   -0.0209 C.ar      1 <0>         0.0890
      5 C5          1.1979   -0.6923   -0.0131 C.ar      1 <0>         0.0621
      6 C6          0.0021   -0.0041    0.0020 C.ar      1 <0>        -0.0132
      7 Cl1        -1.4948   -0.8833    0.0116 Cl        1 <0>        -0.0044
      8 N1          1.1986   -2.1725   -0.0211 N.pl3     1 <0>         0.0204
      9 O1          1.2089   -2.7826    1.0226 O.2       1 <0>        -0.1120
     10 O2          1.1889   -2.7713   -1.0713 O.3       1 <0>        -0.1106
     11 N2          3.7102   -0.3805   -0.0359 N.2       1 <0>        -0.4842
     12 C7          4.4759    0.6711   -0.0378 C.2       1 <0>         0.3133
     13 N3          3.7171    1.8010   -0.0242 N.pl3     1 <0>        -0.5768
     14 H1          4.0457    2.7137   -0.0226 H         1 <0>         0.4446
     15 C8          1.1572    3.5739    0.0097 C.2       1 <0>         0.5768
     16 O3          2.2016    4.1966    0.0031 O.2       1 <0>        -0.5187
     17 N4         -0.0193    4.2313    0.0241 N.am      1 <0>        -0.7234
     18 C9         -0.0398    5.6961    0.0317 C.3       1 <0>         0.1370
     19 H2          0.7907    6.0762   -0.5633 H         1 <0>         0.1303
     20 C10         0.0855    6.2033    1.4701 C.3       1 <0>        -0.0230
     21 N5         -1.0925    6.9979    1.8261 N.4       1 <0>        -0.3747
     22 C11        -2.3065    6.1815    1.7530 C.3       1 <0>        -0.0102
     23 C12        -2.5112    5.6735    0.3240 C.3       1 <0>        -0.1428
     24 C13        -1.3655    6.1948   -0.5583 C.3       1 <0>        -0.1100
     25 C14        -1.3733    7.7282   -0.5030 C.3       1 <0>        -0.1333
     26 C15        -1.2060    8.1704    0.9554 C.3       1 <0>        -0.0102
     27 H3         -0.9604    1.9047    0.0260 H         1 <0>         0.1619
     28 H4          5.5557    0.6507   -0.0486 H         1 <0>         0.2416
     29 H5         -0.8524    3.7345    0.0294 H         1 <0>         0.4089
     30 H6          0.1666    5.3533    2.1475 H         1 <0>         0.1338
     31 H7          0.9790    6.8212    1.5592 H         1 <0>         0.1419
     32 H8         -2.2120    5.3316    2.4289 H         1 <0>         0.1305
     33 H9         -3.1655    6.7834    2.0494 H         1 <0>         0.1360
     34 H10        -2.5076    4.5835    0.3198 H         1 <0>         0.0956
     35 H11        -3.4632    6.0391   -0.0608 H         1 <0>         0.1114
     36 H12        -1.4809    5.8389   -1.5821 H         1 <0>         0.1281
     37 H13        -0.5491    8.1195   -1.0993 H         1 <0>         0.1056
     38 H14        -2.3194    8.1030   -0.8935 H         1 <0>         0.1099
     39 H15        -2.0708    8.7618    1.2562 H         1 <0>         0.1348
     40 H16        -0.3053    8.7774    1.0469 H         1 <0>         0.1334
     41 H17        -0.9873    7.3160    2.7778 H         1 <0>         0.4301
@<TRIPOS>BOND
     1    1    6 ar
     2    1    2 ar
     3    1   27 1
     4    2    3 ar
     5    2   15 1
     6    3   13 1
     7    3    4 ar
     8    4    5 ar
     9    4   11 1
    10    5    6 ar
    11    5    8 1
    12    6    7 1
    13    8    9 2
    14    8   10 1
    15   11   12 2
    16   12   13 1
    17   12   28 1
    18   13   14 1
    19   15   16 2
    20   15   17 am
    21   17   18 1
    22   17   29 1
    23   18   19 1
    24   18   24 1
    25   18   20 1
    26   20   21 1
    27   20   30 1
    28   20   31 1
    29   21   26 1
    30   21   22 1
    31   21   41 1
    32   22   23 1
    33   22   32 1
    34   22   33 1
    35   23   24 1
    36   23   34 1
    37   23   35 1
    38   24   25 1
    39   24   36 1
    40   25   26 1
    41   25   37 1
    42   25   38 1
    43   26   39 1
    44   26   40 1
@<TRIPOS>MOLECULE
ZINC13802650
   42    45     0     0     0
SMALL
USER_CHARGES

@<TRIPOS>ATOM
      1 C1         -0.0178    1.4648    0.0101 C.3       1 <0>        -0.0430
      2 N1          0.0021   -0.0041    0.0020 N.4       1 <0>        -0.3971
      3 C2         -1.3736   -0.5473    0.1574 C.3       1 <0>         0.0386
      4 H1         -2.0955   -0.0286   -0.4735 H         1 <0>         0.1524
      5 C3         -1.6823   -0.3750    1.6625 C.3       1 <0>        -0.1450
      6 C4         -0.3012   -0.3601    2.3500 C.3       1 <0>        -0.1446
      7 C5          0.7165   -0.5247    1.1979 C.3       1 <0>         0.0408
      8 H2          1.6459    0.0118    1.3892 H         1 <0>         0.1560
      9 C6          0.9375   -2.0297    0.9772 C.3       1 <0>        -0.1538
     10 C7         -0.4245   -2.7273    0.9179 C.3       1 <0>         0.1368
     11 C8         -1.3075   -2.0510   -0.1543 C.3       1 <0>        -0.1581
     12 N2         -0.2350   -4.1372    0.5680 N.am      1 <0>        -0.7328
     13 C9         -1.1563   -5.0514    0.9313 C.2       1 <0>         0.5669
     14 O1         -2.1449   -4.7058    1.5495 O.2       1 <0>        -0.4935
     15 C10        -0.9657   -6.4700    0.5792 C.ar      1 <0>        -0.0857
     16 C11         0.1672   -6.8728   -0.1237 C.ar      1 <0>        -0.0751
     17 C12         0.3474   -8.2040   -0.4549 C.ar      1 <0>        -0.0379
     18 C13        -0.5915   -9.1527   -0.0948 C.ar      1 <0>        -0.0589
     19 C14        -1.7283   -8.7774    0.6055 C.ar      1 <0>         0.0426
     20 C15        -1.9263   -7.4315    0.9565 C.ar      1 <0>         0.1092
     21 N3         -3.0935   -7.3645    1.6273 N.2       1 <0>        -0.4768
     22 C16        -3.6185   -8.5533    1.7189 C.2       1 <0>         0.2862
     23 N4         -2.8224   -9.4627    1.0975 N.pl3     1 <0>        -0.5937
     24 H3         -2.9861  -10.4159    1.0232 H         1 <0>         0.4328
     25 Cl1         1.7658   -8.6874   -1.3314 Cl        1 <0>        -0.0454
     26 H4          1.0047    1.8421    0.0024 H         1 <0>         0.1221
     27 H5         -0.5450    1.8259   -0.8730 H         1 <0>         0.1222
     28 H6         -0.5280    1.8163    0.9069 H         1 <0>         0.1216
     29 H7         -2.2034    0.5662    1.8375 H         1 <0>         0.1005
     30 H8         -2.2779   -1.2126    2.0258 H         1 <0>         0.1174
     31 H9         -0.1432    0.5886    2.8631 H         1 <0>         0.1013
     32 H10        -0.2177   -1.1902    3.0515 H         1 <0>         0.1137
     33 H11         1.4693   -2.1869    0.0388 H         1 <0>         0.0951
     34 H12         1.5211   -2.4379    1.8024 H         1 <0>         0.1208
     35 H13        -0.9099   -2.6582    1.8914 H         1 <0>         0.1132
     36 H14        -2.3108   -2.4756   -0.1193 H         1 <0>         0.1186
     37 H15        -0.8806   -2.1999   -1.1461 H         1 <0>         0.0924
     38 H16         0.5535   -4.4128    0.0749 H         1 <0>         0.4032
     39 H17         0.9085   -6.1423   -0.4121 H         1 <0>         0.1410
     40 H18        -0.4396  -10.1886   -0.3599 H         1 <0>         0.1442
     41 H19        -4.5540   -8.7811    2.2080 H         1 <0>         0.2270
     42 H20         0.4289   -0.3487   -0.8448 H         1 <0>         0.4250
@<TRIPOS>BOND
     1    1    2 1
     2    1   26 1
     3    1   27 1
     4    1   28 1
     5    2    7 1
     6    2    3 1
     7    2   42 1
     8    3    4 1
     9    3   11 1
    10    3    5 1
    11    5    6 1
    12    5   29 1
    13    5   30 1
    14    6    7 1
    15    6   31 1
    16    6   32 1
    17    7    8 1
    18    7    9 1
    19    9   10 1
    20    9   33 1
    21    9   34 1
    22   10   11 1
    23   10   12 1
    24   10   35 1
    25   11   36 1
    26   11   37 1
    27   12   13 am
    28   12   38 1
    29   13   14 2
    30   13   15 1
    31   15   20 ar
    32   15   16 ar
    33   16   17 ar
    34   16   39 1
    35   17   18 ar
    36   17   25 1
    37   18   19 ar
    38   18   40 1
    39   19   23 1
    40   19   20 ar
    41   20   21 1
    42   21   22 2
    43   22   23 1
    44   22   41 1
    45   23   24 1
@<TRIPOS>MOLECULE
ZINC08467492
   41    44     0     0     0
SMALL
USER_CHARGES

@<TRIPOS>ATOM
      1 C1         -0.0167    1.3797    0.0096 C.ar      1 <0>        -0.0543
      2 C2          1.1779    2.0988    0.0021 C.ar      1 <0>        -0.0896
      3 C3          2.3983    1.4101   -0.0133 C.ar      1 <0>         0.1142
      4 C4          2.4077    0.0057   -0.0209 C.ar      1 <0>         0.0890
      5 C5          1.1979   -0.6923   -0.0131 C.ar      1 <0>         0.0621
      6 C6          0.0021   -0.0041    0.0020 C.ar      1 <0>        -0.0132
      7 Cl1        -1.4948   -0.8833    0.0116 Cl        1 <0>        -0.0044
      8 N1          1.1986   -2.1725   -0.0211 N.pl3     1 <0>         0.0204
      9 O1          1.2089   -2.7826    1.0226 O.2       1 <0>        -0.1106
     10 O2          1.1889   -2.7713   -1.0713 O.3       1 <0>        -0.1119
     11 N2          3.7102   -0.3805   -0.0359 N.2       1 <0>        -0.4842
     12 C7          4.4759    0.6711   -0.0378 C.2       1 <0>         0.3133
     13 N3          3.7171    1.8010   -0.0242 N.pl3     1 <0>        -0.5768
     14 H1          4.0457    2.7137   -0.0226 H         1 <0>         0.4446
     15 C8          1.1572    3.5739    0.0097 C.2       1 <0>         0.5768
     16 O3          2.2016    4.1966    0.0031 O.2       1 <0>        -0.5187
     17 N4         -0.0193    4.2313    0.0241 N.am      1 <0>        -0.7234
     18 C9         -0.0398    5.6961    0.0317 C.3       1 <0>         0.1372
     19 H2          0.8017    6.0702    0.6148 H         1 <0>         0.1302
     20 C10         0.0586    6.2178   -1.4036 C.3       1 <0>        -0.0230
     21 N5         -1.1262    7.0152   -1.7297 N.4       1 <0>        -0.3747
     22 C11        -1.2237    8.1791   -0.8456 C.3       1 <0>        -0.0104
     23 C12        -1.3645    7.7225    0.6082 C.3       1 <0>        -0.1348
     24 C13        -1.3541    6.1887    0.6514 C.3       1 <0>        -0.1103
     25 C14        -2.5167    5.6756   -0.2085 C.3       1 <0>        -0.1409
     26 C15        -2.3383    6.1975   -1.6419 C.3       1 <0>        -0.0101
     27 H3         -0.9604    1.9047    0.0260 H         1 <0>         0.1619
     28 H4          5.5557    0.6507   -0.0486 H         1 <0>         0.2416
     29 H5         -0.8524    3.7345    0.0294 H         1 <0>         0.4089
     30 H6          0.9500    6.8372   -1.5030 H         1 <0>         0.1418
     31 H7          0.1275    5.3747   -2.0910 H         1 <0>         0.1338
     32 H8         -0.3251    8.7875   -0.9482 H         1 <0>         0.1335
     33 H9         -2.0942    8.7729   -1.1242 H         1 <0>         0.1348
     34 H10        -0.5305    8.1082    1.1946 H         1 <0>         0.1054
     35 H11        -2.3040    8.0932    1.0181 H         1 <0>         0.1098
     36 H12        -1.4420    5.8373    1.6795 H         1 <0>         0.1281
     37 H13        -2.5131    4.5857   -0.2149 H         1 <0>         0.0955
     38 H14        -3.4604    6.0373    0.1998 H         1 <0>         0.1116
     39 H15        -3.2029    6.8018   -1.9164 H         1 <0>         0.1359
     40 H16        -2.2561    5.3542   -2.3276 H         1 <0>         0.1307
     41 H17        -1.0348    7.3499   -2.6772 H         1 <0>         0.4301
@<TRIPOS>BOND
     1    1    6 ar
     2    1    2 ar
     3    1   27 1
     4    2    3 ar
     5    2   15 1
     6    3   13 1
     7    3    4 ar
     8    4    5 ar
     9    4   11 1
    10    5    6 ar
    11    5    8 1
    12    6    7 1
    13    8    9 2
    14    8   10 1
    15   11   12 2
    16   12   13 1
    17   12   28 1
    18   13   14 1
    19   15   16 2
    20   15   17 am
    21   17   18 1
    22   17   29 1
    23   18   19 1
    24   18   24 1
    25   18   20 1
    26   20   21 1
    27   20   30 1
    28   20   31 1
    29   21   26 1
    30   21   22 1
    31   21   41 1
    32   22   23 1
    33   22   32 1
    34   22   33 1
    35   23   24 1
    36   23   34 1
    37   23   35 1
    38   24   25 1
    39   24   36 1
    40   25   26 1
    41   25   37 1
    42   25   38 1
    43   26   39 1
    44   26   40 1
@<TRIPOS>MOLECULE
ZINC17193772
   42    45     0     0     0
SMALL
USER_CHARGES
N-[(1R,5S)-8-methyl-8-azabicyclo[3.2.1]octan-3-yl]-1H-benzimidazole-4-carboxamide
@<TRIPOS>ATOM
      1 C1         -1.6016   -8.0927   -1.2446 C.3       1 <0>        -0.0372
      2 C2          0.0846   -6.3494   -1.4750 C.3       1 <0>         0.0351
      3 H1          0.3033   -6.7828   -2.4509 H         1 <0>         0.1569
      4 C3          1.0055   -6.9098   -0.3668 C.3       1 <0>        -0.1467
      5 C4          0.1296   -6.9279    0.9032 C.3       1 <0>        -0.1454
      6 C5         -1.2410   -6.3768    0.4470 C.3       1 <0>         0.0379
      7 H2         -2.0755   -6.8231    0.9879 H         1 <0>         0.1598
      8 C6         -1.2061   -4.8474    0.5961 C.3       1 <0>        -0.1554
      9 C7          0.0906   -4.3184   -0.0234 C.3       1 <0>         0.1364
     10 C8          0.2159   -4.8179   -1.4656 C.3       1 <0>        -0.1594
     11 N1          0.0727   -2.8536   -0.0149 N.am      1 <0>        -0.7336
     12 C9          1.2314   -2.1654   -0.0218 C.2       1 <0>         0.5641
     13 O1          2.2919   -2.7604   -0.0351 O.2       1 <0>        -0.4989
     14 C10         1.2134   -0.6915   -0.0132 C.ar      1 <0>        -0.1015
     15 C11         0.0021   -0.0041    0.0020 C.ar      1 <0>        -0.0826
     16 C12        -0.0167    1.3782    0.0096 C.ar      1 <0>        -0.1187
     17 C13         1.1621    2.0986    0.0022 C.ar      1 <0>        -0.0681
     18 C14         2.3821    1.4390   -0.0129 C.ar      1 <0>         0.0320
     19 C15         2.4226    0.0347   -0.0208 C.ar      1 <0>         0.1039
     20 N2          3.7215   -0.3241   -0.0351 N.2       1 <0>        -0.4810
     21 C16         4.4732    0.7402   -0.0366 C.2       1 <0>         0.2774
     22 N3          3.6991    1.8566   -0.0232 N.pl3     1 <0>        -0.6007
     23 H3          4.0220    2.8030   -0.0212 H         1 <0>         0.4363
     24 H4         -2.5716   -8.3285   -0.8069 H         1 <0>         0.1241
     25 H5         -1.6306   -8.2847   -2.3171 H         1 <0>         0.1235
     26 H6         -0.8344   -8.7155   -0.7846 H         1 <0>         0.1184
     27 H7          1.3302   -7.9195   -0.6180 H         1 <0>         0.0998
     28 H8          1.8672   -6.2578   -0.2240 H         1 <0>         0.1160
     29 H9          0.5606   -6.2847    1.6705 H         1 <0>         0.1123
     30 H10         0.0237   -7.9465    1.2765 H         1 <0>         0.1008
     31 H11        -1.2403   -4.5827    1.6529 H         1 <0>         0.1193
     32 H12        -2.0616   -4.4107    0.0807 H         1 <0>         0.0948
     33 H13         0.9415   -4.6740    0.5578 H         1 <0>         0.1108
     34 H14        -0.5756   -4.3799   -2.0737 H         1 <0>         0.0906
     35 H15         1.1880   -4.5324   -1.8677 H         1 <0>         0.1177
     36 H16        -0.7732   -2.3790   -0.0043 H         1 <0>         0.4027
     37 H17        -0.9275   -0.5539    0.0076 H         1 <0>         0.1303
     38 H18        -0.9622    1.9000    0.0169 H         1 <0>         0.1408
     39 H19         1.1335    3.1782    0.0079 H         1 <0>         0.1326
     40 H20         5.5531    0.7355   -0.0469 H         1 <0>         0.2226
     41 N4         -1.2572   -6.6559   -0.9917 N.4       1 <0>        -0.3937
     42 H21        -1.9463   -6.0562   -1.4606 H         1 <0>         0.4263
@<TRIPOS>BOND
     1    1   24 1
     2    1   25 1
     3    1   26 1
     4    1   41 1
     5    2    3 1
     6    2   10 1
     7    2    4 1
     8    2   41 1
     9    4    5 1
    10    4   27 1
    11    4   28 1
    12    5    6 1
    13    5   29 1
    14    5   30 1
    15    6    7 1
    16    6    8 1
    17    6   41 1
    18    8    9 1
    19    8   31 1
    20    8   32 1
    21    9   10 1
    22    9   11 1
    23    9   33 1
    24   10   34 1
    25   10   35 1
    26   11   12 am
    27   11   36 1
    28   12   13 2
    29   12   14 1
    30   14   19 ar
    31   14   15 ar
    32   15   16 ar
    33   15   37 1
    34   16   17 ar
    35   16   38 1
    36   17   18 ar
    37   17   39 1
    38   18   22 1
    39   18   19 ar
    40   19   20 1
    41   20   21 2
    42   21   22 1
    43   21   40 1
    44   22   23 1
    45   41   42 1
@<TRIPOS>MOLECULE
ZINC03799374
   51    55     0     0     0
SMALL
USER_CHARGES
2-chloro-N-quinuclidin-3-yl-5a,6,7,8,9,9a-hexahydrodibenzofuran-4-carboxamide
@<TRIPOS>ATOM
      1 C1          3.6792    4.2352    5.2216 C.ar      1 <0>        -0.0290
      2 C2          2.8034    4.8285    4.3244 C.ar      1 <0>        -0.0647
      3 C3          1.9456    4.0484    3.5780 C.ar      1 <0>        -0.0516
      4 C4          1.9529    2.6606    3.7286 C.ar      1 <0>        -0.1576
      5 C5          2.8368    2.0578    4.6329 C.ar      1 <0>         0.1724
      6 C6          3.6969    2.8706    5.3834 C.ar      1 <0>        -0.1419
      7 C7          4.4709    1.9261    6.2502 C.3       1 <0>        -0.0844
      8 H1          3.9649    1.7895    7.2060 H         1 <0>         0.1067
      9 C8          5.9469    2.1811    6.4706 C.3       1 <0>        -0.1065
     10 C9          6.4817    1.0176    7.3235 C.3       1 <0>        -0.1244
     11 C10         6.2262   -0.3343    6.6652 C.3       1 <0>        -0.1188
     12 C11         4.7552   -0.5224    6.2970 C.3       1 <0>        -0.1078
     13 C12         4.3702    0.6294    5.3926 C.3       1 <0>         0.0684
     14 H2          5.0615    0.6867    4.5518 H         1 <0>         0.0839
     15 O1          3.0350    0.7300    4.9260 O.3       1 <0>        -0.2619
     16 C13         1.0333    1.8277    2.9302 C.2       1 <0>         0.5693
     17 O2          1.0428    0.6185    3.0574 O.2       1 <0>        -0.5022
     18 N1          0.1828    2.4072    2.0600 N.am      1 <0>        -0.7331
     19 C14        -0.7303    1.5801    1.2673 C.3       1 <0>         0.1416
     20 H3         -1.0596    0.7260    1.8591 H         1 <0>         0.1272
     21 C15        -0.0127    1.0858    0.0080 C.3       1 <0>        -0.0173
     22 C16        -2.0945    1.0449   -1.2302 C.3       1 <0>        -0.0061
     23 C17        -2.8875    1.5483   -0.0000 C.3       1 <0>        -0.1283
     24 C18        -1.9474    2.4147    0.8476 C.3       1 <0>        -0.1128
     25 C19        -1.4618    3.5914   -0.0083 C.3       1 <0>        -0.1399
     26 C20        -0.7241    3.0414   -1.2322 C.3       1 <0>        -0.0028
     27 Cl1         2.7925    6.5542    4.1356 Cl        1 <0>        -0.0462
     28 H4          4.3530    4.8512    5.7986 H         1 <0>         0.1466
     29 H5          1.2644    4.5119    2.8797 H         1 <0>         0.1405
     30 H6          6.4664    2.2095    5.5128 H         1 <0>         0.0717
     31 H7          6.0867    3.1250    6.9974 H         1 <0>         0.0769
     32 H8          7.5548    1.1458    7.4657 H         1 <0>         0.0744
     33 H9          5.9915    1.0366    8.2969 H         1 <0>         0.0677
     34 H10         6.8221   -0.4054    5.7554 H         1 <0>         0.0660
     35 H11         6.5276   -1.1265    7.3506 H         1 <0>         0.0799
     36 H12         4.1542   -0.5005    7.2061 H         1 <0>         0.0787
     37 H13         4.6131   -1.4696    5.7766 H         1 <0>         0.0823
     38 H14         0.1752    3.3718    1.9586 H         1 <0>         0.4043
     39 H15         0.0021   -0.0041    0.0020 H         1 <0>         0.1383
     40 H16         1.0098    1.4634    0.0003 H         1 <0>         0.1313
     41 H17        -2.5866    1.3939   -2.1380 H         1 <0>         0.1305
     42 H18        -2.0648   -0.0447   -1.2280 H         1 <0>         0.1313
     43 H19        -3.2248    0.6938    0.5866 H         1 <0>         0.1042
     44 H20        -3.7483    2.1402   -0.3112 H         1 <0>         0.1094
     45 H21        -2.4710    2.7837    1.7295 H         1 <0>         0.1239
     46 H22        -0.7849    4.2138    0.5769 H         1 <0>         0.0954
     47 H23        -2.3157    4.1859   -0.3332 H         1 <0>         0.1089
     48 H24         0.3034    3.4054   -1.2315 H         1 <0>         0.1276
     49 H25        -1.2274    3.3740   -2.1401 H         1 <0>         0.1319
     50 N2         -0.7101    1.5634   -1.2054 N.4       1 <0>        -0.3893
     51 H26        -0.2105    1.2197   -2.0340 H         1 <0>         0.4352
@<TRIPOS>BOND
     1    1    6 ar
     2    1    2 ar
     3    1   28 1
     4    2    3 ar
     5    2   27 1
     6    3    4 ar
     7    3   29 1
     8    4    5 ar
     9    4   16 1
    10    5   15 1
    11    5    6 ar
    12    6    7 1
    13    7    8 1
    14    7   13 1
    15    7    9 1
    16    9   10 1
    17    9   30 1
    18    9   31 1
    19   10   11 1
    20   10   32 1
    21   10   33 1
    22   11   12 1
    23   11   34 1
    24   11   35 1
    25   12   13 1
    26   12   36 1
    27   12   37 1
    28   13   14 1
    29   13   15 1
    30   16   17 2
    31   16   18 am
    32   18   19 1
    33   18   38 1
    34   19   20 1
    35   19   24 1
    36   19   21 1
    37   21   39 1
    38   21   40 1
    39   21   50 1
    40   22   23 1
    41   22   41 1
    42   22   42 1
    43   22   50 1
    44   23   24 1
    45   23   43 1
    46   23   44 1
    47   24   25 1
    48   24   45 1
    49   25   26 1
    50   25   46 1
    51   25   47 1
    52   26   48 1
    53   26   49 1
    54   26   50 1
    55   50   51 1
@<TRIPOS>MOLECULE
ZINC03804932
   51    55     0     0     0
SMALL
USER_CHARGES
2-chloro-N-quinuclidin-3-yl-5a,6,7,8,9,9a-hexahydrodibenzofuran-4-carboxamide
@<TRIPOS>ATOM
      1 C1         -1.0475    2.4306    0.0201 C.ar      1 <0>        -0.0236
      2 C2         -0.7749    3.7917    0.0261 C.ar      1 <0>        -0.0725
      3 C3          0.5318    4.2319    0.0135 C.ar      1 <0>        -0.0461
      4 C4          1.5828    3.3137    0.0005 C.ar      1 <0>        -0.1648
      5 C5          1.3075    1.9356   -0.0000 C.ar      1 <0>         0.1846
      6 C6         -0.0186    1.5196    0.0104 C.ar      1 <0>        -0.1636
      7 C7          0.0021   -0.0041    0.0020 C.3       1 <0>        -0.0659
      8 H1         -0.7302   -0.3948   -0.7045 H         1 <0>         0.1085
      9 C8         -0.3002   -0.4927    1.4060 C.3       1 <0>        -0.1085
     10 C9          0.2404   -1.8932    1.6603 C.3       1 <0>        -0.1219
     11 C10         1.7585   -1.8773    1.4538 C.3       1 <0>        -0.1212
     12 C11         2.0419   -1.5718   -0.0124 C.3       1 <0>        -0.1143
     13 C12         1.4276   -0.2773   -0.4653 C.3       1 <0>         0.0869
     14 H2          1.4376   -0.2565   -1.5550 H         1 <0>         0.0792
     15 O1          2.1569    0.8706   -0.0088 O.3       1 <0>        -0.2655
     16 C13         2.9796    3.7887   -0.0121 C.2       1 <0>         0.5702
     17 O2          3.8941    2.9875   -0.0229 O.2       1 <0>        -0.5034
     18 N1          3.2418    5.1107   -0.0115 N.am      1 <0>        -0.7337
     19 C14         4.6288    5.5823   -0.0240 C.3       1 <0>         0.1409
     20 H3          5.2405    4.9023   -0.6169 H         1 <0>         0.1273
     21 C15         5.1639    5.6407    1.4096 C.3       1 <0>        -0.0173
     22 C16         4.3999    7.9259    1.6602 C.3       1 <0>        -0.0026
     23 C17         3.8429    7.9322    0.2339 C.3       1 <0>        -0.1393
     24 C18         4.6877    6.9893   -0.6321 C.3       1 <0>        -0.1127
     25 C19         6.1460    7.4650   -0.6239 C.3       1 <0>        -0.1284
     26 C20         6.6358    7.4798    0.8442 C.3       1 <0>        -0.0062
     27 Cl1        -2.0779    4.9387    0.0432 Cl        1 <0>        -0.0475
     28 H4         -2.0712    2.0865    0.0252 H         1 <0>         0.1468
     29 H5          0.7427    5.2911    0.0132 H         1 <0>         0.1394
     30 H6          0.1482    0.1947    2.1234 H         1 <0>         0.0633
     31 H7         -1.3802   -0.4988    1.5530 H         1 <0>         0.0732
     32 H8          0.0135   -2.1926    2.6835 H         1 <0>         0.0727
     33 H9         -0.2187   -2.5946    0.9636 H         1 <0>         0.0698
     34 H10         2.2063   -1.1075    2.0823 H         1 <0>         0.0663
     35 H11         2.1743   -2.8510    1.7128 H         1 <0>         0.0745
     36 H12         3.1208   -1.5194   -0.1587 H         1 <0>         0.0824
     37 H13         1.6451   -2.3823   -0.6237 H         1 <0>         0.0903
     38 H14         2.5122    5.7498   -0.0029 H         1 <0>         0.4040
     39 H15         4.3872    5.3144    2.1013 H         1 <0>         0.1315
     40 H16         6.0309    4.9865    1.5011 H         1 <0>         0.1382
     41 H17         4.7114    8.9341    1.9334 H         1 <0>         0.1319
     42 H18         3.6287    7.5836    2.3503 H         1 <0>         0.1276
     43 H19         3.8909    8.9425   -0.1725 H         1 <0>         0.1087
     44 H20         2.8077    7.5909    0.2425 H         1 <0>         0.0959
     45 H21         4.3045    6.9730   -1.6523 H         1 <0>         0.1237
     46 H22         6.7540    6.7890   -1.2252 H         1 <0>         0.1066
     47 H23         6.2035    8.4733   -1.0340 H         1 <0>         0.1070
     48 H24         6.9290    8.4917    1.1240 H         1 <0>         0.1315
     49 H25         7.4925    6.8129    0.9404 H         1 <0>         0.1302
     50 N2          5.5654    7.0213    1.7552 N.4       1 <0>        -0.3894
     51 H26         5.9196    7.0340    2.7189 H         1 <0>         0.4353
@<TRIPOS>BOND
     1    1    6 ar
     2    1    2 ar
     3    1   28 1
     4    2    3 ar
     5    2   27 1
     6    3    4 ar
     7    3   29 1
     8    4    5 ar
     9    4   16 1
    10    5   15 1
    11    5    6 ar
    12    6    7 1
    13    7    8 1
    14    7   13 1
    15    7    9 1
    16    9   10 1
    17    9   30 1
    18    9   31 1
    19   10   11 1
    20   10   32 1
    21   10   33 1
    22   11   12 1
    23   11   34 1
    24   11   35 1
    25   12   13 1
    26   12   36 1
    27   12   37 1
    28   13   14 1
    29   13   15 1
    30   16   17 2
    31   16   18 am
    32   18   19 1
    33   18   38 1
    34   19   20 1
    35   19   24 1
    36   19   21 1
    37   21   39 1
    38   21   40 1
    39   21   50 1
    40   22   23 1
    41   22   41 1
    42   22   42 1
    43   22   50 1
    44   23   24 1
    45   23   43 1
    46   23   44 1
    47   24   25 1
    48   24   45 1
    49   25   26 1
    50   25   46 1
    51   25   47 1
    52   26   48 1
    53   26   49 1
    54   26   50 1
    55   50   51 1
@<TRIPOS>MOLECULE
ZINC06091309
   51    55     0     0     0
SMALL
USER_CHARGES
2-chloro-N-quinuclidin-3-yl-5a,6,7,8,9,9a-hexahydrodibenzofuran-4-carboxamide
@<TRIPOS>ATOM
      1 C1          3.6823    4.2352    5.2182 C.ar      1 <0>        -0.0288
      2 C2          2.8004    4.8291    4.3273 C.ar      1 <0>        -0.0649
      3 C3          1.9416    4.0489    3.5822 C.ar      1 <0>        -0.0514
      4 C4          1.9529    2.6606    3.7286 C.ar      1 <0>        -0.1577
      5 C5          2.8328    2.0581    4.6371 C.ar      1 <0>         0.1728
      6 C6          3.7100    2.8696    5.3691 C.ar      1 <0>        -0.1433
      7 C7          4.5223    1.9218    6.1972 C.3       1 <0>        -0.0833
      8 H1          5.4307    1.6350    5.6674 H         1 <0>         0.1066
      9 C8          4.8457    2.3233    7.6238 C.3       1 <0>        -0.1072
     10 C9          5.6149    1.1421    8.2456 C.3       1 <0>        -0.1249
     11 C10         4.8007   -0.1468    8.1988 C.3       1 <0>        -0.1168
     12 C11         4.3136   -0.4643    6.7740 C.3       1 <0>        -0.1079
     13 C12         3.5319    0.7218    6.2770 C.3       1 <0>         0.0682
     14 H2          2.7421    0.9438    6.9947 H         1 <0>         0.0816
     15 O1          2.9992    0.7340    4.9638 O.3       1 <0>        -0.2610
     16 C13         1.0333    1.8277    2.9302 C.2       1 <0>         0.5692
     17 O2          1.0428    0.6185    3.0574 O.2       1 <0>        -0.5024
     18 N1          0.1828    2.4072    2.0600 N.am      1 <0>        -0.7331
     19 C14        -0.7303    1.5801    1.2673 C.3       1 <0>         0.1416
     20 H3         -1.0596    0.7260    1.8591 H         1 <0>         0.1271
     21 C15        -0.0127    1.0858    0.0080 C.3       1 <0>        -0.0174
     22 C16        -2.0945    1.0449   -1.2302 C.3       1 <0>        -0.0061
     23 C17        -2.8875    1.5483   -0.0000 C.3       1 <0>        -0.1282
     24 C18        -1.9474    2.4147    0.8476 C.3       1 <0>        -0.1127
     25 C19        -1.4618    3.5914   -0.0083 C.3       1 <0>        -0.1399
     26 C20        -0.7241    3.0414   -1.2322 C.3       1 <0>        -0.0028
     27 Cl1         2.7775    6.5560    4.1507 Cl        1 <0>        -0.0462
     28 H4          4.3528    4.8515    5.7987 H         1 <0>         0.1466
     29 H5          1.2598    4.5122    2.8844 H         1 <0>         0.1406
     30 H6          5.4677    3.2183    7.6283 H         1 <0>         0.0772
     31 H7          3.9253    2.5055    8.1786 H         1 <0>         0.0731
     32 H8          6.5452    0.9952    7.6970 H         1 <0>         0.0675
     33 H9          5.8491    1.3773    9.2839 H         1 <0>         0.0743
     34 H10         5.4194   -0.9707    8.5543 H         1 <0>         0.0797
     35 H11         3.9364   -0.0448    8.8550 H         1 <0>         0.0677
     36 H12         5.1678   -0.6291    6.1173 H         1 <0>         0.0772
     37 H13         3.6788   -1.3503    6.7871 H         1 <0>         0.0818
     38 H14         0.1752    3.3718    1.9586 H         1 <0>         0.4043
     39 H15         0.0021   -0.0041    0.0020 H         1 <0>         0.1383
     40 H16         1.0098    1.4634    0.0003 H         1 <0>         0.1315
     41 H17        -2.5866    1.3939   -2.1380 H         1 <0>         0.1305
     42 H18        -2.0648   -0.0447   -1.2280 H         1 <0>         0.1313
     43 H19        -3.2248    0.6938    0.5866 H         1 <0>         0.1042
     44 H20        -3.7483    2.1402   -0.3112 H         1 <0>         0.1094
     45 H21        -2.4710    2.7837    1.7295 H         1 <0>         0.1238
     46 H22        -0.7849    4.2138    0.5769 H         1 <0>         0.0954
     47 H23        -2.3157    4.1859   -0.3332 H         1 <0>         0.1089
     48 H24         0.3034    3.4054   -1.2315 H         1 <0>         0.1276
     49 H25        -1.2274    3.3740   -2.1401 H         1 <0>         0.1319
     50 N2         -0.7101    1.5634   -1.2054 N.4       1 <0>        -0.3893
     51 H26        -0.2105    1.2197   -2.0340 H         1 <0>         0.4353
@<TRIPOS>BOND
     1    1    6 ar
     2    1    2 ar
     3    1   28 1
     4    2    3 ar
     5    2   27 1
     6    3    4 ar
     7    3   29 1
     8    4    5 ar
     9    4   16 1
    10    5   15 1
    11    5    6 ar
    12    6    7 1
    13    7    8 1
    14    7   13 1
    15    7    9 1
    16    9   10 1
    17    9   30 1
    18    9   31 1
    19   10   11 1
    20   10   32 1
    21   10   33 1
    22   11   12 1
    23   11   34 1
    24   11   35 1
    25   12   13 1
    26   12   36 1
    27   12   37 1
    28   13   14 1
    29   13   15 1
    30   16   17 2
    31   16   18 am
    32   18   19 1
    33   18   38 1
    34   19   20 1
    35   19   24 1
    36   19   21 1
    37   21   39 1
    38   21   40 1
    39   21   50 1
    40   22   23 1
    41   22   41 1
    42   22   42 1
    43   22   50 1
    44   23   24 1
    45   23   43 1
    46   23   44 1
    47   24   25 1
    48   24   45 1
    49   25   26 1
    50   25   46 1
    51   25   47 1
    52   26   48 1
    53   26   49 1
    54   26   50 1
    55   50   51 1
@<TRIPOS>MOLECULE
ZINC06091310
   51    55     0     0     0
SMALL
USER_CHARGES
2-chloro-N-quinuclidin-3-yl-5a,6,7,8,9,9a-hexahydrodibenzofuran-4-carboxamide
@<TRIPOS>ATOM
      1 C1         -1.6528    6.2104   -0.4710 C.ar      1 <0>        -0.0162
      2 C2         -1.1417    7.4331   -0.0351 C.ar      1 <0>        -0.0766
      3 C3         -0.2385    7.5063    1.0003 C.ar      1 <0>        -0.0472
      4 C4          0.2147    6.3601    1.6689 C.ar      1 <0>        -0.1698
      5 C5         -0.2965    5.1224    1.2332 C.ar      1 <0>         0.1892
      6 C6         -1.2149    5.0788    0.1775 C.ar      1 <0>        -0.1684
      7 C7         -1.5621    3.6220   -0.0412 C.3       1 <0>        -0.0699
      8 H1         -2.6299    3.4762   -0.2047 H         1 <0>         0.1143
      9 C8         -0.7339    3.1141   -1.2210 C.3       1 <0>        -0.1102
     10 C9         -0.7397    1.5859   -1.2384 C.3       1 <0>        -0.1221
     11 C10        -0.0127    1.0858    0.0080 C.3       1 <0>        -0.1205
     12 C11        -0.7100    1.5685    1.2631 C.3       1 <0>        -0.1146
     13 C12        -1.0862    3.0130    1.2825 C.3       1 <0>         0.0861
     14 H2         -1.8977    3.1242    2.0017 H         1 <0>         0.0756
     15 O1         -0.0256    3.8847    1.7003 O.3       1 <0>        -0.2625
     16 C13         1.1829    6.4469    2.7788 C.2       1 <0>         0.5760
     17 O2          1.5571    5.4350    3.3396 O.2       1 <0>        -0.5042
     18 N1          1.6526    7.6477    3.1710 N.am      1 <0>        -0.7331
     19 C14         2.6140    7.7339    4.2730 C.3       1 <0>         0.1411
     20 H3          3.2752    6.8676    4.2495 H         1 <0>         0.1275
     21 C15         1.8631    7.7737    5.6071 C.3       1 <0>        -0.0173
     22 C16         1.7473   10.1923    5.5327 C.3       1 <0>        -0.0026
     23 C17         2.4946   10.2211    4.1965 C.3       1 <0>        -0.1393
     24 C18         3.4427    9.0170    4.1330 C.3       1 <0>        -0.1127
     25 C19         4.4326    9.0901    5.3025 C.3       1 <0>        -0.1284
     26 C20         3.6178    9.1029    6.6184 C.3       1 <0>        -0.0063
     27 Cl1        -1.6571    8.8952   -0.8163 Cl        1 <0>        -0.0532
     28 H4         -2.3621    6.1545   -1.2835 H         1 <0>         0.1543
     29 H5          0.1319    8.4735    1.3064 H         1 <0>         0.1355
     30 H6          0.2913    3.4714   -1.1245 H         1 <0>         0.0667
     31 H7         -1.1621    3.4886   -2.1508 H         1 <0>         0.0740
     32 H8         -0.2260    1.2277   -2.1306 H         1 <0>         0.0735
     33 H9         -1.7676    1.2233   -1.2333 H         1 <0>         0.0696
     34 H10         0.0021   -0.0041    0.0020 H         1 <0>         0.0744
     35 H11         1.0115    1.4588    0.0002 H         1 <0>         0.0647
     36 H12        -1.6161    0.9779    1.3981 H         1 <0>         0.0874
     37 H13        -0.0544    1.3764    2.1125 H         1 <0>         0.0819
     38 H14         1.3541    8.4549    2.7236 H         1 <0>         0.4043
     39 H15         0.7900    7.7253    5.4220 H         1 <0>         0.1315
     40 H16         2.1654    6.9245    6.2200 H         1 <0>         0.1382
     41 H17         1.9659   11.1024    6.0913 H         1 <0>         0.1319
     42 H18         0.6750   10.1269    5.3485 H         1 <0>         0.1276
     43 H19         3.0701   11.1435    4.1197 H         1 <0>         0.1087
     44 H20         1.7801   10.1670    3.3751 H         1 <0>         0.0961
     45 H21         3.9815    9.0137    3.1855 H         1 <0>         0.1238
     46 H22         5.0989    8.2280    5.2714 H         1 <0>         0.1066
     47 H23         5.0162   10.0078    5.2302 H         1 <0>         0.1071
     48 H24         3.8212   10.0220    7.1680 H         1 <0>         0.1315
     49 H25         3.9073    8.2446    7.2246 H         1 <0>         0.1302
     50 N2          2.1690    9.0241    6.3349 N.4       1 <0>        -0.3893
     51 H26         1.6548    9.0267    7.2236 H         1 <0>         0.4352
@<TRIPOS>BOND
     1    1    6 ar
     2    1    2 ar
     3    1   28 1
     4    2    3 ar
     5    2   27 1
     6    3    4 ar
     7    3   29 1
     8    4    5 ar
     9    4   16 1
    10    5   15 1
    11    5    6 ar
    12    6    7 1
    13    7    8 1
    14    7   13 1
    15    7    9 1
    16    9   10 1
    17    9   30 1
    18    9   31 1
    19   10   11 1
    20   10   32 1
    21   10   33 1
    22   11   12 1
    23   11   34 1
    24   11   35 1
    25   12   13 1
    26   12   36 1
    27   12   37 1
    28   13   14 1
    29   13   15 1
    30   16   17 2
    31   16   18 am
    32   18   19 1
    33   18   38 1
    34   19   20 1
    35   19   24 1
    36   19   21 1
    37   21   39 1
    38   21   40 1
    39   21   50 1
    40   22   23 1
    41   22   41 1
    42   22   42 1
    43   22   50 1
    44   23   24 1
    45   23   43 1
    46   23   44 1
    47   24   25 1
    48   24   45 1
    49   25   26 1
    50   25   46 1
    51   25   47 1
    52   26   48 1
    53   26   49 1
    54   26   50 1
    55   50   51 1
@<TRIPOS>MOLECULE
ZINC03775140
   62    64     0     0     0
SMALL
USER_CHARGES

@<TRIPOS>ATOM
      1 C1         -0.0173    1.4248    0.0099 C.3       1 <0>         0.0171
      2 O1          0.0021   -0.0041    0.0020 O.3       1 <0>        -0.2760
      3 C2          0.6048   -0.6061   -1.0540 C.ar      1 <0>         0.2490
      4 C3          1.1714    0.1577   -2.0595 C.ar      1 <0>        -0.2968
      5 C4          1.7875   -0.4643   -3.1379 C.ar      1 <0>         0.3045
      6 C5          1.8368   -1.8562   -3.2112 C.ar      1 <0>        -0.1599
      7 C6          1.2804   -2.6188   -2.2247 C.ar      1 <0>         0.0104
      8 C7          0.6619   -2.0064   -1.1291 C.ar      1 <0>        -0.2378
      9 C8          0.0677   -2.8282   -0.0619 C.2       1 <0>         0.5777
     10 O2         -0.4739   -2.2937    0.8871 O.2       1 <0>        -0.5075
     11 N1          0.1238   -4.1727   -0.1363 N.am      1 <0>        -0.7330
     12 C9         -0.4675   -4.9905    0.9257 C.3       1 <0>         0.1404
     13 H1         -1.3642   -4.5012    1.3060 H         1 <0>         0.1248
     14 C10         0.5437   -5.1622    2.0629 C.3       1 <0>        -0.1546
     15 C11         1.7671   -5.9184    1.5404 C.3       1 <0>        -0.0167
     16 N2          1.3566   -7.2378    1.0453 N.4       1 <0>        -0.3759
     17 C12         0.4423   -7.0806   -0.0921 C.3       1 <0>        -0.0388
     18 C13        -0.8339   -6.3685    0.3670 C.3       1 <0>         0.0659
     19 H2         -1.3203   -6.9585    1.1438 H         1 <0>         0.1015
     20 O3         -1.7219   -6.2131   -0.7418 O.3       1 <0>        -0.3502
     21 C14        -2.6322   -7.3011   -0.9143 C.3       1 <0>         0.0179
     22 C15         2.5438   -7.9895    0.6171 C.3       1 <0>        -0.0062
     23 C16         3.4343   -8.2703    1.8292 C.3       1 <0>        -0.1507
     24 C17         4.6708   -9.0533    1.3832 C.3       1 <0>         0.0614
     25 O4          5.5024   -9.3155    2.5152 O.3       1 <0>        -0.3099
     26 C18         6.6507  -10.0076    2.2904 C.ar      1 <0>         0.1104
     27 C19         6.9722  -10.4203    1.0058 C.ar      1 <0>        -0.1786
     28 C20         8.1394  -11.1237    0.7787 C.ar      1 <0>        -0.1136
     29 C21         8.9878  -11.4170    1.8328 C.ar      1 <0>         0.0730
     30 C22         8.6679  -11.0061    3.1156 C.ar      1 <0>        -0.1109
     31 C23         7.5046  -10.2969    3.3445 C.ar      1 <0>        -0.1156
     32 F1         10.1287  -12.1053    1.6094 F         1 <0>        -0.1339
     33 Cl1         2.6089   -2.6229   -4.5639 Cl        1 <0>        -0.0623
     34 N3          2.3569    0.3038   -4.1485 N.pl3     1 <0>        -0.8495
     35 H3          1.0053    1.8021    0.0021 H         1 <0>         0.0609
     36 H4         -0.5445    1.7859   -0.8732 H         1 <0>         0.0614
     37 H5         -0.5275    1.7763    0.9067 H         1 <0>         0.1085
     38 H6          1.1342    1.2357   -2.0059 H         1 <0>         0.1464
     39 H7          1.3215   -3.6961   -2.2880 H         1 <0>         0.1333
     40 H8          0.5557   -4.5989   -0.8931 H         1 <0>         0.3942
     41 H9          0.8503   -4.1821    2.4284 H         1 <0>         0.1283
     42 H10         0.0859   -5.7273    2.8748 H         1 <0>         0.1026
     43 H11         2.2242   -5.3523    0.7288 H         1 <0>         0.1317
     44 H12         2.4891   -6.0421    2.3475 H         1 <0>         0.1399
     45 H13         0.9276   -6.4898   -0.8690 H         1 <0>         0.1341
     46 H14         0.1862   -8.0624   -0.4903 H         1 <0>         0.1380
     47 H15        -2.0715   -8.2215   -1.0778 H         1 <0>         0.0481
     48 H16        -3.2481   -7.4047   -0.0210 H         1 <0>         0.0566
     49 H17        -3.2712   -7.1071   -1.7758 H         1 <0>         0.1042
     50 H18         2.2339   -8.9329    0.1676 H         1 <0>         0.1368
     51 H19         3.1003   -7.4039   -0.1147 H         1 <0>         0.1356
     52 H20         3.7442   -7.3269    2.2786 H         1 <0>         0.1012
     53 H21         2.8778   -8.8559    2.5610 H         1 <0>         0.1013
     54 H22         4.3608   -9.9967    0.9337 H         1 <0>         0.0740
     55 H23         5.2272   -8.4676    0.6514 H         1 <0>         0.0740
     56 H24         6.3103  -10.1922    0.1835 H         1 <0>         0.1353
     57 H25         8.3900  -11.4451   -0.2214 H         1 <0>         0.1422
     58 H26         9.3304  -11.2359    3.9370 H         1 <0>         0.1482
     59 H27         7.2577   -9.9722    4.3445 H         1 <0>         0.1439
     60 H28         2.3233    1.2719   -4.0992 H         1 <0>         0.4097
     61 H29         2.7876   -0.1289   -4.9023 H         1 <0>         0.4089
     62 H30         0.8896   -7.7426    1.7837 H         1 <0>         0.4252
@<TRIPOS>BOND
     1    1    2 1
     2    1   35 1
     3    1   36 1
     4    1   37 1
     5    2    3 1
     6    3    8 ar
     7    3    4 ar
     8    4    5 ar
     9    4   38 1
    10    5    6 ar
    11    5   34 1
    12    6    7 ar
    13    6   33 1
    14    7    8 ar
    15    7   39 1
    16    8    9 1
    17    9   10 2
    18    9   11 am
    19   11   12 1
    20   11   40 1
    21   12   13 1
    22   12   18 1
    23   12   14 1
    24   14   15 1
    25   14   41 1
    26   14   42 1
    27   15   16 1
    28   15   43 1
    29   15   44 1
    30   16   17 1
    31   16   22 1
    32   16   62 1
    33   17   18 1
    34   17   45 1
    35   17   46 1
    36   18   19 1
    37   18   20 1
    38   20   21 1
    39   21   47 1
    40   21   48 1
    41   21   49 1
    42   22   23 1
    43   22   50 1
    44   22   51 1
    45   23   24 1
    46   23   52 1
    47   23   53 1
    48   24   25 1
    49   24   54 1
    50   24   55 1
    51   25   26 1
    52   26   31 ar
    53   26   27 ar
    54   27   28 ar
    55   27   56 1
    56   28   29 ar
    57   28   57 1
    58   29   30 ar
    59   29   32 1
    60   30   31 ar
    61   30   58 1
    62   31   59 1
    63   34   60 1
    64   34   61 1
@<TRIPOS>MOLECULE
ZINC03830564
   62    64     0     0     0
SMALL
USER_CHARGES

@<TRIPOS>ATOM
      1 C1         -0.0173    1.4248    0.0099 C.3       1 <0>         0.0173
      2 O1          0.0021   -0.0041    0.0020 O.3       1 <0>        -0.2768
      3 C2          0.6048   -0.6061   -1.0540 C.ar      1 <0>         0.2482
      4 C3          1.1714    0.1577   -2.0595 C.ar      1 <0>        -0.2974
      5 C4          1.7875   -0.4643   -3.1379 C.ar      1 <0>         0.3044
      6 C5          1.8368   -1.8562   -3.2112 C.ar      1 <0>        -0.1594
      7 C6          1.2804   -2.6188   -2.2247 C.ar      1 <0>         0.0124
      8 C7          0.6619   -2.0064   -1.1291 C.ar      1 <0>        -0.2376
      9 C8          0.0677   -2.8282   -0.0619 C.2       1 <0>         0.5803
     10 O2         -0.4739   -2.2937    0.8871 O.2       1 <0>        -0.5144
     11 N1          0.1238   -4.1727   -0.1363 N.am      1 <0>        -0.7279
     12 C9         -0.4675   -4.9905    0.9257 C.3       1 <0>         0.1426
     13 H1         -0.3382   -4.4904    1.8855 H         1 <0>         0.1147
     14 C10        -1.9606   -5.1884    0.6484 C.3       1 <0>        -0.1574
     15 C11        -2.5547   -6.1082    1.7173 C.3       1 <0>        -0.0121
     16 N2         -1.8729   -7.4076    1.6837 N.4       1 <0>        -0.3780
     17 C12        -0.4544   -7.2346    2.0193 C.3       1 <0>        -0.0308
     18 C13         0.2219   -6.3574    0.9634 C.3       1 <0>         0.0634
     19 H2          0.1375   -6.8346   -0.0130 H         1 <0>         0.0897
     20 O3          1.6015   -6.1871    1.2946 O.3       1 <0>        -0.3498
     21 C14         2.4612   -7.1803    0.7321 C.3       1 <0>         0.0175
     22 C15        -2.4981   -8.3123    2.6576 C.3       1 <0>        -0.0056
     23 C16        -3.9400   -8.5999    2.2341 C.3       1 <0>        -0.1510
     24 C17        -4.5912   -9.5422    3.2484 C.3       1 <0>         0.0612
     25 O4         -5.9378   -9.8107    2.8528 O.3       1 <0>        -0.3101
     26 C18        -6.6627  -10.6375    3.6523 C.ar      1 <0>         0.1103
     27 C19        -6.0908  -11.1740    4.7964 C.ar      1 <0>        -0.1786
     28 C20        -6.8286  -12.0140    5.6079 C.ar      1 <0>        -0.1136
     29 C21        -8.1381  -12.3209    5.2793 C.ar      1 <0>         0.0729
     30 C22        -8.7100  -11.7865    4.1373 C.ar      1 <0>        -0.1110
     31 C23        -7.9767  -10.9409    3.3276 C.ar      1 <0>        -0.1157
     32 F1         -8.8583  -13.1429    6.0736 F         1 <0>        -0.1339
     33 Cl1         2.6089   -2.6229   -4.5639 Cl        1 <0>        -0.0612
     34 N3          2.3569    0.3038   -4.1485 N.pl3     1 <0>        -0.8498
     35 H3          1.0053    1.8021    0.0021 H         1 <0>         0.0610
     36 H4         -0.5445    1.7859   -0.8732 H         1 <0>         0.0608
     37 H5         -0.5275    1.7763    0.9067 H         1 <0>         0.1075
     38 H6          1.1342    1.2357   -2.0059 H         1 <0>         0.1460
     39 H7          1.3215   -3.6961   -2.2880 H         1 <0>         0.1366
     40 H8          0.5557   -4.5989   -0.8931 H         1 <0>         0.4011
     41 H9         -2.4669   -4.2235    0.6762 H         1 <0>         0.1280
     42 H10        -2.0914   -5.6407   -0.3346 H         1 <0>         0.0936
     43 H11        -2.4236   -5.6548    2.6998 H         1 <0>         0.1373
     44 H12        -3.6177   -6.2510    1.5230 H         1 <0>         0.1408
     45 H13        -0.3681   -6.7573    2.9954 H         1 <0>         0.1434
     46 H14         0.0331   -8.2090    2.0480 H         1 <0>         0.1370
     47 H15         2.1631   -8.1650    1.0923 H         1 <0>         0.0484
     48 H16         2.3857   -7.1529   -0.3549 H         1 <0>         0.0550
     49 H17         3.4905   -6.9808    1.0300 H         1 <0>         0.1046
     50 H18        -1.9380   -9.2465    2.6975 H         1 <0>         0.1365
     51 H19        -2.4951   -7.8445    3.6421 H         1 <0>         0.1371
     52 H20        -4.5001   -7.6657    2.1942 H         1 <0>         0.1015
     53 H21        -3.9430   -9.0676    1.2495 H         1 <0>         0.1005
     54 H22        -4.0310  -10.4764    3.2882 H         1 <0>         0.0740
     55 H23        -4.5881   -9.0744    4.2329 H         1 <0>         0.0745
     56 H24        -5.0691  -10.9353    5.0526 H         1 <0>         0.1356
     57 H25        -6.3836  -12.4318    6.4989 H         1 <0>         0.1423
     58 H26        -9.7315  -12.0270    3.8820 H         1 <0>         0.1482
     59 H27        -8.4246  -10.5203    2.4394 H         1 <0>         0.1438
     60 H28         2.3233    1.2719   -4.0992 H         1 <0>         0.4092
     61 H29         2.7876   -0.1289   -4.9023 H         1 <0>         0.4089
     62 H30        -1.9528   -7.8044    0.7595 H         1 <0>         0.4239
@<TRIPOS>BOND
     1    1    2 1
     2    1   35 1
     3    1   36 1
     4    1   37 1
     5    2    3 1
     6    3    8 ar
     7    3    4 ar
     8    4    5 ar
     9    4   38 1
    10    5    6 ar
    11    5   34 1
    12    6    7 ar
    13    6   33 1
    14    7    8 ar
    15    7   39 1
    16    8    9 1
    17    9   10 2
    18    9   11 am
    19   11   12 1
    20   11   40 1
    21   12   13 1
    22   12   18 1
    23   12   14 1
    24   14   15 1
    25   14   41 1
    26   14   42 1
    27   15   16 1
    28   15   43 1
    29   15   44 1
    30   16   17 1
    31   16   22 1
    32   16   62 1
    33   17   18 1
    34   17   45 1
    35   17   46 1
    36   18   19 1
    37   18   20 1
    38   20   21 1
    39   21   47 1
    40   21   48 1
    41   21   49 1
    42   22   23 1
    43   22   50 1
    44   22   51 1
    45   23   24 1
    46   23   52 1
    47   23   53 1
    48   24   25 1
    49   24   54 1
    50   24   55 1
    51   25   26 1
    52   26   31 ar
    53   26   27 ar
    54   27   28 ar
    55   27   56 1
    56   28   29 ar
    57   28   57 1
    58   29   30 ar
    59   29   32 1
    60   30   31 ar
    61   30   58 1
    62   31   59 1
    63   34   60 1
    64   34   61 1
@<TRIPOS>MOLECULE
ZINC00000848
   42    44     0     0     0
SMALL
USER_CHARGES
4-amino-5-chloro-2-methoxy-N-quinuclidin-3-yl-benzamide
@<TRIPOS>ATOM
      1 C1         -3.6215    3.3204    0.0535 C.3       1 <0>         0.0170
      2 O1         -2.4317    4.1119    0.0464 O.3       1 <0>        -0.2774
      3 C2         -1.2494    3.4465    0.0316 C.ar      1 <0>         0.2496
      4 C3         -1.2303    2.0627    0.0191 C.ar      1 <0>        -0.2975
      5 C4         -0.0168    1.3870    0.0097 C.ar      1 <0>         0.3064
      6 C5          1.1828    2.0983    0.0020 C.ar      1 <0>        -0.1593
      7 C6          1.1749    3.4637    0.0090 C.ar      1 <0>         0.0113
      8 C7         -0.0398    4.1582    0.0239 C.ar      1 <0>        -0.2423
      9 C8         -0.0489    5.6303    0.0318 C.2       1 <0>         0.5767
     10 O2         -1.1059    6.2319    0.0448 O.2       1 <0>        -0.5095
     11 N1          1.1141    6.3114    0.0248 N.am      1 <0>        -0.7377
     12 C9          1.1051    7.7764    0.0328 C.3       1 <0>         0.1419
     13 H1          0.2535    8.1395   -0.5427 H         1 <0>         0.1262
     14 C10         1.0059    8.2811    1.4752 C.3       1 <0>        -0.0171
     15 C11         2.2521   10.2826    0.9188 C.3       1 <0>        -0.0029
     16 C12         2.3863    9.8348   -0.5394 C.3       1 <0>        -0.1335
     17 C13         2.4060    8.3018   -0.5871 C.3       1 <0>        -0.1103
     18 C14         3.5863    7.8012    0.2551 C.3       1 <0>        -0.1391
     19 C15         3.4186    8.3060    1.6910 C.3       1 <0>        -0.0021
     20 Cl1         2.6937    1.2435   -0.0158 Cl        1 <0>        -0.0590
     21 N2          0.0021   -0.0041    0.0020 N.pl3     1 <0>        -0.8484
     22 H2         -3.6480    2.6961   -0.8396 H         1 <0>         0.0619
     23 H3         -3.6310    2.6866    0.9402 H         1 <0>         0.0613
     24 H4         -4.4932    3.9748    0.0653 H         1 <0>         0.1085
     25 H5         -2.1576    1.5090    0.0208 H         1 <0>         0.1468
     26 H6          2.1074    4.0084    0.0034 H         1 <0>         0.1363
     27 H7          1.9571    5.8317    0.0145 H         1 <0>         0.4018
     28 H8          0.1049    8.8841    1.5884 H         1 <0>         0.1370
     29 H9          0.9626    7.4309    2.1559 H         1 <0>         0.1317
     30 H10         3.1157   10.8879    1.1943 H         1 <0>         0.1301
     31 H11         1.3426   10.8719    1.0360 H         1 <0>         0.1303
     32 H12         3.3143   10.2251   -0.9574 H         1 <0>         0.1066
     33 H13         1.5404   10.2074   -1.1172 H         1 <0>         0.1047
     34 H14         2.4946    7.9599   -1.6183 H         1 <0>         0.1242
     35 H15         3.6018    6.7113    0.2506 H         1 <0>         0.0960
     36 H16         4.5190    8.1833   -0.1598 H         1 <0>         0.1076
     37 H17         4.2727    8.9274    1.9601 H         1 <0>         0.1308
     38 H18         3.3583    7.4560    2.3706 H         1 <0>         0.1276
     39 H19         0.8486   -0.4776   -0.0086 H         1 <0>         0.4095
     40 H20        -0.8313   -0.5005    0.0073 H         1 <0>         0.4100
     41 N3          2.1833    9.1087    1.8150 N.4       1 <0>        -0.3901
     42 H21         2.0932    9.4343    2.7846 H         1 <0>         0.4343
@<TRIPOS>BOND
     1    1    2 1
     2    1   22 1
     3    1   23 1
     4    1   24 1
     5    2    3 1
     6    3    8 ar
     7    3    4 ar
     8    4    5 ar
     9    4   25 1
    10    5    6 ar
    11    5   21 1
    12    6    7 ar
    13    6   20 1
    14    7    8 ar
    15    7   26 1
    16    8    9 1
    17    9   10 2
    18    9   11 am
    19   11   12 1
    20   11   27 1
    21   12   13 1
    22   12   17 1
    23   12   14 1
    24   14   28 1
    25   14   29 1
    26   14   41 1
    27   15   16 1
    28   15   30 1
    29   15   31 1
    30   15   41 1
    31   16   17 1
    32   16   32 1
    33   16   33 1
    34   17   18 1
    35   17   34 1
    36   18   19 1
    37   18   35 1
    38   18   36 1
    39   19   37 1
    40   19   38 1
    41   19   41 1
    42   21   39 1
    43   21   40 1
    44   41   42 1
@<TRIPOS>MOLECULE
ZINC00003961
   42    44     0     0     0
SMALL
USER_CHARGES

@<TRIPOS>ATOM
      1 C1         -0.0173    1.4248    0.0099 C.3       1 <0>         0.0170
      2 O1          0.0021   -0.0041    0.0020 O.3       1 <0>        -0.2774
      3 C2         -1.1983   -0.6364    0.0101 C.ar      1 <0>         0.2497
      4 C3         -2.3712    0.0982    0.0194 C.ar      1 <0>        -0.2976
      5 C4         -3.5971   -0.5547    0.0272 C.ar      1 <0>         0.3065
      6 C5         -3.6504   -1.9484    0.0260 C.ar      1 <0>        -0.1594
      7 C6         -2.4991   -2.6824    0.0173 C.ar      1 <0>         0.0113
      8 C7         -1.2567   -2.0387    0.0031 C.ar      1 <0>        -0.2425
      9 C8         -0.0151   -2.8296   -0.0130 C.2       1 <0>         0.5766
     10 O2          1.0637   -2.2679   -0.0202 O.2       1 <0>        -0.5096
     11 N1         -0.0739   -4.1760   -0.0196 N.am      1 <0>        -0.7377
     12 C9          1.1616   -4.9631   -0.0357 C.3       1 <0>         0.1404
     13 H1          1.9273   -4.4530    0.5489 H         1 <0>         0.1257
     14 C10         1.6444   -5.1305   -1.4782 C.3       1 <0>        -0.0230
     15 N2          1.6981   -6.5521   -1.8273 N.4       1 <0>        -0.3745
     16 C11         0.3665   -7.1558   -1.7375 C.3       1 <0>        -0.0085
     17 C12        -0.1588   -7.0555   -0.3036 C.3       1 <0>        -0.1412
     18 C13         0.8956   -6.3500    0.5644 C.3       1 <0>        -0.1094
     19 C14         2.1956   -7.1625    0.5001 C.3       1 <0>        -0.1333
     20 C15         2.6449   -7.2601   -0.9624 C.3       1 <0>        -0.0090
     21 Cl1        -5.1881   -2.7540    0.0363 Cl        1 <0>        -0.0589
     22 N3         -4.7760    0.1840    0.0366 N.pl3     1 <0>        -0.8483
     23 H2          1.0053    1.8021    0.0021 H         1 <0>         0.1085
     24 H3         -0.5445    1.7859   -0.8732 H         1 <0>         0.0613
     25 H4         -0.5275    1.7763    0.9067 H         1 <0>         0.0620
     26 H5         -2.3333    1.1775    0.0211 H         1 <0>         0.1468
     27 H6         -2.5474   -3.7613    0.0172 H         1 <0>         0.1363
     28 H7         -0.9342   -4.6240   -0.0138 H         1 <0>         0.4019
     29 H8          0.9568   -4.6185   -2.1514 H         1 <0>         0.1336
     30 H9          2.6386   -4.6953   -1.5796 H         1 <0>         0.1391
     31 H10        -0.3139   -6.6324   -2.4093 H         1 <0>         0.1295
     32 H11         0.4244   -8.2045   -2.0290 H         1 <0>         0.1328
     33 H12        -1.0843   -6.4799   -0.2931 H         1 <0>         0.0959
     34 H13        -0.3439   -8.0556    0.0883 H         1 <0>         0.1074
     35 H14         0.5425   -6.2558    1.5913 H         1 <0>         0.1255
     36 H15         2.9675   -6.6636    1.0860 H         1 <0>         0.1045
     37 H16         2.0215   -8.1623    0.8976 H         1 <0>         0.1068
     38 H17         2.6909   -8.3082   -1.2582 H         1 <0>         0.1321
     39 H18         3.6336   -6.8130   -1.0663 H         1 <0>         0.1322
     40 H19        -4.7409    1.1534    0.0377 H         1 <0>         0.4100
     41 H20        -5.6330   -0.2703    0.0420 H         1 <0>         0.4095
     42 H21         2.0144   -6.6347   -2.7818 H         1 <0>         0.4276
@<TRIPOS>BOND
     1    1    2 1
     2    1   23 1
     3    1   24 1
     4    1   25 1
     5    2    3 1
     6    3    8 ar
     7    3    4 ar
     8    4    5 ar
     9    4   26 1
    10    5    6 ar
    11    5   22 1
    12    6    7 ar
    13    6   21 1
    14    7    8 ar
    15    7   27 1
    16    8    9 1
    17    9   10 2
    18    9   11 am
    19   11   12 1
    20   11   28 1
    21   12   13 1
    22   12   18 1
    23   12   14 1
    24   14   15 1
    25   14   29 1
    26   14   30 1
    27   15   20 1
    28   15   16 1
    29   15   42 1
    30   16   17 1
    31   16   31 1
    32   16   32 1
    33   17   18 1
    34   17   33 1
    35   17   34 1
    36   18   19 1
    37   18   35 1
    38   19   20 1
    39   19   36 1
    40   19   37 1
    41   20   38 1
    42   20   39 1
    43   22   40 1
    44   22   41 1
@<TRIPOS>MOLECULE
ZINC19376338
   32    34     0     0     0
SMALL
USER_CHARGES

@<TRIPOS>ATOM
      1 C1         -0.0239    1.3370    0.2441 C.ar      1 <0>        -0.1256
      2 C2          1.1550    2.0478    0.4568 C.ar      1 <0>        -0.0782
      3 C3          2.3643    1.4231    0.4379 C.ar      1 <0>        -0.1141
      4 C4          2.4311    0.0393    0.2011 C.ar      1 <0>         0.1744
      5 C5          1.2312   -0.6814   -0.0144 C.ar      1 <0>        -0.1375
      6 C6          0.0018   -0.0048    0.0116 C.ar      1 <0>        -0.0809
      7 C7          1.2976   -2.0694   -0.2519 C.ar      1 <0>        -0.0096
      8 C8          2.5231   -2.6645   -0.2643 C.ar      1 <0>        -0.2222
      9 C9          3.6751   -1.8960   -0.0441 C.ar      1 <0>         0.4150
     10 N1          3.6064   -0.5993    0.1777 N.ar      1 <0>        -0.5363
     11 N2          4.9157   -2.5156   -0.0597 N.pl3     1 <0>        -0.6266
     12 C10         6.1561   -1.7247   -0.0617 C.3       1 <0>         0.1015
     13 C11         7.0719   -2.2550    1.0465 C.3       1 <0>        -0.0225
     14 N3          7.2730   -3.6982    0.8653 N.4       1 <0>        -0.5046
     15 C12         5.9976   -4.4059    1.0344 C.3       1 <0>        -0.0221
     16 C13         5.0286   -3.9823   -0.0687 C.3       1 <0>         0.0992
     17 H1         -0.9708    1.8557    0.2683 H         1 <0>         0.1324
     18 H2          1.1089    3.1113    0.6392 H         1 <0>         0.1343
     19 H3          3.2692    1.9888    0.6039 H         1 <0>         0.1349
     20 H4         -0.9189   -0.5453   -0.1515 H         1 <0>         0.1333
     21 H5          0.4000   -2.6463   -0.4193 H         1 <0>         0.1464
     22 H6          2.6072   -3.7262   -0.4432 H         1 <0>         0.1365
     23 H7          6.6530   -1.8250   -1.0266 H         1 <0>         0.0880
     24 H8          5.9227   -0.6768    0.1263 H         1 <0>         0.1390
     25 H9          8.0340   -1.7450    0.9980 H         1 <0>         0.1449
     26 H10         6.6116   -2.0712    2.0173 H         1 <0>         0.1341
     27 H11         7.6328   -3.8727   -0.0611 H         1 <0>         0.4286
     28 H12         6.1681   -5.4809    0.9769 H         1 <0>         0.1469
     29 H13         5.5698   -4.1571    2.0056 H         1 <0>         0.1344
     30 H14         4.0501   -4.4261    0.1146 H         1 <0>         0.1284
     31 H15         5.4097   -4.3144   -1.0344 H         1 <0>         0.0943
     32 H16         7.9351   -4.0327    1.5492 H         1 <0>         0.4339
@<TRIPOS>BOND
     1    1    6 ar
     2    1    2 ar
     3    1   17 1
     4    2    3 ar
     5    2   18 1
     6    3    4 ar
     7    3   19 1
     8    4   10 ar
     9    4    5 ar
    10    5    6 ar
    11    5    7 ar
    12    6   20 1
    13    7    8 ar
    14    7   21 1
    15    8    9 ar
    16    8   22 1
    17    9   10 ar
    18    9   11 1
    19   11   16 1
    20   11   12 1
    21   12   13 1
    22   12   23 1
    23   12   24 1
    24   13   14 1
    25   13   25 1
    26   13   26 1
    27   14   15 1
    28   14   27 1
    29   14   32 1
    30   15   16 1
    31   15   28 1
    32   15   29 1
    33   16   30 1
    34   16   31 1
@<TRIPOS>MOLECULE
ZINC00385637
   45    48     0     0     0
SMALL
USER_CHARGES
6-chloro-N-(9-methyl-9-azabicyclo[3.3.1]non-7-yl)-1H-benzoimidazole-4-carboxamide
@<TRIPOS>ATOM
      1 C1         -0.8779    2.0186    1.0489 C.3       1 <0>        -0.0418
      2 C2          0.0021   -0.0041    0.0020 C.3       1 <0>         0.0426
      3 H1         -1.0202   -0.3816    0.0208 H         1 <0>         0.1359
      4 C3          0.7602   -0.5385    1.2172 C.3       1 <0>        -0.1325
      5 C4          2.1826    0.0256    1.2260 C.3       1 <0>        -0.1383
      6 C5          2.1289    1.5543    1.2099 C.3       1 <0>        -0.1324
      7 C6          1.3271    2.0340    0.0003 C.3       1 <0>         0.0440
      8 H2          1.2558    3.1216    0.0232 H         1 <0>         0.1375
      9 C7          2.0462    1.6081   -1.2851 C.3       1 <0>        -0.1582
     10 C8          1.1116    0.7227   -2.1139 C.3       1 <0>         0.1369
     11 C9          0.6888   -0.4892   -1.2796 C.3       1 <0>        -0.1620
     12 N1          1.8094    0.2684   -3.3198 N.am      1 <0>        -0.7270
     13 C10         1.1056   -0.0755   -4.4166 C.2       1 <0>         0.5686
     14 O1         -0.1086   -0.0087   -4.4054 O.2       1 <0>        -0.4970
     15 C11         1.8076   -0.5324   -5.6295 C.ar      1 <0>        -0.0872
     16 C12         3.1980   -0.6110   -5.6485 C.ar      1 <0>        -0.0737
     17 C13         3.8582   -1.0397   -6.7862 C.ar      1 <0>        -0.0383
     18 C14         3.1505   -1.3958   -7.9191 C.ar      1 <0>        -0.0577
     19 C15         1.7653   -1.3260   -7.9261 C.ar      1 <0>         0.0431
     20 C16         1.0763   -0.8992   -6.7786 C.ar      1 <0>         0.1091
     21 N2         -0.2393   -0.9388   -7.0687 N.2       1 <0>        -0.4789
     22 C17        -0.4093   -1.3578   -8.2905 C.2       1 <0>         0.2866
     23 N3          0.7952   -1.6026   -8.8703 N.pl3     1 <0>        -0.5967
     24 H3          0.9503   -1.9228   -9.8049 H         1 <0>         0.4395
     25 Cl1         5.5918   -1.1317   -6.7910 Cl        1 <0>        -0.0444
     26 H4         -0.5274    1.6895    2.0271 H         1 <0>         0.1250
     27 H5         -0.8466    3.1070    0.9989 H         1 <0>         0.1211
     28 H6         -1.9017    1.6771    0.8960 H         1 <0>         0.1209
     29 H7          0.2463   -0.2628    2.1352 H         1 <0>         0.0897
     30 H8          0.8096   -1.6302    1.1532 H         1 <0>         0.1105
     31 H9          2.6986   -0.3086    2.1281 H         1 <0>         0.0940
     32 H10         2.7255   -0.3339    0.3521 H         1 <0>         0.0828
     33 H11         1.6753    1.9179    2.1297 H         1 <0>         0.0904
     34 H12         3.1475    1.9471    1.1386 H         1 <0>         0.1111
     35 H13         2.3169    2.4938   -1.8586 H         1 <0>         0.1092
     36 H14         2.9453    1.0502   -1.0291 H         1 <0>         0.1093
     37 H15         0.2281    1.2935   -2.4004 H         1 <0>         0.0926
     38 H16         1.5661   -1.0789   -1.0219 H         1 <0>         0.1056
     39 H17        -0.0072   -1.1014   -1.8520 H         1 <0>         0.1067
     40 H18         2.7779    0.2152   -3.3287 H         1 <0>         0.4073
     41 H19         3.7636   -0.3362   -4.7705 H         1 <0>         0.1416
     42 H20         3.6775   -1.7289   -8.8010 H         1 <0>         0.1444
     43 H21        -1.3664   -1.4816   -8.7752 H         1 <0>         0.2264
     44 N4         -0.0436    1.4746   -0.0524 N.4       1 <0>        -0.3974
     45 H22        -0.4704    1.7510   -0.9444 H         1 <0>         0.4312
@<TRIPOS>BOND
     1    1   26 1
     2    1   27 1
     3    1   28 1
     4    1   44 1
     5    2    3 1
     6    2   11 1
     7    2    4 1
     8    2   44 1
     9    4    5 1
    10    4   29 1
    11    4   30 1
    12    5    6 1
    13    5   31 1
    14    5   32 1
    15    6    7 1
    16    6   33 1
    17    6   34 1
    18    7    8 1
    19    7    9 1
    20    7   44 1
    21    9   10 1
    22    9   35 1
    23    9   36 1
    24   10   11 1
    25   10   12 1
    26   10   37 1
    27   11   38 1
    28   11   39 1
    29   12   13 am
    30   12   40 1
    31   13   14 2
    32   13   15 1
    33   15   20 ar
    34   15   16 ar
    35   16   17 ar
    36   16   41 1
    37   17   18 ar
    38   17   25 1
    39   18   19 ar
    40   18   42 1
    41   19   23 1
    42   19   20 ar
    43   20   21 1
    44   21   22 2
    45   22   23 1
    46   22   43 1
    47   23   24 1
    48   44   45 1
@<TRIPOS>MOLECULE
ZINC22309498
   44    48     0     0     0
SMALL
USER_CHARGES

@<TRIPOS>ATOM
      1 C1         -0.0165    1.3664    0.0096 C.ar      1 <0>        -0.0980
      2 C2          1.1564    2.1072    0.0023 C.ar      1 <0>        -0.1212
      3 C3          2.3728    1.4491   -0.0128 C.ar      1 <0>        -0.0531
      4 C4          2.4008    0.0772   -0.0204 C.ar      1 <0>        -0.1655
      5 C5          1.2271   -0.7099   -0.0134 C.ar      1 <0>         0.1314
      6 C6          0.0021   -0.0041    0.0020 C.ar      1 <0>        -0.0888
      7 N1          1.4190   -2.0474   -0.0227 N.2       1 <0>        -0.5884
      8 C7          2.6161   -2.5880   -0.0374 C.2       1 <0>         0.4236
      9 S1          3.6821   -1.1535   -0.0397 S.3       1 <0>        -0.0317
     10 N2          2.9626   -3.9238   -0.0483 N.pl3     1 <0>        -0.5616
     11 C8          1.9302   -4.9714   -0.0502 C.3       1 <0>         0.1319
     12 C9          2.2429   -5.9651    1.0736 C.3       1 <0>         0.0400
     13 N3          3.6212   -6.4509    0.9240 N.3       1 <0>        -0.5319
     14 C10         4.5904   -5.3562    1.0661 C.3       1 <0>         0.0346
     15 C11         4.3739   -4.3375   -0.0643 C.3       1 <0>         0.1298
     16 C12         3.9047   -7.5321    1.8772 C.3       1 <0>         0.0990
     17 C13         5.2276   -8.1682    1.5363 C.ar      1 <0>        -0.0731
     18 C14         5.2741   -9.2351    0.6582 C.ar      1 <0>        -0.0840
     19 C15         6.4852   -9.8216    0.3421 C.ar      1 <0>        -0.0996
     20 C16         7.6563   -9.3413    0.9054 C.ar      1 <0>         0.0341
     21 C17         7.6095   -8.2666    1.7900 C.ar      1 <0>         0.0318
     22 C18         6.3927   -7.6800    2.0978 C.ar      1 <0>        -0.0972
     23 O1          8.8800   -7.9854    2.2024 O.3       1 <0>        -0.3091
     24 C19         9.6562   -9.1547    1.8808 C.3       1 <0>         0.2132
     25 O2          8.9561   -9.7334    0.7636 O.3       1 <0>        -0.3085
     26 H1         -0.9658    1.8812    0.0259 H         1 <0>         0.1314
     27 H2          1.1200    3.1865    0.0081 H         1 <0>         0.1357
     28 H3          3.2948    2.0115   -0.0189 H         1 <0>         0.1298
     29 H4         -0.9293   -0.5508    0.0079 H         1 <0>         0.1293
     30 H5          0.9520   -4.5218    0.1202 H         1 <0>         0.1012
     31 H6          1.9362   -5.4895   -1.0092 H         1 <0>         0.0826
     32 H7          2.1348   -5.4690    2.0382 H         1 <0>         0.0439
     33 H8          1.5525   -6.8067    1.0176 H         1 <0>         0.0963
     34 H9          4.4496   -4.8686    2.0307 H         1 <0>         0.0451
     35 H10         5.6025   -5.7562    1.0045 H         1 <0>         0.0986
     36 H11         4.6102   -4.7959   -1.0246 H         1 <0>         0.0898
     37 H12         5.0120   -3.4687    0.0968 H         1 <0>         0.0868
     38 H13         3.9471   -7.1242    2.8871 H         1 <0>         0.0493
     39 H14         3.1157   -8.2821    1.8211 H         1 <0>         0.0939
     40 H15         4.3621   -9.6113    0.2187 H         1 <0>         0.1406
     41 H16         6.5186  -10.6549   -0.3442 H         1 <0>         0.1373
     42 H17         6.3539   -6.8436    2.7799 H         1 <0>         0.1320
     43 H18        10.6699   -8.8746    1.5941 H         1 <0>         0.1333
     44 H19         9.6727   -9.8469    2.7226 H         1 <0>         0.0857
@<TRIPOS>BOND
     1    1    6 ar
     2    1    2 ar
     3    1   26 1
     4    2    3 ar
     5    2   27 1
     6    3    4 ar
     7    3   28 1
     8    4    9 1
     9    4    5 ar
    10    5    6 ar
    11    5    7 1
    12    6   29 1
    13    7    8 2
    14    8    9 1
    15    8   10 1
    16   10   15 1
    17   10   11 1
    18   11   12 1
    19   11   30 1
    20   11   31 1
    21   12   13 1
    22   12   32 1
    23   12   33 1
    24   13   14 1
    25   13   16 1
    26   14   15 1
    27   14   34 1
    28   14   35 1
    29   15   36 1
    30   15   37 1
    31   16   17 1
    32   16   38 1
    33   16   39 1
    34   17   22 ar
    35   17   18 ar
    36   18   19 ar
    37   18   40 1
    38   19   20 ar
    39   19   41 1
    40   20   25 1
    41   20   21 ar
    42   21   22 ar
    43   21   23 1
    44   22   42 1
    45   23   24 1
    46   24   25 1
    47   24   43 1
    48   24   44 1
@<TRIPOS>MOLECULE
ZINC02572146
   29    30     0     0     0
SMALL
USER_CHARGES

@<TRIPOS>ATOM
      1 C1         -0.0184    1.5028    0.0103 C.3       1 <0>        -0.1071
      2 C2          0.0021   -0.0041    0.0020 C.2       1 <0>         0.1199
      3 C3          0.0074   -0.7686   -1.1014 C.2       1 <0>        -0.2092
      4 C4          0.0293   -2.1641   -0.6562 C.ar      1 <0>        -0.0803
      5 C5          0.0430   -3.3930   -1.3197 C.ar      1 <0>        -0.1146
      6 C6          0.0627   -4.5631   -0.5876 C.ar      1 <0>         0.0953
      7 C7          0.0685   -4.5202    0.8044 C.ar      1 <0>        -0.1188
      8 C8          0.0552   -3.3144    1.4689 C.ar      1 <0>        -0.1023
      9 C9          0.0357   -2.1241    0.7494 C.ar      1 <0>         0.0880
     10 N1          0.0239   -0.7953    1.1178 N.pl3     1 <0>        -0.5848
     11 H1          0.0285   -0.4701    2.0317 H         1 <0>         0.4225
     12 O1          0.0761   -5.7626   -1.2282 O.3       1 <0>        -0.4959
     13 C10        -0.0070   -0.2832   -2.5281 C.3       1 <0>        -0.0613
     14 C11         1.4305   -0.0988   -3.0185 C.3       1 <0>        -0.0084
     15 N2          1.4165    0.3744   -4.4092 N.4       1 <0>        -0.6388
     16 H2          1.0042    1.8801    0.0026 H         1 <0>         0.0837
     17 H3         -0.5455    1.8639   -0.8728 H         1 <0>         0.0866
     18 H4         -0.5286    1.8543    0.9071 H         1 <0>         0.0796
     19 H5          0.0378   -3.4277   -2.3992 H         1 <0>         0.1258
     20 H6          0.0832   -5.4414    1.3679 H         1 <0>         0.1387
     21 H7          0.0598   -3.2928    2.5486 H         1 <0>         0.1311
     22 H8          0.9632   -6.0974   -1.4178 H         1 <0>         0.3920
     23 H9         -0.5139   -1.0159   -3.1560 H         1 <0>         0.0928
     24 H10        -0.5345    0.6690   -2.5826 H         1 <0>         0.0917
     25 H11         1.9375    0.6339   -2.3905 H         1 <0>         0.1322
     26 H12         1.9580   -1.0511   -2.9640 H         1 <0>         0.1338
     27 H13         0.9472   -0.3038   -4.9905 H         1 <0>         0.4354
     28 H14         0.9282    1.2559   -4.4596 H         1 <0>         0.4345
     29 H15         2.3645    0.4960   -4.7326 H         1 <0>         0.4379
@<TRIPOS>BOND
     1    1    2 1
     2    1   16 1
     3    1   17 1
     4    1   18 1
     5    2   10 1
     6    2    3 2
     7    3    4 1
     8    3   13 1
     9    4    9 ar
    10    4    5 ar
    11    5    6 ar
    12    5   19 1
    13    6    7 ar
    14    6   12 1
    15    7    8 ar
    16    7   20 1
    17    8    9 ar
    18    8   21 1
    19    9   10 1
    20   10   11 1
    21   12   22 1
    22   13   14 1
    23   13   23 1
    24   13   24 1
    25   14   15 1
    26   14   25 1
    27   14   26 1
    28   15   27 1
    29   15   28 1
    30   15   29 1
@<TRIPOS>MOLECULE
ZINC02516018
   42    45     0     0     0
SMALL
USER_CHARGES

@<TRIPOS>ATOM
      1 C1         -0.1860    1.3185   -0.8853 C.3       1 <0>        -0.0470
      2 N1         -0.0797   -0.0752   -0.4333 N.4       1 <0>        -0.3855
      3 C2          0.1907   -0.9426   -1.5868 C.3       1 <0>        -0.0219
      4 C3          0.1880   -2.4068   -1.1352 C.3       1 <0>         0.1040
      5 N2          1.1441   -2.5548   -0.0269 N.pl3     1 <0>        -0.6096
      6 C4          1.0479   -1.6159    1.1015 C.3       1 <0>         0.0886
      7 C5          1.0100   -0.1890    0.5444 C.3       1 <0>        -0.0219
      8 C6          2.1048   -3.5477   -0.0452 C.2       1 <0>         0.4845
      9 C7          2.7058   -4.0075    1.2067 C.2       1 <0>        -0.0476
     10 C8          2.5234   -3.6518    2.5251 C.2       1 <0>        -0.1441
     11 C9          3.3872   -4.4452    3.2875 C.2       1 <0>        -0.1659
     12 C10         4.0677   -5.2545    2.4395 C.2       1 <0>         0.0202
     13 N3          3.6637   -4.9997    1.1696 N.pl3     1 <0>        -0.3550
     14 C11         4.0278   -5.5327   -0.0637 C.ar      1 <0>         0.0977
     15 C12         4.9878   -6.5325   -0.1372 C.ar      1 <0>        -0.1121
     16 C13         5.3451   -7.0580   -1.3623 C.ar      1 <0>        -0.0561
     17 C14         4.7502   -6.5931   -2.5249 C.ar      1 <0>        -0.1673
     18 C15         3.7965   -5.6017   -2.4718 C.ar      1 <0>        -0.0269
     19 C16         3.4219   -5.0578   -1.2370 C.ar      1 <0>         0.1239
     20 N4          2.4755   -4.0835   -1.1873 N.2       1 <0>        -0.5424
     21 C17         5.1504   -7.1764   -3.8556 C.3       1 <0>         0.5116
     22 F1          6.1269   -8.1588   -3.6594 F         1 <0>        -0.1706
     23 F2          4.0309   -7.7478   -4.4699 F         1 <0>        -0.1713
     24 F3          5.6649   -6.1641   -4.6727 F         1 <0>        -0.1719
     25 H1          0.7524    1.6227   -1.3490 H         1 <0>         0.1220
     26 H2         -0.9946    1.4044   -1.6111 H         1 <0>         0.1262
     27 H3         -0.3946    1.9626   -0.0310 H         1 <0>         0.1260
     28 H4         -0.5809   -0.7939   -2.3422 H         1 <0>         0.1448
     29 H5          1.1648   -0.6940   -2.0081 H         1 <0>         0.1348
     30 H6         -0.8104   -2.6840   -0.7971 H         1 <0>         0.0940
     31 H7          0.4876   -3.0467   -1.9652 H         1 <0>         0.1392
     32 H8          0.1362   -1.8132    1.6655 H         1 <0>         0.0999
     33 H9          1.9160   -1.7328    1.7503 H         1 <0>         0.1385
     34 H10         1.9592    0.0368    0.0586 H         1 <0>         0.1339
     35 H11         0.8421    0.5150    1.3593 H         1 <0>         0.1467
     36 H12         1.8423   -2.9018    2.8993 H         1 <0>         0.1549
     37 H13         3.4934   -4.4176    4.3619 H         1 <0>         0.1612
     38 H14         4.8108   -5.9833    2.7278 H         1 <0>         0.1810
     39 H15         5.4555   -6.8990    0.7646 H         1 <0>         0.1481
     40 H16         6.0927   -7.8356   -1.4155 H         1 <0>         0.1560
     41 H17         3.3377   -5.2438   -3.3817 H         1 <0>         0.1538
     42 H18        -0.9478   -0.3546   -0.0016 H         1 <0>         0.4256
@<TRIPOS>BOND
     1    1    2 1
     2    1   25 1
     3    1   26 1
     4    1   27 1
     5    2    7 1
     6    2    3 1
     7    2   42 1
     8    3    4 1
     9    3   28 1
    10    3   29 1
    11    4    5 1
    12    4   30 1
    13    4   31 1
    14    5    6 1
    15    5    8 1
    16    6    7 1
    17    6   32 1
    18    6   33 1
    19    7   34 1
    20    7   35 1
    21    8   20 2
    22    8    9 1
    23    9   13 1
    24    9   10 2
    25   10   11 1
    26   10   36 1
    27   11   12 2
    28   11   37 1
    29   12   13 1
    30   12   38 1
    31   13   14 1
    32   14   19 ar
    33   14   15 ar
    34   15   16 ar
    35   15   39 1
    36   16   17 ar
    37   16   40 1
    38   17   18 ar
    39   17   21 1
    40   18   19 ar
    41   18   41 1
    42   19   20 1
    43   21   22 1
    44   21   23 1
    45   21   24 1
@<TRIPOS>MOLECULE
ZINC02516018
   41    44     0     0     0
SMALL
USER_CHARGES

@<TRIPOS>ATOM
      1 C1         -0.1164    1.3382    0.8434 C.3       1 <0>         0.0241
      2 N1         -0.0480   -0.0683    0.4251 N.3       1 <0>        -0.5421
      3 C2          0.9240   -0.2477   -0.6616 C.3       1 <0>         0.0380
      4 C3          0.8354   -1.6834   -1.1900 C.3       1 <0>         0.1350
      5 N2          0.9912   -2.6085   -0.0572 N.pl3     1 <0>        -0.5914
      6 C4          0.1441   -2.4063    1.1280 C.3       1 <0>         0.1130
      7 C5          0.2600   -0.9422    1.5651 C.3       1 <0>         0.0374
      8 C6          1.9088   -3.6406   -0.1055 C.2       1 <0>         0.4952
      9 C7          2.5321   -4.1237    1.1264 C.2       1 <0>        -0.0389
     10 C8          2.4093   -3.7594    2.4494 C.2       1 <0>        -0.1413
     11 C9          3.2648   -4.5872    3.1841 C.2       1 <0>        -0.1716
     12 C10         3.8820   -5.4249    2.3156 C.2       1 <0>         0.0082
     13 N3          3.4463   -5.1549    1.0594 N.pl3     1 <0>        -0.3564
     14 C11         3.7460   -5.7037   -0.1842 C.ar      1 <0>         0.0844
     15 C12         4.6606   -6.7426   -0.2876 C.ar      1 <0>        -0.1096
     16 C13         4.9541   -7.2838   -1.5228 C.ar      1 <0>        -0.0739
     17 C14         4.3400   -6.7958   -2.6658 C.ar      1 <0>        -0.1692
     18 C15         3.4307   -5.7656   -2.5829 C.ar      1 <0>        -0.0360
     19 C16         3.1210   -5.2053   -1.3374 C.ar      1 <0>         0.1422
     20 N4          2.2180   -4.1925   -1.2582 N.2       1 <0>        -0.5575
     21 C17         4.6704   -7.3966   -4.0078 C.3       1 <0>         0.5124
     22 F1          5.6114   -8.4185   -3.8423 F         1 <0>        -0.1745
     23 F2          3.5080   -7.9216   -4.5826 F         1 <0>        -0.1732
     24 F3          5.1985   -6.4074   -4.8443 F         1 <0>        -0.1734
     25 H1          0.8426    1.6389    1.2652 H         1 <0>         0.0270
     26 H2         -0.3457    1.9632   -0.0197 H         1 <0>         0.0715
     27 H3         -0.8969    1.4561    1.5951 H         1 <0>         0.0720
     28 H4          0.7011    0.4511   -1.4679 H         1 <0>         0.0913
     29 H5          1.9295   -0.0602   -0.2849 H         1 <0>         0.0392
     30 H6         -0.1350   -1.8410   -1.6607 H         1 <0>         0.0775
     31 H7          1.6300   -1.8561   -1.9158 H         1 <0>         0.0931
     32 H8         -0.8927   -2.6335    0.8801 H         1 <0>         0.0813
     33 H9          0.4817   -3.0571    1.9346 H         1 <0>         0.1005
     34 H10         1.2747   -0.7450    1.9108 H         1 <0>         0.0425
     35 H11        -0.4445   -0.7471    2.3736 H         1 <0>         0.0918
     36 H12         1.7731   -2.9813    2.8446 H         1 <0>         0.1559
     37 H13         3.4083   -4.5629    4.2543 H         1 <0>         0.1563
     38 H14         4.6036   -6.1837    2.5804 H         1 <0>         0.1758
     39 H15         5.1430   -7.1274    0.5988 H         1 <0>         0.1424
     40 H16         5.6666   -8.0919   -1.5994 H         1 <0>         0.1495
     41 H17         2.9566   -5.3898   -3.4776 H         1 <0>         0.1515
@<TRIPOS>BOND
     1    1    2 1
     2    1   25 1
     3    1   26 1
     4    1   27 1
     5    2    7 1
     6    2    3 1
     7    3    4 1
     8    3   28 1
     9    3   29 1
    10    4    5 1
    11    4   30 1
    12    4   31 1
    13    5    6 1
    14    5    8 1
    15    6    7 1
    16    6   32 1
    17    6   33 1
    18    7   34 1
    19    7   35 1
    20    8   20 2
    21    8    9 1
    22    9   13 1
    23    9   10 2
    24   10   11 1
    25   10   36 1
    26   11   12 2
    27   11   37 1
    28   12   13 1
    29   12   38 1
    30   13   14 1
    31   14   19 ar
    32   14   15 ar
    33   15   16 ar
    34   15   39 1
    35   16   17 ar
    36   16   40 1
    37   17   18 ar
    38   17   21 1
    39   18   19 ar
    40   18   41 1
    41   19   20 1
    42   21   22 1
    43   21   23 1
    44   21   24 1
@<TRIPOS>MOLECULE
ZINC00385644
   38    41     0     0     0
SMALL
USER_CHARGES
quinuclidin-3-yl 1H-benzoimidazole-4-carboxylate
@<TRIPOS>ATOM
      1 C1         -3.5384    5.2601   -5.6805 C.ar      1 <0>        -0.1267
      2 C2         -2.8862    4.7206   -4.5873 C.ar      1 <0>        -0.0520
      3 C3         -1.8515    5.4196   -3.9697 C.ar      1 <0>        -0.0969
      4 C4         -1.4780    6.6872   -4.4655 C.ar      1 <0>         0.1079
      5 C5         -2.1501    7.2152   -5.5801 C.ar      1 <0>         0.0283
      6 C6         -3.1769    6.4975   -6.1765 C.ar      1 <0>        -0.0538
      7 N1         -1.5663    8.4424   -5.8291 N.pl3     1 <0>        -0.5980
      8 H1         -1.8150    9.0817   -6.5568 H         1 <0>         0.4385
      9 C7         -0.5909    8.6176   -4.8998 C.2       1 <0>         0.2847
     10 N2         -0.5409    7.5859   -4.1056 N.2       1 <0>        -0.4876
     11 C8         -1.1573    4.8435   -2.8057 C.2       1 <0>         0.5078
     12 O1         -0.2553    5.4578   -2.2708 O.2       1 <0>        -0.4677
     13 O2         -1.5223    3.6350   -2.3335 O.3       1 <0>        -0.3447
     14 C9         -0.7943    3.1293   -1.1834 C.3       1 <0>         0.0809
     15 H2          0.2240    3.5180   -1.1936 H         1 <0>         0.1219
     16 C10        -1.4984    3.5690    0.1033 C.3       1 <0>        -0.0191
     17 C11        -0.7348    1.5823    1.2639 C.3       1 <0>        -0.0035
     18 C12        -0.0127    1.0858    0.0080 C.3       1 <0>        -0.1358
     19 C13        -0.7598    1.5965   -1.2304 C.3       1 <0>        -0.0973
     20 C14        -2.2008    1.0730   -1.1829 C.3       1 <0>        -0.1353
     21 C15        -2.8654    1.5701    0.1040 C.3       1 <0>        -0.0017
     22 H3         -4.3389    4.7086   -6.1511 H         1 <0>         0.1447
     23 H4         -3.1802    3.7521   -4.2105 H         1 <0>         0.1436
     24 H5         -3.6946    6.9073   -7.0311 H         1 <0>         0.1359
     25 H6          0.0490    9.4848   -4.8297 H         1 <0>         0.2248
     26 H7         -2.3796    4.1594   -0.1478 H         1 <0>         0.1366
     27 H8         -0.8165    4.1707    0.7041 H         1 <0>         0.1410
     28 H9         -1.0610    0.7283    1.8574 H         1 <0>         0.1330
     29 H10        -0.0560    2.1978    1.8543 H         1 <0>         0.1309
     30 H11         0.0021   -0.0041    0.0020 H         1 <0>         0.1109
     31 H12         1.0092    1.4650    0.0003 H         1 <0>         0.1045
     32 H13        -0.2644    1.2488   -2.1369 H         1 <0>         0.1257
     33 H14        -2.7530    1.4445   -2.0461 H         1 <0>         0.1081
     34 H15        -2.1940   -0.0169   -1.1951 H         1 <0>         0.1038
     35 H16        -3.7354    2.1770   -0.1469 H         1 <0>         0.1290
     36 H17        -3.1786    0.7163    0.7048 H         1 <0>         0.1307
     37 N3         -1.9190    2.3905    0.8904 N.4       1 <0>        -0.3893
     38 H18        -2.3871    2.7109    1.7462 H         1 <0>         0.4360
@<TRIPOS>BOND
     1    1    6 ar
     2    1    2 ar
     3    1   22 1
     4    2    3 ar
     5    2   23 1
     6    3    4 ar
     7    3   11 1
     8    4   10 1
     9    4    5 ar
    10    5    6 ar
    11    5    7 1
    12    6   24 1
    13    7    8 1
    14    7    9 1
    15    9   10 2
    16    9   25 1
    17   11   12 2
    18   11   13 1
    19   13   14 1
    20   14   15 1
    21   14   19 1
    22   14   16 1
    23   16   26 1
    24   16   27 1
    25   16   37 1
    26   17   18 1
    27   17   28 1
    28   17   29 1
    29   17   37 1
    30   18   19 1
    31   18   30 1
    32   18   31 1
    33   19   20 1
    34   19   32 1
    35   20   21 1
    36   20   33 1
    37   20   34 1
    38   21   35 1
    39   21   36 1
    40   21   37 1
    41   37   38 1
@<TRIPOS>MOLECULE
ZINC00385645
   38    41     0     0     0
SMALL
USER_CHARGES
quinuclidin-3-yl 1H-benzoimidazole-4-carboxylate
@<TRIPOS>ATOM
      1 C1         -2.5313    3.9990    0.0353 C.ar      1 <0>        -0.1267
      2 C2         -1.3254    3.3229    0.0264 C.ar      1 <0>        -0.0519
      3 C3         -1.2996    1.9300    0.0187 C.ar      1 <0>        -0.0970
      4 C4         -2.5158    1.2138    0.0147 C.ar      1 <0>         0.1080
      5 C5         -3.7300    1.9198    0.0292 C.ar      1 <0>         0.0283
      6 C6         -3.7268    3.3072    0.0363 C.ar      1 <0>        -0.0538
      7 N1         -4.7258    0.9622    0.0289 N.pl3     1 <0>        -0.5979
      8 H1         -5.7115    1.1306    0.0340 H         1 <0>         0.4384
      9 C7         -4.1147   -0.2511    0.0204 C.2       1 <0>         0.2847
     10 N2         -2.8206   -0.0987    0.0156 N.2       1 <0>        -0.4876
     11 C8         -0.0144    1.2111    0.0087 C.2       1 <0>         0.5078
     12 O1          0.0021   -0.0041    0.0020 O.2       1 <0>        -0.4677
     13 O2          1.1435    1.9008    0.0013 O.3       1 <0>        -0.3449
     14 C9          2.3718    1.1267   -0.0145 C.3       1 <0>         0.0804
     15 H2          2.2005    0.1802   -0.5274 H         1 <0>         0.1218
     16 C10         2.8286    0.8593    1.4225 C.3       1 <0>        -0.0192
     17 C11         5.1516    0.8256    0.7363 C.3       1 <0>        -0.0046
     18 C12         4.7608    1.0915   -0.7201 C.3       1 <0>        -0.1344
     19 C13         3.4671    1.9153   -0.7434 C.3       1 <0>        -0.1001
     20 C14         3.6953    3.2372    0.0004 C.3       1 <0>        -0.1298
     21 C15         4.1298    2.9025    1.4478 C.3       1 <0>        -0.0053
     22 H3         -2.5386    5.0790    0.0412 H         1 <0>         0.1447
     23 H4         -0.3986    3.8773    0.0250 H         1 <0>         0.1435
     24 H5         -4.6618    3.8477    0.0429 H         1 <0>         0.1359
     25 H6         -4.6262   -1.2022    0.0176 H         1 <0>         0.2249
     26 H7          2.1219    1.3112    2.1187 H         1 <0>         0.1367
     27 H8          2.8732   -0.2159    1.5959 H         1 <0>         0.1410
     28 H9          5.1800   -0.2494    0.9148 H         1 <0>         0.1306
     29 H10         6.1349    1.2530    0.9329 H         1 <0>         0.1329
     30 H11         4.5996    0.1438   -1.2339 H         1 <0>         0.1046
     31 H12         5.5560    1.6463   -1.2181 H         1 <0>         0.1111
     32 H13         3.1660    2.1114   -1.7725 H         1 <0>         0.1246
     33 H14         4.4866    3.8019   -0.4927 H         1 <0>         0.1031
     34 H15         2.7741    3.8199    0.0007 H         1 <0>         0.1098
     35 H16         3.4144    3.3398    2.1443 H         1 <0>         0.1285
     36 H17         5.1213    3.3133    1.6385 H         1 <0>         0.1311
     37 N3          4.1689    1.4393    1.6548 N.4       1 <0>        -0.3877
     38 H18         4.4520    1.2470    2.6229 H         1 <0>         0.4363
@<TRIPOS>BOND
     1    1    6 ar
     2    1    2 ar
     3    1   22 1
     4    2    3 ar
     5    2   23 1
     6    3    4 ar
     7    3   11 1
     8    4   10 1
     9    4    5 ar
    10    5    6 ar
    11    5    7 1
    12    6   24 1
    13    7    8 1
    14    7    9 1
    15    9   10 2
    16    9   25 1
    17   11   12 2
    18   11   13 1
    19   13   14 1
    20   14   15 1
    21   14   19 1
    22   14   16 1
    23   16   26 1
    24   16   27 1
    25   16   37 1
    26   17   18 1
    27   17   28 1
    28   17   29 1
    29   17   37 1
    30   18   19 1
    31   18   30 1
    32   18   31 1
    33   19   20 1
    34   19   32 1
    35   20   21 1
    36   20   33 1
    37   20   34 1
    38   21   35 1
    39   21   36 1
    40   21   37 1
    41   37   38 1
@<TRIPOS>MOLECULE
ZINC00385631
   45    48     0     0     0
SMALL
USER_CHARGES
N-(9-methyl-9-azabicyclo[3.3.1]non-7-yl)-1H-benzoimidazole-4-carboxamide
@<TRIPOS>ATOM
      1 C1         -0.8779    2.0186    1.0489 C.3       1 <0>        -0.0418
      2 C2          0.0021   -0.0041    0.0020 C.3       1 <0>         0.0424
      3 H1         -1.0202   -0.3816    0.0208 H         1 <0>         0.1356
      4 C3          0.7602   -0.5385    1.2172 C.3       1 <0>        -0.1323
      5 C4          2.1826    0.0256    1.2260 C.3       1 <0>        -0.1381
      6 C5          2.1289    1.5543    1.2099 C.3       1 <0>        -0.1322
      7 C6          1.3271    2.0340    0.0003 C.3       1 <0>         0.0438
      8 H2          1.2558    3.1216    0.0232 H         1 <0>         0.1372
      9 C7          2.0462    1.6081   -1.2851 C.3       1 <0>        -0.1576
     10 C8          1.1116    0.7227   -2.1139 C.3       1 <0>         0.1369
     11 C9          0.6888   -0.4892   -1.2796 C.3       1 <0>        -0.1615
     12 N1          1.8094    0.2684   -3.3198 N.am      1 <0>        -0.7281
     13 C10         1.1056   -0.0755   -4.4166 C.2       1 <0>         0.5659
     14 O1         -0.1086   -0.0087   -4.4054 O.2       1 <0>        -0.5023
     15 C11         1.8075   -0.5324   -5.6295 C.ar      1 <0>        -0.1028
     16 C12         3.1980   -0.6111   -5.6487 C.ar      1 <0>        -0.0809
     17 C13         3.8578   -1.0394   -6.7854 C.ar      1 <0>        -0.1185
     18 C14         3.1513   -1.3950   -7.9181 C.ar      1 <0>        -0.0668
     19 C15         1.7660   -1.3265   -7.9258 C.ar      1 <0>         0.0320
     20 C16         1.0765   -0.8993   -6.7787 C.ar      1 <0>         0.1042
     21 N2         -0.2383   -0.9275   -7.0734 N.2       1 <0>        -0.4820
     22 C17        -0.4074   -1.3424   -8.2968 C.2       1 <0>         0.2778
     23 N3          0.7964   -1.6034   -8.8702 N.pl3     1 <0>        -0.6005
     24 H3          0.9515   -1.9339   -9.8012 H         1 <0>         0.4366
     25 H4         -0.5274    1.6895    2.0271 H         1 <0>         0.1249
     26 H5         -0.8466    3.1070    0.9989 H         1 <0>         0.1210
     27 H6         -1.9017    1.6771    0.8960 H         1 <0>         0.1208
     28 H7          0.2463   -0.2628    2.1352 H         1 <0>         0.0896
     29 H8          0.8096   -1.6302    1.1532 H         1 <0>         0.1104
     30 H9          2.6986   -0.3086    2.1281 H         1 <0>         0.0938
     31 H10         2.7255   -0.3339    0.3521 H         1 <0>         0.0827
     32 H11         1.6753    1.9179    2.1297 H         1 <0>         0.0902
     33 H12         3.1475    1.9471    1.1386 H         1 <0>         0.1109
     34 H13         2.3169    2.4938   -1.8586 H         1 <0>         0.1086
     35 H14         2.9453    1.0502   -1.0291 H         1 <0>         0.1087
     36 H15         0.2281    1.2935   -2.4004 H         1 <0>         0.0914
     37 H16         1.5661   -1.0789   -1.0219 H         1 <0>         0.1050
     38 H17        -0.0072   -1.1014   -1.8520 H         1 <0>         0.1062
     39 H18         2.7779    0.2152   -3.3287 H         1 <0>         0.4067
     40 H19         3.7637   -0.3363   -4.7706 H         1 <0>         0.1312
     41 H20         4.9363   -1.0962   -6.7881 H         1 <0>         0.1415
     42 H21         3.6790   -1.7277   -8.7997 H         1 <0>         0.1331
     43 H22        -1.3640   -1.4615   -8.7837 H         1 <0>         0.2226
     44 N4         -0.0436    1.4746   -0.0524 N.4       1 <0>        -0.3973
     45 H23        -0.4704    1.7510   -0.9444 H         1 <0>         0.4313
@<TRIPOS>BOND
     1    1   25 1
     2    1   26 1
     3    1   27 1
     4    1   44 1
     5    2    3 1
     6    2   11 1
     7    2    4 1
     8    2   44 1
     9    4    5 1
    10    4   28 1
    11    4   29 1
    12    5    6 1
    13    5   30 1
    14    5   31 1
    15    6    7 1
    16    6   32 1
    17    6   33 1
    18    7    8 1
    19    7    9 1
    20    7   44 1
    21    9   10 1
    22    9   34 1
    23    9   35 1
    24   10   11 1
    25   10   12 1
    26   10   36 1
    27   11   37 1
    28   11   38 1
    29   12   13 am
    30   12   39 1
    31   13   14 2
    32   13   15 1
    33   15   20 ar
    34   15   16 ar
    35   16   17 ar
    36   16   40 1
    37   17   18 ar
    38   17   41 1
    39   18   19 ar
    40   18   42 1
    41   19   23 1
    42   19   20 ar
    43   20   21 1
    44   21   22 2
    45   22   23 1
    46   22   43 1
    47   23   24 1
    48   44   45 1
@<TRIPOS>MOLECULE
ZINC20405012
   41    44     0     0     0
SMALL
USER_CHARGES

@<TRIPOS>ATOM
      1 C1         -0.0167    1.3781    0.0096 C.ar      1 <0>        -0.1179
      2 C2          1.1709    2.0855    0.0021 C.ar      1 <0>        -0.1201
      3 C3          2.3773    1.4107   -0.0130 C.ar      1 <0>        -0.0970
      4 C4          2.3960    0.0285   -0.0201 C.ar      1 <0>        -0.0820
      5 C5          1.2084   -0.6789   -0.0117 C.ar      1 <0>        -0.1161
      6 C6          0.0021   -0.0041    0.0020 C.ar      1 <0>        -0.1199
      7 C7          3.7112   -0.7071   -0.0376 C.3       1 <0>         0.0947
      8 N1          4.1530   -0.9531    1.3416 N.3       1 <0>        -0.5316
      9 C8          3.2388   -1.8732    2.0311 C.3       1 <0>         0.0354
     10 C9          3.6281   -1.9616    3.5106 C.3       1 <0>         0.1327
     11 N2          5.0523   -2.3180    3.5985 N.pl3     1 <0>        -0.5614
     12 C10         6.0175   -1.5238    2.8232 C.3       1 <0>         0.1292
     13 C11         5.5341   -1.4527    1.3708 C.3       1 <0>         0.0399
     14 C12         5.4719   -3.3699    4.3871 C.2       1 <0>         0.4238
     15 N3          4.7534   -4.1791    5.1318 N.2       1 <0>        -0.5886
     16 C13         5.3038   -5.1764    5.8586 C.ar      1 <0>         0.1315
     17 C14         4.6497   -6.1100    6.6951 C.ar      1 <0>        -0.0889
     18 C15         5.3632   -7.0671    7.3685 C.ar      1 <0>        -0.0979
     19 C16         6.7431   -7.1555    7.2559 C.ar      1 <0>        -0.1212
     20 C17         7.4153   -6.2582    6.4461 C.ar      1 <0>        -0.0531
     21 C18         6.7089   -5.2966    5.7682 C.ar      1 <0>        -0.1656
     22 S1          7.1302   -3.9828    4.6488 S.3       1 <0>        -0.0319
     23 H1         -0.9591    1.9053    0.0259 H         1 <0>         0.1216
     24 H2          1.1563    3.1654    0.0076 H         1 <0>         0.1225
     25 H3          3.3051    1.9634   -0.0196 H         1 <0>         0.1227
     26 H4          1.2231   -1.7588   -0.0176 H         1 <0>         0.1180
     27 H5         -0.9258   -0.5567    0.0082 H         1 <0>         0.1220
     28 H6          3.5884   -1.6586   -0.5549 H         1 <0>         0.0457
     29 H7          4.4573   -0.1052   -0.5563 H         1 <0>         0.0876
     30 H8          2.2171   -1.5031    1.9453 H         1 <0>         0.0982
     31 H9          3.3072   -2.8619    1.5774 H         1 <0>         0.0416
     32 H10         3.4615   -0.9976    3.9913 H         1 <0>         0.0815
     33 H11         3.0280   -2.7274    4.0020 H         1 <0>         0.1000
     34 H12         6.0806   -0.5177    3.2378 H         1 <0>         0.0898
     35 H13         6.9972   -2.0003    2.8602 H         1 <0>         0.0876
     36 H14         5.5706   -2.4473    0.9262 H         1 <0>         0.0443
     37 H15         6.1771   -0.7776    0.8061 H         1 <0>         0.0969
     38 H16         3.5762   -6.0683    6.8050 H         1 <0>         0.1292
     39 H17         4.8394   -7.7681    8.0014 H         1 <0>         0.1314
     40 H18         7.2869   -7.9169    7.7953 H         1 <0>         0.1357
     41 H19         8.4894   -6.3136    6.3482 H         1 <0>         0.1299
@<TRIPOS>BOND
     1    1    6 ar
     2    1    2 ar
     3    1   23 1
     4    2    3 ar
     5    2   24 1
     6    3    4 ar
     7    3   25 1
     8    4    5 ar
     9    4    7 1
    10    5    6 ar
    11    5   26 1
    12    6   27 1
    13    7    8 1
    14    7   28 1
    15    7   29 1
    16    8   13 1
    17    8    9 1
    18    9   10 1
    19    9   30 1
    20    9   31 1
    21   10   11 1
    22   10   32 1
    23   10   33 1
    24   11   12 1
    25   11   14 1
    26   12   13 1
    27   12   34 1
    28   12   35 1
    29   13   36 1
    30   13   37 1
    31   14   22 1
    32   14   15 2
    33   15   16 1
    34   16   21 ar
    35   16   17 ar
    36   17   18 ar
    37   17   38 1
    38   18   19 ar
    39   18   39 1
    40   19   20 ar
    41   19   40 1
    42   20   21 ar
    43   20   41 1
    44   21   22 1
@<TRIPOS>MOLECULE
ZINC00006097
   43    44     0     0     0
SMALL
USER_CHARGES

@<TRIPOS>ATOM
      1 C1         -0.3605    1.4536   -0.2932 C.3       1 <0>         0.0169
      2 O1         -0.2728    0.0279   -0.2495 O.3       1 <0>        -0.2804
      3 C2          0.4248   -0.5150    0.7796 C.ar      1 <0>         0.2551
      4 C3          1.0086    0.3023    1.7317 C.ar      1 <0>        -0.2999
      5 C4          1.7217   -0.2593    2.7832 C.ar      1 <0>         0.3146
      6 C5          1.8520   -1.6446    2.8830 C.ar      1 <0>        -0.1645
      7 C6          1.2805   -2.4600    1.9491 C.ar      1 <0>         0.0315
      8 C7          0.5531   -1.9091    0.8874 C.ar      1 <0>        -0.2290
      9 C8         -0.0685   -2.7870   -0.1154 C.2       1 <0>         0.5255
     10 O2         -0.6948   -2.3061   -1.0396 O.2       1 <0>        -0.4759
     11 O3          0.0562   -4.1251   -0.0097 O.3       1 <0>        -0.3730
     12 C9         -0.5732   -4.9171   -1.0189 C.3       1 <0>         0.0343
     13 C10        -0.3243   -6.3994   -0.7330 C.3       1 <0>        -0.0013
     14 N1         -0.9600   -6.7661    0.5396 N.4       1 <0>        -0.3849
     15 C11        -0.5913   -8.1429    0.8901 C.3       1 <0>        -0.0071
     16 C12        -1.1845   -8.5023    2.2541 C.3       1 <0>        -0.1466
     17 C13        -2.7097   -8.3815    2.1891 C.3       1 <0>        -0.1389
     18 C14        -3.0813   -6.9621    1.7504 C.3       1 <0>        -0.1454
     19 C15        -2.4178   -6.6598    0.4051 C.3       1 <0>        -0.0143
     20 Cl1         2.7460   -2.3351    4.2011 Cl        1 <0>        -0.0562
     21 N2          2.3083    0.5625    3.7397 N.pl3     1 <0>        -0.8443
     22 H1          0.6414    1.8772   -0.3628 H         1 <0>         0.0641
     23 H2         -0.9437    1.7552   -1.1633 H         1 <0>         0.1105
     24 H3         -0.8460    1.8157    0.6130 H         1 <0>         0.0636
     25 H4          0.9103    1.3752    1.6570 H         1 <0>         0.1503
     26 H5          1.3855   -3.5316    2.0322 H         1 <0>         0.1480
     27 H6         -1.6456   -4.7219   -1.0178 H         1 <0>         0.0920
     28 H7         -0.1582   -4.6604   -1.9936 H         1 <0>         0.1149
     29 H8         -0.7481   -7.0007   -1.5374 H         1 <0>         0.1498
     30 H9          0.7484   -6.5820   -0.6692 H         1 <0>         0.1435
     31 H10        -0.9790   -8.8260    0.1344 H         1 <0>         0.1292
     32 H11         0.4946   -8.2281    0.9328 H         1 <0>         0.1315
     33 H12        -0.9111   -9.5255    2.5117 H         1 <0>         0.1127
     34 H13        -0.7972   -7.8199    3.0107 H         1 <0>         0.0882
     35 H14        -3.1019   -9.0999    1.4693 H         1 <0>         0.0820
     36 H15        -3.1335   -8.5815    3.1733 H         1 <0>         0.0943
     37 H16        -4.1637   -6.8844    1.6480 H         1 <0>         0.1122
     38 H17        -2.7334   -6.2477    2.4965 H         1 <0>         0.0879
     39 H18        -2.6804   -5.6500    0.0897 H         1 <0>         0.1283
     40 H19        -2.7666   -7.3745   -0.3403 H         1 <0>         0.1309
     41 H20         2.2191    1.5260    3.6718 H         1 <0>         0.4113
     42 H21         2.8067    0.1722    4.4747 H         1 <0>         0.4107
     43 H22        -0.6436   -6.1402    1.2650 H         1 <0>         0.4281
@<TRIPOS>BOND
     1    1    2 1
     2    1   22 1
     3    1   23 1
     4    1   24 1
     5    2    3 1
     6    3    8 ar
     7    3    4 ar
     8    4    5 ar
     9    4   25 1
    10    5    6 ar
    11    5   21 1
    12    6    7 ar
    13    6   20 1
    14    7    8 ar
    15    7   26 1
    16    8    9 1
    17    9   10 2
    18    9   11 1
    19   11   12 1
    20   12   13 1
    21   12   27 1
    22   12   28 1
    23   13   14 1
    24   13   29 1
    25   13   30 1
    26   14   19 1
    27   14   15 1
    28   14   43 1
    29   15   16 1
    30   15   31 1
    31   15   32 1
    32   16   17 1
    33   16   33 1
    34   16   34 1
    35   17   18 1
    36   17   35 1
    37   17   36 1
    38   18   19 1
    39   18   37 1
    40   18   38 1
    41   19   39 1
    42   19   40 1
    43   21   41 1
    44   21   42 1
@<TRIPOS>MOLECULE
ZINC01544798
   42    42     0     0     0
SMALL
USER_CHARGES

@<TRIPOS>ATOM
      1 C1         -0.2640    1.4459    0.0391 C.3       1 <0>        -0.1867
      2 C2         -0.0334   -0.0661   -0.0010 C.3       1 <0>        -0.0190
      3 N1          0.8227   -0.4609    1.1256 N.4       1 <0>        -0.3884
      4 C3          0.1113   -0.2220    2.3885 C.3       1 <0>        -0.0150
      5 C4          1.0526   -0.4946    3.5635 C.3       1 <0>        -0.1889
      6 C5          1.1539   -1.8876    1.0125 C.3       1 <0>        -0.0058
      7 C6          2.0022   -2.1165   -0.2401 C.3       1 <0>         0.0346
      8 O1          3.2566   -1.4476   -0.0947 O.3       1 <0>        -0.3722
      9 C7          4.1273   -1.5504   -1.1186 C.2       1 <0>         0.5252
     10 O2          3.8292   -2.1908   -2.1079 O.2       1 <0>        -0.4762
     11 C8          5.4378   -0.8879   -1.0388 C.ar      1 <0>        -0.2290
     12 C9          5.7859   -0.1546    0.1018 C.ar      1 <0>         0.0314
     13 C10         7.0028    0.4597    0.1754 C.ar      1 <0>        -0.1644
     14 C11         7.9064    0.3622   -0.8828 C.ar      1 <0>         0.3146
     15 C12         7.5753   -0.3618   -2.0210 C.ar      1 <0>        -0.2999
     16 C13         6.3467   -0.9934   -2.1039 C.ar      1 <0>         0.2550
     17 O3          6.0200   -1.7066   -3.2107 O.3       1 <0>        -0.2803
     18 C14         6.9953   -1.7693   -4.2533 C.3       1 <0>         0.0168
     19 N2          9.1433    0.9927   -0.7981 N.pl3     1 <0>        -0.8444
     20 Cl1         7.4276    1.3674    1.5929 Cl        1 <0>        -0.0562
     21 H1          0.6968    1.9590    0.0785 H         1 <0>         0.0802
     22 H2         -0.8045    1.7548   -0.8556 H         1 <0>         0.1064
     23 H3         -0.8486    1.7009    0.9230 H         1 <0>         0.0817
     24 H4         -0.9909   -0.5818    0.0722 H         1 <0>         0.1321
     25 H5          0.4532   -0.3347   -0.9386 H         1 <0>         0.1290
     26 H6         -0.2254    0.8140    2.4254 H         1 <0>         0.1329
     27 H7         -0.7503   -0.8866    2.4514 H         1 <0>         0.1303
     28 H8          1.3017   -1.5554    3.5909 H         1 <0>         0.0809
     29 H9          1.9645    0.0898    3.4417 H         1 <0>         0.0812
     30 H10         0.5619   -0.2124    4.4950 H         1 <0>         0.1062
     31 H11         1.7144   -2.2015    1.8931 H         1 <0>         0.1446
     32 H12         0.2350   -2.4693    0.9403 H         1 <0>         0.1502
     33 H13         2.1733   -3.1847   -0.3728 H         1 <0>         0.1146
     34 H14         1.4785   -1.7215   -1.1107 H         1 <0>         0.0920
     35 H15         5.0908   -0.0745    0.9244 H         1 <0>         0.1481
     36 H16         8.2771   -0.4350   -2.8386 H         1 <0>         0.1503
     37 H17         7.2134   -0.7619   -4.6078 H         1 <0>         0.0636
     38 H18         7.9082   -2.2252   -3.8700 H         1 <0>         0.0641
     39 H19         6.6082   -2.3686   -5.0774 H         1 <0>         0.1105
     40 H20         9.3762    1.4991   -0.0042 H         1 <0>         0.4107
     41 H21         9.7730    0.9261   -1.5329 H         1 <0>         0.4113
     42 H22         1.6719    0.0838    1.1097 H         1 <0>         0.4278
@<TRIPOS>BOND
     1    1    2 1
     2    1   21 1
     3    1   22 1
     4    1   23 1
     5    2    3 1
     6    2   24 1
     7    2   25 1
     8    3    4 1
     9    3    6 1
    10    3   42 1
    11    4    5 1
    12    4   26 1
    13    4   27 1
    14    5   28 1
    15    5   29 1
    16    5   30 1
    17    6    7 1
    18    6   31 1
    19    6   32 1
    20    7    8 1
    21    7   33 1
    22    7   34 1
    23    8    9 1
    24    9   10 2
    25    9   11 1
    26   11   16 ar
    27   11   12 ar
    28   12   13 ar
    29   12   35 1
    30   13   14 ar
    31   13   20 1
    32   14   15 ar
    33   14   19 1
    34   15   16 ar
    35   15   36 1
    36   16   17 1
    37   17   18 1
    38   18   37 1
    39   18   38 1
    40   18   39 1
    41   19   40 1
    42   19   41 1
@<TRIPOS>MOLECULE
ZINC23382757
   35    37     0     0     0
SMALL
USER_CHARGES

@<TRIPOS>ATOM
      1 C1         -0.0375    1.4390    0.3754 C.3       1 <0>        -0.0468
      2 N1         -0.0075   -0.0166    0.1797 N.4       1 <0>        -0.3849
      3 C2          0.8298   -0.3351   -0.9837 C.3       1 <0>        -0.0221
      4 C3          0.7698   -1.8414   -1.2579 C.3       1 <0>         0.1012
      5 N2          1.1441   -2.5548   -0.0269 N.pl3     1 <0>        -0.6262
      6 C4          0.4661   -2.1813    1.2241 C.3       1 <0>         0.1030
      7 C5          0.5404   -0.6589    1.3811 C.3       1 <0>        -0.0218
      8 C6          2.1090   -3.5507   -0.0452 C.ar      1 <0>         0.4162
      9 C7          2.5691   -4.0358   -1.2781 C.ar      1 <0>        -0.2219
     10 C8          3.5169   -5.0135   -1.3115 C.ar      1 <0>        -0.0099
     11 C9          4.0085   -5.5099   -0.0866 C.ar      1 <0>        -0.1379
     12 C10         4.9857   -6.5165   -0.0485 C.ar      1 <0>        -0.0808
     13 C11         5.4376   -6.9716    1.1531 C.ar      1 <0>        -0.1261
     14 C12         4.9422   -6.4507    2.3462 C.ar      1 <0>        -0.0785
     15 C13         3.9938   -5.4740    2.3453 C.ar      1 <0>        -0.1141
     16 C14         3.5035   -4.9787    1.1249 C.ar      1 <0>         0.1745
     17 N3          2.5757   -4.0150    1.0955 N.ar      1 <0>        -0.5367
     18 H1          0.9745    1.8027    0.5531 H         1 <0>         0.1214
     19 H2         -0.4441    1.9171   -0.5158 H         1 <0>         0.1252
     20 H3         -0.6653    1.6773    1.2340 H         1 <0>         0.1256
     21 H4          0.4632    0.2078   -1.8549 H         1 <0>         0.1437
     22 H5          1.8602   -0.0434   -0.7807 H         1 <0>         0.1325
     23 H6         -0.2427   -2.1206   -1.5496 H         1 <0>         0.0941
     24 H7          1.4674   -2.0966   -2.0556 H         1 <0>         0.1282
     25 H8         -0.5771   -2.4948    1.1830 H         1 <0>         0.0873
     26 H9          0.9629   -2.6612    2.0673 H         1 <0>         0.1390
     27 H10         1.5796   -0.3574    1.5126 H         1 <0>         0.1321
     28 H11        -0.0394   -0.3547    2.2524 H         1 <0>         0.1419
     29 H12         2.1725   -3.6352   -2.1993 H         1 <0>         0.1365
     30 H13         3.8823   -5.3989   -2.2519 H         1 <0>         0.1463
     31 H14         5.3770   -6.9282   -0.9671 H         1 <0>         0.1331
     32 H15         6.1893   -7.7465    1.1812 H         1 <0>         0.1322
     33 H16         5.3161   -6.8277    3.2866 H         1 <0>         0.1340
     34 H17         3.6195   -5.0812    3.2791 H         1 <0>         0.1347
     35 H18        -0.9452   -0.3524    0.0182 H         1 <0>         0.4250
@<TRIPOS>BOND
     1    1    2 1
     2    1   18 1
     3    1   19 1
     4    1   20 1
     5    2    7 1
     6    2    3 1
     7    2   35 1
     8    3    4 1
     9    3   21 1
    10    3   22 1
    11    4    5 1
    12    4   23 1
    13    4   24 1
    14    5    6 1
    15    5    8 1
    16    6    7 1
    17    6   25 1
    18    6   26 1
    19    7   27 1
    20    7   28 1
    21    8   17 ar
    22    8    9 ar
    23    9   10 ar
    24    9   29 1
    25   10   11 ar
    26   10   30 1
    27   11   16 ar
    28   11   12 ar
    29   12   13 ar
    30   12   31 1
    31   13   14 ar
    32   13   32 1
    33   14   15 ar
    34   14   33 1
    35   15   16 ar
    36   15   34 1
    37   16   17 ar
@<TRIPOS>MOLECULE
ZINC23382757
   35    37     0     0     0
SMALL
USER_CHARGES

@<TRIPOS>ATOM
      1 C1         -0.0163    1.4643    0.0496 C.3       1 <0>         0.0217
      2 N1          0.0029   -0.0043    0.0221 N.3       1 <0>        -0.5426
      3 C2          0.6113   -0.4996   -1.2198 C.3       1 <0>         0.0375
      4 C3          0.4494   -2.0217   -1.2923 C.3       1 <0>         0.0969
      5 N2          0.9912   -2.6085   -0.0572 N.pl3     1 <0>        -0.5767
      6 C4          0.5300   -2.0680    1.2305 C.3       1 <0>         0.1091
      7 C5          0.6887   -0.5441    1.2037 C.3       1 <0>         0.0334
      8 C6          1.9121   -3.6443   -0.1057 C.ar      1 <0>         0.4970
      9 C7          2.4997   -4.0945    1.0856 C.ar      1 <0>        -0.2205
     10 C8          3.4055   -5.1113    1.0534 C.ar      1 <0>         0.0641
     11 C9          3.7242   -5.6831   -0.1955 C.ar      1 <0>        -0.1211
     12 C10         4.6484   -6.7339   -0.3006 C.ar      1 <0>        -0.0488
     13 C11         4.9317   -7.2622   -1.5237 C.ar      1 <0>        -0.1164
     14 C12         4.3156   -6.7728   -2.6730 C.ar      1 <0>        -0.0327
     15 C13         3.4148   -5.7542   -2.6070 C.ar      1 <0>        -0.1504
     16 C14         3.0966   -5.1840   -1.3626 C.ar      1 <0>         0.1617
     17 N3          2.2103   -4.1859   -1.2686 N.ar      1 <0>        -0.5290
     18 H1          1.0065    1.8408    0.0625 H         1 <0>         0.0338
     19 H2         -0.5298    1.8377   -0.8363 H         1 <0>         0.0787
     20 H3         -0.5398    1.8042    0.9433 H         1 <0>         0.0808
     21 H4          0.1167   -0.0401   -2.0756 H         1 <0>         0.1073
     22 H5          1.6712   -0.2456   -1.2322 H         1 <0>         0.0477
     23 H6         -0.6071   -2.2736   -1.3846 H         1 <0>         0.1118
     24 H7          0.9972   -2.4077   -2.1520 H         1 <0>         0.0842
     25 H8         -0.5187   -2.3243    1.3808 H         1 <0>         0.1080
     26 H9          1.1311   -2.4846    2.0388 H         1 <0>         0.1084
     27 H10         1.7476   -0.2894    1.1576 H         1 <0>         0.0489
     28 H11         0.2504   -0.1168    2.1055 H         1 <0>         0.1086
     29 H12         2.2348   -3.6355    2.0267 H         1 <0>         0.1802
     30 H13         3.8678   -5.4701    1.9611 H         1 <0>         0.1772
     31 H14         5.1327   -7.1214    0.5836 H         1 <0>         0.1558
     32 H15         5.6434   -8.0706   -1.6033 H         1 <0>         0.1498
     33 H16         4.5566   -7.2080   -3.6316 H         1 <0>         0.1521
     34 H17         2.9464   -5.3857   -3.5076 H         1 <0>         0.1496
     35 H18         1.7823   -3.8523   -2.0727 H         1 <0>         0.4338
@<TRIPOS>BOND
     1    1    2 1
     2    1   18 1
     3    1   19 1
     4    1   20 1
     5    2    7 1
     6    2    3 1
     7    3    4 1
     8    3   21 1
     9    3   22 1
    10    4    5 1
    11    4   23 1
    12    4   24 1
    13    5    6 1
    14    5    8 1
    15    6    7 1
    16    6   25 1
    17    6   26 1
    18    7   27 1
    19    7   28 1
    20    8   17 ar
    21    8    9 ar
    22    9   10 ar
    23    9   29 1
    24   10   11 ar
    25   10   30 1
    26   11   16 ar
    27   11   12 ar
    28   12   13 ar
    29   12   31 1
    30   13   14 ar
    31   13   32 1
    32   14   15 ar
    33   14   33 1
    34   15   16 ar
    35   15   34 1
    36   16   17 ar
    37   17   35 1
@<TRIPOS>MOLECULE
ZINC00004035
   46    50     0     0     0
SMALL
USER_CHARGES

@<TRIPOS>ATOM
      1 C1         -0.4431   -3.3350    1.8601 C.3       1 <0>        -0.1122
      2 C2         -0.1718   -2.2402    0.8607 C.cat     1 <0>         0.2987
      3 N1         -0.0109   -2.4057   -0.4237 N.pl3     1 <0>        -0.4743
      4 C3          0.2117   -1.2146   -0.9988 C.2       1 <0>        -0.0135
      5 C4          0.1877   -0.2753   -0.0341 C.2       1 <0>         0.0712
      6 N2         -0.0608   -0.9247    1.1449 N.pl3     1 <0>        -0.3994
      7 C5         -0.1811   -0.3082    2.4684 C.3       1 <0>         0.1082
      8 C6         -1.6568   -0.2375    2.8660 C.3       1 <0>        -0.1547
      9 C7         -1.7701    0.2401    4.3138 C.3       1 <0>        -0.1026
     10 C8         -3.2419    0.3214    4.7347 C.3       1 <0>        -0.0683
     11 C9         -3.9615    1.2316    3.7670 C.2       1 <0>         0.1701
     12 C10        -3.5166    1.3993    2.4514 C.2       1 <0>        -0.2965
     13 C11        -4.4255    2.3344    1.8127 C.ar      1 <0>        -0.0297
     14 C12        -4.5560    2.9207    0.5544 C.ar      1 <0>        -0.0817
     15 C13        -5.6184    3.7948    0.3754 C.ar      1 <0>        -0.1195
     16 C14        -6.5331    4.0974    1.3804 C.ar      1 <0>        -0.1030
     17 C15        -6.4214    3.5303    2.6236 C.ar      1 <0>        -0.0749
     18 C16        -5.3571    2.6524    2.8126 C.ar      1 <0>         0.0491
     19 N3         -5.0509    1.9753    3.9741 N.pl3     1 <0>        -0.4372
     20 C17        -5.8938    2.1580    5.1663 C.3       1 <0>         0.1009
     21 C18        -6.5398    3.5469    5.0977 C.3       1 <0>        -0.1359
     22 C19        -7.3267    3.7561    3.7990 C.3       1 <0>        -0.0805
     23 C20        -2.3787    0.7227    1.9476 C.2       1 <0>         0.4328
     24 O1         -1.9941    0.9084    0.8112 O.2       1 <0>        -0.4830
     25 H1         -1.5176   -3.4213    2.0218 H         1 <0>         0.1173
     26 H2         -0.0561   -4.2797    1.4783 H         1 <0>         0.1153
     27 H3          0.0481   -3.0958    2.8033 H         1 <0>         0.1143
     28 H4          0.3805   -1.0395   -2.0511 H         1 <0>         0.2212
     29 H5          0.3326    0.7868   -0.1660 H         1 <0>         0.2189
     30 H6          0.3637   -0.9064    3.1988 H         1 <0>         0.1253
     31 H7          0.2360    0.6984    2.4396 H         1 <0>         0.1279
     32 H8         -2.1033   -1.2279    2.7772 H         1 <0>         0.1148
     33 H9         -1.2465   -0.4587    4.9661 H         1 <0>         0.0972
     34 H10        -1.3138    1.2258    4.4052 H         1 <0>         0.0856
     35 H11        -3.6880   -0.6727    4.7053 H         1 <0>         0.1026
     36 H12        -3.3136    0.7274    5.7437 H         1 <0>         0.0984
     37 H13        -3.8616    2.7046   -0.2441 H         1 <0>         0.1350
     38 H14        -5.7416    4.2632   -0.5899 H         1 <0>         0.1249
     39 H15        -7.3395    4.7868    1.1786 H         1 <0>         0.1307
     40 H16        -6.6705    1.3935    5.1863 H         1 <0>         0.0938
     41 H17        -5.2797    2.0837    6.0638 H         1 <0>         0.1001
     42 H18        -7.2165    3.6645    5.9441 H         1 <0>         0.0990
     43 H19        -5.7585    4.3041    5.1639 H         1 <0>         0.0767
     44 H20        -7.7137    4.7747    3.7690 H         1 <0>         0.0917
     45 H21        -8.1567    3.0508    3.7590 H         1 <0>         0.0851
     46 H22        -0.0465   -3.2561   -0.8891 H         1 <0>         0.4602
@<TRIPOS>BOND
     1    1    2 1
     2    1   25 1
     3    1   26 1
     4    1   27 1
     5    2    6 1
     6    2    3 2
     7    3    4 1
     8    3   46 1
     9    4    5 2
    10    4   28 1
    11    5    6 1
    12    5   29 1
    13    6    7 1
    14    7    8 1
    15    7   30 1
    16    7   31 1
    17    8   23 1
    18    8    9 1
    19    8   32 1
    20    9   10 1
    21    9   33 1
    22    9   34 1
    23   10   11 1
    24   10   35 1
    25   10   36 1
    26   11   19 1
    27   11   12 2
    28   12   13 1
    29   12   23 1
    30   13   18 ar
    31   13   14 ar
    32   14   15 ar
    33   14   37 1
    34   15   16 ar
    35   15   38 1
    36   16   17 ar
    37   16   39 1
    38   17   22 1
    39   17   18 ar
    40   18   19 1
    41   19   20 1
    42   20   21 1
    43   20   40 1
    44   20   41 1
    45   21   22 1
    46   21   42 1
    47   21   43 1
    48   22   44 1
    49   22   45 1
    50   23   24 2
@<TRIPOS>MOLECULE
ZINC13759258
   29    30     0     0     0
SMALL
USER_CHARGES
1-(6-iodo-2-pyridyl)-4-methyl-piperazine
@<TRIPOS>ATOM
      1 C1         -0.1087    1.0567   -2.4117 C.3       1 <0>        -0.0452
      2 N1         -0.7243    1.5730   -1.1819 N.4       1 <0>        -0.4048
      3 C2         -0.0127    1.0858    0.0080 C.3       1 <0>         0.0010
      4 C3         -0.7300    1.5798    1.2666 C.3       1 <0>         0.0254
      5 N2         -0.7832    3.0484    1.2523 N.pl3     1 <0>        -0.4753
      6 C4         -1.4948    3.5356    0.0624 C.3       1 <0>         0.0349
      7 C5         -0.7771    3.0416   -1.1959 C.3       1 <0>        -0.0027
      8 C6         -1.3657    3.5370    2.4159 C.ar      1 <0>         0.2976
      9 C7         -0.8369    3.1825    3.6530 C.ar      1 <0>        -0.1603
     10 C8         -1.4227    3.6803    4.8029 C.ar      1 <0>        -0.0423
     11 C9         -2.5289    4.5101    4.6774 C.ar      1 <0>        -0.1432
     12 C10        -3.0050    4.8167    3.4178 C.ar      1 <0>         0.1341
     13 N3         -2.4222    4.3312    2.3373 N.ar      1 <0>        -0.4904
     14 I1         -4.6731    6.0685    3.2191 I         1 <0>         0.0291
     15 H1         -0.0819   -0.0424   -2.3748 H         1 <0>         0.1256
     16 H2          0.9164    1.4457   -2.4998 H         1 <0>         0.1208
     17 H3         -0.6997    1.3802   -3.2813 H         1 <0>         0.1263
     18 H4          0.0024   -0.0141    0.0014 H         1 <0>         0.1432
     19 H5          1.0192    1.4667   -0.0003 H         1 <0>         0.1386
     20 H6         -1.7526    1.1750    1.2886 H         1 <0>         0.0734
     21 H7         -0.1821    1.2404    2.1580 H         1 <0>         0.1314
     22 H8         -2.5266    3.1545    0.0706 H         1 <0>         0.0775
     23 H9         -1.5101    4.6355    0.0690 H         1 <0>         0.1332
     24 H10         0.2460    3.4451   -1.2179 H         1 <0>         0.1363
     25 H11        -1.3241    3.3804   -2.0881 H         1 <0>         0.1421
     26 H12         0.0220    2.5307    3.7144 H         1 <0>         0.1460
     27 H13        -1.0312    3.4256    5.7767 H         1 <0>         0.1546
     28 H14        -3.0122    4.9114    5.5559 H         1 <0>         0.1503
     29 H15        -1.7568    1.1962   -1.1382 H         1 <0>         0.4426
@<TRIPOS>BOND
     1    1    2 1
     2    1   15 1
     3    1   16 1
     4    1   17 1
     5    2    7 1
     6    2    3 1
     7    2   29 1
     8    3    4 1
     9    3   18 1
    10    3   19 1
    11    4    5 1
    12    4   20 1
    13    4   21 1
    14    5    6 1
    15    5    8 1
    16    6    7 1
    17    6   22 1
    18    6   23 1
    19    7   24 1
    20    7   25 1
    21    8   13 ar
    22    8    9 ar
    23    9   10 ar
    24    9   26 1
    25   10   11 ar
    26   10   27 1
    27   11   12 ar
    28   11   28 1
    29   12   13 ar
    30   12   14 1
@<TRIPOS>MOLECULE
ZINC13759258
   28    29     0     0     0
SMALL
USER_CHARGES
1-(6-iodo-2-pyridyl)-4-methyl-piperazine
@<TRIPOS>ATOM
      1 C1         -0.1087    1.0567   -2.4117 C.3       1 <0>         0.0225
      2 N1         -0.7243    1.5730   -1.1819 N.3       1 <0>        -0.5461
      3 C2         -0.0127    1.0858    0.0080 C.3       1 <0>         0.0537
      4 C3         -0.7300    1.5798    1.2666 C.3       1 <0>         0.0593
      5 N2         -0.7832    3.0484    1.2523 N.pl3     1 <0>        -0.4767
      6 C4         -1.4948    3.5356    0.0624 C.3       1 <0>         0.0674
      7 C5         -0.7771    3.0416   -1.1959 C.3       1 <0>         0.0508
      8 C6         -1.3657    3.5370    2.4159 C.ar      1 <0>         0.3206
      9 C7         -0.8369    3.1825    3.6530 C.ar      1 <0>        -0.1701
     10 C8         -1.4227    3.6803    4.8029 C.ar      1 <0>        -0.0467
     11 C9         -2.5289    4.5101    4.6774 C.ar      1 <0>        -0.1636
     12 C10        -3.0050    4.8167    3.4178 C.ar      1 <0>         0.1380
     13 N3         -2.4222    4.3312    2.3373 N.ar      1 <0>        -0.4929
     14 I1         -4.6731    6.0685    3.2191 I         1 <0>         0.0086
     15 H1         -0.0819   -0.0424   -2.3748 H         1 <0>         0.0711
     16 H2          0.9164    1.4457   -2.4998 H         1 <0>         0.0284
     17 H3         -0.6997    1.3802   -3.2813 H         1 <0>         0.0720
     18 H4          0.0024   -0.0141    0.0014 H         1 <0>         0.0889
     19 H5          1.0192    1.4667   -0.0003 H         1 <0>         0.0472
     20 H6         -1.7526    1.1750    1.2886 H         1 <0>         0.0581
     21 H7         -0.1821    1.2404    2.1580 H         1 <0>         0.0909
     22 H8         -2.5266    3.1545    0.0706 H         1 <0>         0.0620
     23 H9         -1.5101    4.6355    0.0690 H         1 <0>         0.0922
     24 H10         0.2460    3.4451   -1.2179 H         1 <0>         0.0444
     25 H11        -1.3241    3.3804   -2.0881 H         1 <0>         0.0876
     26 H12         0.0220    2.5307    3.7144 H         1 <0>         0.1431
     27 H13        -1.0312    3.4256    5.7767 H         1 <0>         0.1470
     28 H14        -3.0122    4.9114    5.5559 H         1 <0>         0.1423
@<TRIPOS>BOND
     1    1    2 1
     2    1   15 1
     3    1   16 1
     4    1   17 1
     5    2    7 1
     6    2    3 1
     7    3    4 1
     8    3   18 1
     9    3   19 1
    10    4    5 1
    11    4   20 1
    12    4   21 1
    13    5    6 1
    14    5    8 1
    15    6    7 1
    16    6   22 1
    17    6   23 1
    18    7   24 1
    19    7   25 1
    20    8   13 ar
    21    8    9 ar
    22    9   10 ar
    23    9   26 1
    24   10   11 ar
    25   10   27 1
    26   11   12 ar
    27   11   28 1
    28   12   13 ar
    29   12   14 1
@<TRIPOS>MOLECULE
ZINC13759258
   29    30     0     0     0
SMALL
USER_CHARGES
1-(6-iodo-2-pyridyl)-4-methyl-piperazine
@<TRIPOS>ATOM
      1 C1         -0.1087    1.0567   -2.4117 C.3       1 <0>         0.0192
      2 N1         -0.7243    1.5730   -1.1819 N.3       1 <0>        -0.5464
      3 C2         -0.0127    1.0858    0.0080 C.3       1 <0>         0.0455
      4 C3         -0.7300    1.5798    1.2666 C.3       1 <0>         0.0520
      5 N2         -0.7832    3.0484    1.2523 N.pl3     1 <0>        -0.4679
      6 C4         -1.4948    3.5356    0.0624 C.3       1 <0>         0.0143
      7 C5         -0.7771    3.0416   -1.1959 C.3       1 <0>         0.0545
      8 C6         -1.3657    3.5370    2.4159 C.ar      1 <0>         0.3743
      9 C7         -0.8369    3.1825    3.6530 C.ar      1 <0>        -0.1344
     10 C8         -1.4227    3.6803    4.8029 C.ar      1 <0>         0.0278
     11 C9         -2.5289    4.5101    4.6774 C.ar      1 <0>        -0.1094
     12 C10        -3.0050    4.8167    3.4178 C.ar      1 <0>         0.1064
     13 N3         -2.4222    4.3312    2.3373 N.ar      1 <0>        -0.4916
     14 I1         -4.6731    6.0685    3.2191 I         1 <0>         0.1126
     15 H1         -0.0819   -0.0424   -2.3748 H         1 <0>         0.0803
     16 H2          0.9164    1.4457   -2.4998 H         1 <0>         0.0367
     17 H3         -0.6997    1.3802   -3.2813 H         1 <0>         0.0795
     18 H4          0.0024   -0.0141    0.0014 H         1 <0>         0.1070
     19 H5          1.0192    1.4667   -0.0003 H         1 <0>         0.0585
     20 H6         -1.7526    1.1750    1.2886 H         1 <0>         0.0811
     21 H7         -0.1821    1.2404    2.1580 H         1 <0>         0.1120
     22 H8         -2.5266    3.1545    0.0706 H         1 <0>         0.0807
     23 H9         -1.5101    4.6355    0.0690 H         1 <0>         0.1006
     24 H10         0.2460    3.4451   -1.2179 H         1 <0>         0.0599
     25 H11        -1.3241    3.3804   -2.0881 H         1 <0>         0.1056
     26 H12         0.0220    2.5307    3.7144 H         1 <0>         0.1902
     27 H13        -1.0312    3.4256    5.7767 H         1 <0>         0.1879
     28 H14        -3.0122    4.9114    5.5559 H         1 <0>         0.1875
     29 H15        -2.8352    4.6015    1.3542 H         1 <0>         0.4755
@<TRIPOS>BOND
     1    1    2 1
     2    1   15 1
     3    1   16 1
     4    1   17 1
     5    2    7 1
     6    2    3 1
     7    3    4 1
     8    3   18 1
     9    3   19 1
    10    4    5 1
    11    4   20 1
    12    4   21 1
    13    5    6 1
    14    5    8 1
    15    6    7 1
    16    6   22 1
    17    6   23 1
    18    7   24 1
    19    7   25 1
    20    8   13 ar
    21    8    9 ar
    22    9   10 ar
    23    9   26 1
    24   10   11 ar
    25   10   27 1
    26   11   12 ar
    27   11   28 1
    28   12   13 ar
    29   12   14 1
    30   13   29 1
@<TRIPOS>MOLECULE
ZINC27322680
   29    30     0     0     0
SMALL
USER_CHARGES
1-(6-chloro-2-pyridyl)-4-methyl-piperazine
@<TRIPOS>ATOM
      1 C1         -0.1087    1.0567   -2.4117 C.3       1 <0>        -0.0451
      2 N1         -0.7243    1.5730   -1.1819 N.4       1 <0>        -0.4050
      3 C2         -0.0127    1.0858    0.0080 C.3       1 <0>         0.0008
      4 C3         -0.7300    1.5798    1.2666 C.3       1 <0>         0.0253
      5 N2         -0.7832    3.0484    1.2523 N.pl3     1 <0>        -0.4755
      6 C4         -1.4948    3.5356    0.0624 C.3       1 <0>         0.0345
      7 C5         -0.7771    3.0416   -1.1959 C.3       1 <0>        -0.0027
      8 C6         -1.3657    3.5370    2.4159 C.ar      1 <0>         0.3109
      9 C7         -0.8368    3.1825    3.6527 C.ar      1 <0>        -0.1745
     10 C8         -1.4222    3.6805    4.8031 C.ar      1 <0>        -0.0345
     11 C9         -2.5281    4.5101    4.6783 C.ar      1 <0>        -0.1625
     12 C10        -3.0052    4.8168    3.4181 C.ar      1 <0>         0.2008
     13 N3         -2.4223    4.3313    2.3371 N.ar      1 <0>        -0.5142
     14 Cl1        -4.3879    5.8537    3.2539 Cl        1 <0>        -0.0109
     15 H1         -0.0819   -0.0424   -2.3748 H         1 <0>         0.1257
     16 H2          0.9164    1.4457   -2.4998 H         1 <0>         0.1208
     17 H3         -0.6997    1.3802   -3.2813 H         1 <0>         0.1263
     18 H4          0.0024   -0.0141    0.0014 H         1 <0>         0.1435
     19 H5          1.0192    1.4667   -0.0003 H         1 <0>         0.1388
     20 H6         -1.7526    1.1750    1.2886 H         1 <0>         0.0740
     21 H7         -0.1821    1.2404    2.1580 H         1 <0>         0.1321
     22 H8         -2.5266    3.1545    0.0706 H         1 <0>         0.0781
     23 H9         -1.5101    4.6355    0.0690 H         1 <0>         0.1338
     24 H10         0.2460    3.4451   -1.2179 H         1 <0>         0.1363
     25 H11        -1.3241    3.3804   -2.0881 H         1 <0>         0.1423
     26 H12         0.0221    2.5307    3.7140 H         1 <0>         0.1472
     27 H13        -1.0301    3.4258    5.7766 H         1 <0>         0.1562
     28 H14        -3.0109    4.9115    5.5570 H         1 <0>         0.1547
     29 H15        -1.7568    1.1962   -1.1382 H         1 <0>         0.4428
@<TRIPOS>BOND
     1    1    2 1
     2    1   15 1
     3    1   16 1
     4    1   17 1
     5    2    7 1
     6    2    3 1
     7    2   29 1
     8    3    4 1
     9    3   18 1
    10    3   19 1
    11    4    5 1
    12    4   20 1
    13    4   21 1
    14    5    6 1
    15    5    8 1
    16    6    7 1
    17    6   22 1
    18    6   23 1
    19    7   24 1
    20    7   25 1
    21    8   13 ar
    22    8    9 ar
    23    9   10 ar
    24    9   26 1
    25   10   11 ar
    26   10   27 1
    27   11   12 ar
    28   11   28 1
    29   12   13 ar
    30   12   14 1
@<TRIPOS>MOLECULE
ZINC27322680
   28    29     0     0     0
SMALL
USER_CHARGES
1-(6-chloro-2-pyridyl)-4-methyl-piperazine
@<TRIPOS>ATOM
      1 C1         -0.1087    1.0567   -2.4117 C.3       1 <0>         0.0225
      2 N1         -0.7243    1.5730   -1.1819 N.3       1 <0>        -0.5463
      3 C2         -0.0127    1.0858    0.0080 C.3       1 <0>         0.0536
      4 C3         -0.7300    1.5798    1.2666 C.3       1 <0>         0.0591
      5 N2         -0.7832    3.0484    1.2523 N.pl3     1 <0>        -0.4766
      6 C4         -1.4948    3.5356    0.0624 C.3       1 <0>         0.0664
      7 C5         -0.7771    3.0416   -1.1959 C.3       1 <0>         0.0507
      8 C6         -1.3657    3.5370    2.4159 C.ar      1 <0>         0.3336
      9 C7         -0.8368    3.1825    3.6527 C.ar      1 <0>        -0.1849
     10 C8         -1.4222    3.6805    4.8031 C.ar      1 <0>        -0.0388
     11 C9         -2.5281    4.5101    4.6783 C.ar      1 <0>        -0.1836
     12 C10        -3.0052    4.8168    3.4181 C.ar      1 <0>         0.2035
     13 N3         -2.4223    4.3313    2.3371 N.ar      1 <0>        -0.5160
     14 Cl1        -4.3879    5.8537    3.2539 Cl        1 <0>        -0.0290
     15 H1         -0.0819   -0.0424   -2.3748 H         1 <0>         0.0712
     16 H2          0.9164    1.4457   -2.4998 H         1 <0>         0.0284
     17 H3         -0.6997    1.3802   -3.2813 H         1 <0>         0.0720
     18 H4          0.0024   -0.0141    0.0014 H         1 <0>         0.0893
     19 H5          1.0192    1.4667   -0.0003 H         1 <0>         0.0474
     20 H6         -1.7526    1.1750    1.2886 H         1 <0>         0.0588
     21 H7         -0.1821    1.2404    2.1580 H         1 <0>         0.0918
     22 H8         -2.5266    3.1545    0.0706 H         1 <0>         0.0627
     23 H9         -1.5101    4.6355    0.0690 H         1 <0>         0.0930
     24 H10         0.2460    3.4451   -1.2179 H         1 <0>         0.0446
     25 H11        -1.3241    3.3804   -2.0881 H         1 <0>         0.0879
     26 H12         0.0221    2.5307    3.7140 H         1 <0>         0.1441
     27 H13        -1.0301    3.4258    5.7766 H         1 <0>         0.1486
     28 H14        -3.0109    4.9115    5.5570 H         1 <0>         0.1461
@<TRIPOS>BOND
     1    1    2 1
     2    1   15 1
     3    1   16 1
     4    1   17 1
     5    2    7 1
     6    2    3 1
     7    3    4 1
     8    3   18 1
     9    3   19 1
    10    4    5 1
    11    4   20 1
    12    4   21 1
    13    5    6 1
    14    5    8 1
    15    6    7 1
    16    6   22 1
    17    6   23 1
    18    7   24 1
    19    7   25 1
    20    8   13 ar
    21    8    9 ar
    22    9   10 ar
    23    9   26 1
    24   10   11 ar
    25   10   27 1
    26   11   12 ar
    27   11   28 1
    28   12   13 ar
    29   12   14 1
@<TRIPOS>MOLECULE
ZINC00077360
   29    30     0     0     0
SMALL
USER_CHARGES

@<TRIPOS>ATOM
      1 C1         -0.0173    1.4248    0.0099 C.3       1 <0>         0.0260
      2 O1          0.0021   -0.0041    0.0020 O.3       1 <0>        -0.3138
      3 C2         -1.2006   -0.6377    0.0101 C.ar      1 <0>         0.1564
      4 C3         -2.3754    0.1105    0.0196 C.ar      1 <0>        -0.2121
      5 C4         -3.5918   -0.5101    0.0282 C.ar      1 <0>        -0.0422
      6 C5         -3.6602   -1.9049    0.0271 C.ar      1 <0>        -0.1363
      7 C6         -2.4782   -2.6674    0.0171 C.ar      1 <0>         0.1371
      8 C7         -1.2477   -2.0189    0.0031 C.ar      1 <0>        -0.1690
      9 N1         -2.8498   -3.9933    0.0179 N.pl3     1 <0>        -0.5876
     10 H1         -2.2357   -4.7442    0.0122 H         1 <0>         0.4244
     11 C8         -4.2157   -4.0937    0.0281 C.2       1 <0>         0.0794
     12 C9         -4.7641   -2.8690    0.0340 C.2       1 <0>        -0.1982
     13 C10        -6.2360   -2.5461    0.0463 C.3       1 <0>        -0.0616
     14 C11        -6.7186   -2.3112   -1.3864 C.3       1 <0>        -0.0083
     15 N2         -8.1535   -1.9965   -1.3744 N.4       1 <0>        -0.6389
     16 H2          1.0053    1.8021    0.0021 H         1 <0>         0.1060
     17 H3         -0.5445    1.7859   -0.8732 H         1 <0>         0.0580
     18 H4         -0.5275    1.7763    0.9067 H         1 <0>         0.0588
     19 H5         -2.3239    1.1893    0.0205 H         1 <0>         0.1340
     20 H6         -4.4986    0.0763    0.0363 H         1 <0>         0.1226
     21 H7         -0.3327   -2.5925   -0.0087 H         1 <0>         0.1339
     22 H8         -4.7693   -5.0210    0.0309 H         1 <0>         0.1736
     23 H9         -6.7870   -3.3788    0.4834 H         1 <0>         0.0921
     24 H10        -6.4058   -1.6471    0.6389 H         1 <0>         0.0920
     25 H11        -6.1676   -1.4785   -1.8235 H         1 <0>         0.1334
     26 H12        -6.5488   -3.2102   -1.9790 H         1 <0>         0.1332
     27 H13        -8.6635   -2.7673   -0.9698 H         1 <0>         0.4346
     28 H14        -8.3106   -1.1643   -0.8259 H         1 <0>         0.4348
     29 H15        -8.4717   -1.8416   -2.3193 H         1 <0>         0.4378
@<TRIPOS>BOND
     1    1    2 1
     2    1   16 1
     3    1   17 1
     4    1   18 1
     5    2    3 1
     6    3    8 ar
     7    3    4 ar
     8    4    5 ar
     9    4   19 1
    10    5    6 ar
    11    5   20 1
    12    6   12 1
    13    6    7 ar
    14    7    8 ar
    15    7    9 1
    16    8   21 1
    17    9   10 1
    18    9   11 1
    19   11   12 2
    20   11   22 1
    21   12   13 1
    22   13   14 1
    23   13   23 1
    24   13   24 1
    25   14   15 1
    26   14   25 1
    27   14   26 1
    28   15   27 1
    29   15   28 1
    30   15   29 1
@<TRIPOS>MOLECULE
ZINC29224384
   40    41     0     0     0
SMALL
USER_CHARGES
(1-methyl-4-piperidyl) 4-amino-5-chloro-2-methoxy-benzoate
@<TRIPOS>ATOM
      1 C1          6.4818    0.2473    0.7714 C.3       1 <0>        -0.0458
      2 N1          5.1611    0.8859    0.6935 N.4       1 <0>        -0.4029
      3 C2          4.7720    1.1214   -0.7028 C.3       1 <0>         0.0008
      4 C3          3.4644    1.9154   -0.7424 C.3       1 <0>        -0.1457
      5 C4          2.3720    1.1270   -0.0145 C.3       1 <0>         0.0760
      6 C5          2.8229    0.8532    1.4229 C.3       1 <0>        -0.1665
      7 C6          4.1492    0.0900    1.3997 C.3       1 <0>         0.0015
      8 O1          1.1437    1.9012    0.0013 O.3       1 <0>        -0.3499
      9 C7         -0.0144    1.2114    0.0087 C.2       1 <0>         0.5226
     10 O2          0.0021   -0.0041    0.0020 O.2       1 <0>        -0.4921
     11 C8         -1.2979    1.9293    0.0187 C.ar      1 <0>        -0.2349
     12 C9         -1.3197    3.3290    0.0322 C.ar      1 <0>         0.0359
     13 C10        -2.5115    3.9948    0.0351 C.ar      1 <0>        -0.1698
     14 C11        -3.7138    3.2874    0.0374 C.ar      1 <0>         0.3228
     15 C12        -3.7081    1.8984    0.0299 C.ar      1 <0>        -0.3086
     16 C13        -2.5057    1.2133    0.0205 C.ar      1 <0>         0.2539
     17 O3         -2.4941   -0.1433    0.0136 O.3       1 <0>        -0.2817
     18 C14        -3.7617   -0.8030    0.0160 C.3       1 <0>         0.0146
     19 N2         -4.9225    3.9754    0.0469 N.pl3     1 <0>        -0.8687
     20 Cl1        -2.5309    5.7307    0.0440 Cl        1 <0>        -0.0589
     21 H1          7.2190    0.8631    0.2354 H         1 <0>         0.1258
     22 H2          6.4341   -0.7508    0.3115 H         1 <0>         0.1195
     23 H3          6.7811    0.1514    1.8255 H         1 <0>         0.1256
     24 H4          5.5624    1.6919   -1.2124 H         1 <0>         0.1408
     25 H5          4.6301    0.1565   -1.2116 H         1 <0>         0.1296
     26 H6          3.6101    2.8866   -0.2469 H         1 <0>         0.1030
     27 H7          3.1660    2.0786   -1.7885 H         1 <0>         0.1220
     28 H8          2.1428    0.1894   -0.5421 H         1 <0>         0.1035
     29 H9          2.9562    1.8075    1.9534 H         1 <0>         0.1010
     30 H10         2.0602    0.2508    1.9380 H         1 <0>         0.1184
     31 H11         4.0102   -0.8700    0.8810 H         1 <0>         0.1298
     32 H12         4.4830   -0.0956    2.4313 H         1 <0>         0.1383
     33 H13        -0.3926    3.8829    0.0353 H         1 <0>         0.1500
     34 H14        -4.6408    1.3538    0.0310 H         1 <0>         0.1468
     35 H15        -3.6082   -1.8922    0.0098 H         1 <0>         0.1095
     36 H16        -4.3304   -0.5078   -0.8781 H         1 <0>         0.0633
     37 H17        -4.3223   -0.5168    0.9182 H         1 <0>         0.0631
     38 H18        -5.8717    3.4196    0.0487 H         1 <0>         0.4315
     39 H19        -4.9292    5.0754    0.0526 H         1 <0>         0.4310
     40 H20         5.2266    1.8638    1.1928 H         1 <0>         0.4451
@<TRIPOS>BOND
     1    1    2 1
     2    1   21 1
     3    1   22 1
     4    1   23 1
     5    2    7 1
     6    2    3 1
     7    2   40 1
     8    3    4 1
     9    3   24 1
    10    3   25 1
    11    4    5 1
    12    4   26 1
    13    4   27 1
    14    5    6 1
    15    5    8 1
    16    5   28 1
    17    6    7 1
    18    6   29 1
    19    6   30 1
    20    7   31 1
    21    7   32 1
    22    8    9 1
    23    9   10 2
    24    9   11 1
    25   11   16 ar
    26   11   12 ar
    27   12   13 ar
    28   12   33 1
    29   13   14 ar
    30   13   20 1
    31   14   15 ar
    32   14   19 1
    33   15   16 ar
    34   15   34 1
    35   16   17 1
    36   17   18 1
    37   18   35 1
    38   18   36 1
    39   18   37 1
    40   19   38 1
    41   19   39 1
@<TRIPOS>MOLECULE
ZINC03790774
   45    47     0     0     0
SMALL
USER_CHARGES
4-amino-5-chloro-N-(2,3,5,6,7,8-hexahydro-1H-pyrrolizin-1-ylmethyl)-2-methoxy-benzamide
@<TRIPOS>ATOM
      1 C1         -0.0127    1.0858    0.0080 C.3       1 <0>         0.0173
      2 O1         -0.6816    1.5467    1.1837 O.3       1 <0>        -0.2765
      3 C2         -0.1497    1.1827    2.3776 C.ar      1 <0>         0.2472
      4 C3          0.9873    0.3947    2.4212 C.ar      1 <0>        -0.2970
      5 C4          1.5297    0.0289    3.6464 C.ar      1 <0>         0.3032
      6 C5          0.9268    0.4445    4.8334 C.ar      1 <0>        -0.1597
      7 C6         -0.1979    1.2181    4.8014 C.ar      1 <0>         0.0110
      8 C7         -0.7531    1.5986    3.5746 C.ar      1 <0>        -0.2366
      9 C8         -1.9656    2.4327    3.5396 C.2       1 <0>         0.5750
     10 O2         -2.4463    2.7626    2.4720 O.2       1 <0>        -0.5143
     11 N1         -2.5432    2.8308    4.6904 N.am      1 <0>        -0.7404
     12 C9         -3.7499    3.6608    4.6556 C.3       1 <0>         0.1271
     13 C10        -4.1977    3.9699    6.0855 C.3       1 <0>        -0.1179
     14 H1         -3.3781    4.4143    6.6501 H         1 <0>         0.1196
     15 C11        -4.6928    2.6823    6.7825 C.3       1 <0>        -0.1459
     16 C12        -5.8970    3.1848    7.6185 C.3       1 <0>        -0.0059
     17 C13        -5.4101    4.9148    6.0722 C.3       1 <0>         0.0291
     18 H2         -5.6765    5.2083    5.0568 H         1 <0>         0.1543
     19 C14        -5.1127    6.1368    6.9728 C.3       1 <0>        -0.1361
     20 C15        -6.5375    6.5415    7.4342 C.3       1 <0>        -0.1445
     21 C16        -7.2539    5.1834    7.5831 C.3       1 <0>        -0.0088
     22 Cl1         1.6092   -0.0246    6.3591 Cl        1 <0>        -0.0621
     23 N2          2.6757   -0.7588    3.6898 N.pl3     1 <0>        -0.8505
     24 H3          0.0021   -0.0041    0.0020 H         1 <0>         0.0607
     25 H4          1.0099    1.4631    0.0003 H         1 <0>         0.0609
     26 H5         -0.5399    1.4469   -0.8751 H         1 <0>         0.1076
     27 H6          1.4540    0.0676    1.5038 H         1 <0>         0.1459
     28 H7         -0.6598    1.5365    5.7242 H         1 <0>         0.1369
     29 H8         -2.1599    2.5677    5.5418 H         1 <0>         0.3988
     30 H9         -3.5348    4.5928    4.1327 H         1 <0>         0.0809
     31 H10        -4.5436    3.1263    4.1338 H         1 <0>         0.0750
     32 H11        -5.0149    1.9450    6.0472 H         1 <0>         0.1037
     33 H12        -3.9174    2.2709    7.4288 H         1 <0>         0.1176
     34 H13        -5.5541    3.6335    8.5508 H         1 <0>         0.1312
     35 H14        -6.5935    2.3708    7.8197 H         1 <0>         0.1402
     36 H15        -4.4929    5.8531    7.8234 H         1 <0>         0.0990
     37 H16        -4.6451    6.9384    6.4012 H         1 <0>         0.1177
     38 H17        -7.0276    7.1549    6.6781 H         1 <0>         0.1009
     39 H18        -6.5018    7.0652    8.3895 H         1 <0>         0.1122
     40 H19        -8.2853    5.2692    7.2409 H         1 <0>         0.1350
     41 H20        -7.2329    4.8659    8.6257 H         1 <0>         0.1300
     42 H21         3.0539   -1.0180    4.5445 H         1 <0>         0.4086
     43 H22         3.0964   -1.0488    2.8652 H         1 <0>         0.4090
     44 N3         -6.4973    4.2165    6.7562 N.4       1 <0>        -0.3911
     45 H23        -7.1249    3.7805    6.0704 H         1 <0>         0.4320
@<TRIPOS>BOND
     1    1    2 1
     2    1   24 1
     3    1   25 1
     4    1   26 1
     5    2    3 1
     6    3    8 ar
     7    3    4 ar
     8    4    5 ar
     9    4   27 1
    10    5    6 ar
    11    5   23 1
    12    6    7 ar
    13    6   22 1
    14    7    8 ar
    15    7   28 1
    16    8    9 1
    17    9   10 2
    18    9   11 am
    19   11   12 1
    20   11   29 1
    21   12   13 1
    22   12   30 1
    23   12   31 1
    24   13   14 1
    25   13   17 1
    26   13   15 1
    27   15   16 1
    28   15   32 1
    29   15   33 1
    30   16   34 1
    31   16   35 1
    32   16   44 1
    33   17   18 1
    34   17   19 1
    35   17   44 1
    36   19   20 1
    37   19   36 1
    38   19   37 1
    39   20   21 1
    40   20   38 1
    41   20   39 1
    42   21   40 1
    43   21   41 1
    44   21   44 1
    45   23   42 1
    46   23   43 1
    47   44   45 1
@<TRIPOS>MOLECULE
ZINC05734222
   29    30     0     0     0
SMALL
USER_CHARGES
2-(4-methoxy-1H-indol-3-yl)ethanamine
@<TRIPOS>ATOM
      1 C1         -0.0127    1.0858    0.0080 C.3       1 <0>         0.0231
      2 O1         -0.6816    1.5467    1.1837 O.3       1 <0>        -0.3249
      3 C2         -1.9747    1.1631    1.3482 C.ar      1 <0>         0.1656
      4 C3         -2.5883    0.3629    0.4036 C.ar      1 <0>        -0.2308
      5 C4         -3.9086   -0.0299    0.5696 C.ar      1 <0>        -0.0517
      6 C5         -4.6280    0.3694    1.6745 C.ar      1 <0>        -0.1608
      7 C6         -4.0317    1.1756    2.6397 C.ar      1 <0>         0.1330
      8 C7         -2.6925    1.5713    2.4789 C.ar      1 <0>        -0.1273
      9 C8         -2.3681    2.3913    3.6486 C.2       1 <0>        -0.1850
     10 C9         -3.4702    2.4375    4.4131 C.2       1 <0>         0.0740
     11 N1         -4.4777    1.7227    3.8220 N.pl3     1 <0>        -0.5870
     12 H1         -5.3695    1.6105    4.1866 H         1 <0>         0.4256
     13 C10        -1.0473    3.0563    3.9388 C.3       1 <0>        -0.0617
     14 C11        -0.9906    4.4098    3.2277 C.3       1 <0>        -0.0009
     15 H2          0.3589    5.9545    3.0517 H         1 <0>         0.4386
     16 H3          0.4451    5.1495    4.5044 H         1 <0>         0.4353
     17 H4          0.0021   -0.0041    0.0020 H         1 <0>         0.0614
     18 H5          1.0099    1.4631    0.0003 H         1 <0>         0.1012
     19 H6         -0.5399    1.4469   -0.8751 H         1 <0>         0.0597
     20 H7         -2.0376    0.0420   -0.4683 H         1 <0>         0.1328
     21 H8         -4.3776   -0.6551   -0.1757 H         1 <0>         0.1348
     22 H9         -5.6549    0.0564    1.7919 H         1 <0>         0.1279
     23 H10        -3.5530    2.9670    5.3507 H         1 <0>         0.1746
     24 H11        -0.9442    3.2059    5.0136 H         1 <0>         0.0895
     25 H12        -0.2354    2.4234    3.5806 H         1 <0>         0.0967
     26 H13        -1.0937    4.2602    2.1530 H         1 <0>         0.1318
     27 H14        -1.8025    5.0427    3.5860 H         1 <0>         0.1318
     28 N2          0.3127    5.0411    3.5002 N.4       1 <0>        -0.6469
     29 H15         1.0609    4.4458    3.1260 H         1 <0>         0.4395
@<TRIPOS>BOND
     1    1    2 1
     2    1   17 1
     3    1   18 1
     4    1   19 1
     5    2    3 1
     6    3    8 ar
     7    3    4 ar
     8    4    5 ar
     9    4   20 1
    10    5    6 ar
    11    5   21 1
    12    6    7 ar
    13    6   22 1
    14    7   11 1
    15    7    8 ar
    16    8    9 1
    17    9   10 2
    18    9   13 1
    19   10   11 1
    20   10   23 1
    21   11   12 1
    22   13   14 1
    23   13   24 1
    24   13   25 1
    25   14   26 1
    26   14   27 1
    27   14   28 1
    28   15   28 1
    29   16   28 1
    30   28   29 1
@<TRIPOS>MOLECULE
ZINC36053440
   41    44     0     0     0
SMALL
USER_CHARGES

@<TRIPOS>ATOM
      1 C1         -0.0167    1.3794    0.0096 C.ar      1 <0>        -0.0369
      2 C2          1.1778    2.0986    0.0021 C.ar      1 <0>        -0.0962
      3 C3          2.3983    1.4099   -0.0133 C.ar      1 <0>         0.1231
      4 C4          2.4075    0.0055   -0.0209 C.ar      1 <0>         0.0832
      5 C5          1.1976   -0.6923   -0.0134 C.ar      1 <0>         0.0833
      6 C6          0.0021   -0.0041    0.0020 C.ar      1 <0>        -0.0740
      7 Br1        -1.6285   -0.9617    0.0131 Br        1 <0>         0.0211
      8 N1          1.1981   -2.1725   -0.0214 N.pl3     1 <0>         0.0182
      9 O1          1.2081   -2.7826    1.0223 O.2       1 <0>        -0.1099
     10 O2          1.1886   -2.7714   -1.0716 O.3       1 <0>        -0.1087
     11 N2          3.7100   -0.3809   -0.0359 N.2       1 <0>        -0.4830
     12 C7          4.4758    0.6707   -0.0378 C.2       1 <0>         0.3126
     13 N3          3.7170    1.8007   -0.0242 N.pl3     1 <0>        -0.5769
     14 H1          4.0457    2.7133   -0.0226 H         1 <0>         0.4449
     15 C8          1.1571    3.5737    0.0097 C.2       1 <0>         0.5768
     16 O3          2.2015    4.1965    0.0031 O.2       1 <0>        -0.5193
     17 N4         -0.0194    4.2311    0.0241 N.am      1 <0>        -0.7235
     18 C9         -0.0399    5.6959    0.0317 C.3       1 <0>         0.1370
     19 H2          0.7906    6.0760   -0.5633 H         1 <0>         0.1303
     20 C10         0.0853    6.2031    1.4701 C.3       1 <0>        -0.0230
     21 N5         -1.0927    6.9977    1.8261 N.4       1 <0>        -0.3746
     22 C11        -2.3066    6.1812    1.7530 C.3       1 <0>        -0.0102
     23 C12        -2.5113    5.6732    0.3240 C.3       1 <0>        -0.1428
     24 C13        -1.3656    6.1946   -0.5583 C.3       1 <0>        -0.1100
     25 C14        -1.3735    7.7280   -0.5030 C.3       1 <0>        -0.1332
     26 C15        -1.2062    8.1701    0.9554 C.3       1 <0>        -0.0102
     27 H3         -0.9604    1.9044    0.0260 H         1 <0>         0.1605
     28 H4          5.5555    0.6502   -0.0483 H         1 <0>         0.2418
     29 H5         -0.8525    3.7343    0.0294 H         1 <0>         0.4087
     30 H6          0.1665    5.3531    2.1475 H         1 <0>         0.1337
     31 H7          0.9788    6.8210    1.5592 H         1 <0>         0.1418
     32 H8         -2.2121    5.3313    2.4289 H         1 <0>         0.1306
     33 H9         -3.1657    6.7831    2.0494 H         1 <0>         0.1361
     34 H10        -2.5077    4.5832    0.3198 H         1 <0>         0.0956
     35 H11        -3.4633    6.0388   -0.0608 H         1 <0>         0.1115
     36 H12        -1.4810    5.8386   -1.5821 H         1 <0>         0.1281
     37 H13        -0.5493    8.1193   -1.0993 H         1 <0>         0.1056
     38 H14        -2.3196    8.1027   -0.8934 H         1 <0>         0.1100
     39 H15        -2.0710    8.7616    1.2562 H         1 <0>         0.1349
     40 H16        -0.3055    8.7772    1.0469 H         1 <0>         0.1334
     41 H17        -0.9875    7.3158    2.7778 H         1 <0>         0.4301
@<TRIPOS>BOND
     1    1    6 ar
     2    1    2 ar
     3    1   27 1
     4    2    3 ar
     5    2   15 1
     6    3   13 1
     7    3    4 ar
     8    4    5 ar
     9    4   11 1
    10    5    6 ar
    11    5    8 1
    12    6    7 1
    13    8    9 2
    14    8   10 1
    15   11   12 2
    16   12   13 1
    17   12   28 1
    18   13   14 1
    19   15   16 2
    20   15   17 am
    21   17   18 1
    22   17   29 1
    23   18   19 1
    24   18   24 1
    25   18   20 1
    26   20   21 1
    27   20   30 1
    28   20   31 1
    29   21   26 1
    30   21   22 1
    31   21   41 1
    32   22   23 1
    33   22   32 1
    34   22   33 1
    35   23   24 1
    36   23   34 1
    37   23   35 1
    38   24   25 1
    39   24   36 1
    40   25   26 1
    41   25   37 1
    42   25   38 1
    43   26   39 1
    44   26   40 1
@<TRIPOS>MOLECULE
ZINC36053440
   40    43     0     0     0
SMALL
USER_CHARGES

@<TRIPOS>ATOM
      1 C1         -0.0167    1.3794    0.0096 C.ar      1 <0>        -0.0805
      2 C2          1.1778    2.0986    0.0021 C.ar      1 <0>        -0.0944
      3 C3          2.3983    1.4099   -0.0133 C.ar      1 <0>         0.0927
      4 C4          2.4075    0.0055   -0.0209 C.ar      1 <0>         0.0371
      5 C5          1.1976   -0.6923   -0.0134 C.ar      1 <0>         0.0682
      6 C6          0.0021   -0.0041    0.0020 C.ar      1 <0>        -0.1069
      7 Br1        -1.6285   -0.9617    0.0131 Br        1 <0>        -0.0391
      8 N1          1.1981   -2.1725   -0.0214 N.pl3     1 <0>         0.0344
      9 O1          1.2081   -2.7826    1.0223 O.2       1 <0>        -0.1447
     10 O2          1.1886   -2.7714   -1.0716 O.3       1 <0>        -0.1435
     11 N2          3.7100   -0.3809   -0.0359 N.2       1 <0>        -0.5676
     12 C7          4.4758    0.6707   -0.0378 C.2       1 <0>         0.2173
     13 N3          3.7170    1.8007   -0.0242 N.2       1 <0>        -0.5567
     14 C8          1.1571    3.5737    0.0097 C.2       1 <0>         0.5683
     15 O3          2.2015    4.1965    0.0031 O.2       1 <0>        -0.4910
     16 N4         -0.0194    4.2311    0.0241 N.am      1 <0>        -0.7406
     17 C9         -0.0399    5.6959    0.0317 C.3       1 <0>         0.1405
     18 H1          0.7906    6.0760   -0.5633 H         1 <0>         0.1241
     19 C10         0.0853    6.2031    1.4701 C.3       1 <0>        -0.0246
     20 N5         -1.0927    6.9977    1.8261 N.4       1 <0>        -0.3738
     21 C11        -2.3066    6.1812    1.7530 C.3       1 <0>        -0.0077
     22 C12        -2.5113    5.6732    0.3240 C.3       1 <0>        -0.1415
     23 C13        -1.3656    6.1946   -0.5583 C.3       1 <0>        -0.1095
     24 C14        -1.3735    7.7280   -0.5030 C.3       1 <0>        -0.1322
     25 C15        -1.2062    8.1701    0.9554 C.3       1 <0>        -0.0077
     26 H2         -0.9604    1.9044    0.0260 H         1 <0>         0.1322
     27 H3          5.5555    0.6502   -0.0483 H         1 <0>         0.1885
     28 H4         -0.8525    3.7343    0.0294 H         1 <0>         0.4015
     29 H5          0.1665    5.3531    2.1475 H         1 <0>         0.1353
     30 H6          0.9788    6.8210    1.5592 H         1 <0>         0.1384
     31 H7         -2.2121    5.3313    2.4289 H         1 <0>         0.1301
     32 H8         -3.1657    6.7831    2.0494 H         1 <0>         0.1305
     33 H9         -2.5077    4.5832    0.3198 H         1 <0>         0.0984
     34 H10        -3.4633    6.0388   -0.0608 H         1 <0>         0.1053
     35 H11        -1.4810    5.8386   -1.5821 H         1 <0>         0.1254
     36 H12        -0.5493    8.1193   -1.0993 H         1 <0>         0.1035
     37 H13        -2.3196    8.1027   -0.8934 H         1 <0>         0.1044
     38 H14        -2.0710    8.7616    1.2562 H         1 <0>         0.1296
     39 H15        -0.3055    8.7772    1.0469 H         1 <0>         0.1306
     40 H16        -0.9875    7.3158    2.7778 H         1 <0>         0.4255
@<TRIPOS>BOND
     1    1    6 ar
     2    1    2 ar
     3    1   26 1
     4    2    3 ar
     5    2   14 1
     6    3   13 1
     7    3    4 ar
     8    4    5 ar
     9    4   11 1
    10    5    6 ar
    11    5    8 1
    12    6    7 1
    13    8    9 2
    14    8   10 1
    15   11   12 2
    16   12   13 1
    17   12   27 1
    18   14   15 2
    19   14   16 am
    20   16   17 1
    21   16   28 1
    22   17   18 1
    23   17   23 1
    24   17   19 1
    25   19   20 1
    26   19   29 1
    27   19   30 1
    28   20   25 1
    29   20   21 1
    30   20   40 1
    31   21   22 1
    32   21   31 1
    33   21   32 1
    34   22   23 1
    35   22   33 1
    36   22   34 1
    37   23   24 1
    38   23   35 1
    39   24   25 1
    40   24   36 1
    41   24   37 1
    42   25   38 1
    43   25   39 1
@<TRIPOS>MOLECULE
ZINC36053442
   41    44     0     0     0
SMALL
USER_CHARGES

@<TRIPOS>ATOM
      1 C1         -0.0167    1.3794    0.0096 C.ar      1 <0>        -0.0370
      2 C2          1.1778    2.0986    0.0021 C.ar      1 <0>        -0.0962
      3 C3          2.3983    1.4099   -0.0133 C.ar      1 <0>         0.1231
      4 C4          2.4075    0.0055   -0.0209 C.ar      1 <0>         0.0832
      5 C5          1.1976   -0.6923   -0.0134 C.ar      1 <0>         0.0833
      6 C6          0.0021   -0.0041    0.0020 C.ar      1 <0>        -0.0740
      7 Br1        -1.6285   -0.9617    0.0131 Br        1 <0>         0.0212
      8 N1          1.1981   -2.1725   -0.0214 N.pl3     1 <0>         0.0182
      9 O1          1.2081   -2.7826    1.0223 O.2       1 <0>        -0.1086
     10 O2          1.1886   -2.7714   -1.0716 O.3       1 <0>        -0.1100
     11 N2          3.7100   -0.3809   -0.0359 N.2       1 <0>        -0.4830
     12 C7          4.4758    0.6707   -0.0378 C.2       1 <0>         0.3126
     13 N3          3.7170    1.8007   -0.0242 N.pl3     1 <0>        -0.5769
     14 H1          4.0457    2.7133   -0.0226 H         1 <0>         0.4449
     15 C8          1.1571    3.5737    0.0097 C.2       1 <0>         0.5768
     16 O3          2.2015    4.1965    0.0031 O.2       1 <0>        -0.5193
     17 N4         -0.0194    4.2311    0.0241 N.am      1 <0>        -0.7235
     18 C9         -0.0399    5.6959    0.0317 C.3       1 <0>         0.1372
     19 H2          0.8016    6.0700    0.6148 H         1 <0>         0.1302
     20 C10         0.0584    6.2176   -1.4036 C.3       1 <0>        -0.0230
     21 N5         -1.1263    7.0150   -1.7297 N.4       1 <0>        -0.3746
     22 C11        -1.2239    8.1788   -0.8456 C.3       1 <0>        -0.0104
     23 C12        -1.3647    7.7223    0.6082 C.3       1 <0>        -0.1348
     24 C13        -1.3543    6.1885    0.6514 C.3       1 <0>        -0.1103
     25 C14        -2.5169    5.6754   -0.2085 C.3       1 <0>        -0.1409
     26 C15        -2.3384    6.1972   -1.6419 C.3       1 <0>        -0.0102
     27 H3         -0.9604    1.9044    0.0260 H         1 <0>         0.1605
     28 H4          5.5555    0.6502   -0.0483 H         1 <0>         0.2418
     29 H5         -0.8525    3.7343    0.0294 H         1 <0>         0.4087
     30 H6          0.9498    6.8370   -1.5030 H         1 <0>         0.1418
     31 H7          0.1274    5.3745   -2.0910 H         1 <0>         0.1338
     32 H8         -0.3253    8.7873   -0.9482 H         1 <0>         0.1335
     33 H9         -2.0944    8.7726   -1.1242 H         1 <0>         0.1348
     34 H10        -0.5307    8.1079    1.1946 H         1 <0>         0.1054
     35 H11        -2.3042    8.0929    1.0181 H         1 <0>         0.1098
     36 H12        -1.4421    5.8371    1.6795 H         1 <0>         0.1281
     37 H13        -2.5132    4.5854   -0.2149 H         1 <0>         0.0955
     38 H14        -3.4606    6.0370    0.1998 H         1 <0>         0.1118
     39 H15        -3.2031    6.8015   -1.9164 H         1 <0>         0.1360
     40 H16        -2.2563    5.3540   -2.3276 H         1 <0>         0.1307
     41 H17        -1.0350    7.3497   -2.6772 H         1 <0>         0.4300
@<TRIPOS>BOND
     1    1    6 ar
     2    1    2 ar
     3    1   27 1
     4    2    3 ar
     5    2   15 1
     6    3   13 1
     7    3    4 ar
     8    4    5 ar
     9    4   11 1
    10    5    6 ar
    11    5    8 1
    12    6    7 1
    13    8    9 2
    14    8   10 1
    15   11   12 2
    16   12   13 1
    17   12   28 1
    18   13   14 1
    19   15   16 2
    20   15   17 am
    21   17   18 1
    22   17   29 1
    23   18   19 1
    24   18   24 1
    25   18   20 1
    26   20   21 1
    27   20   30 1
    28   20   31 1
    29   21   26 1
    30   21   22 1
    31   21   41 1
    32   22   23 1
    33   22   32 1
    34   22   33 1
    35   23   24 1
    36   23   34 1
    37   23   35 1
    38   24   25 1
    39   24   36 1
    40   25   26 1
    41   25   37 1
    42   25   38 1
    43   26   39 1
    44   26   40 1
@<TRIPOS>MOLECULE
ZINC36053442
   40    43     0     0     0
SMALL
USER_CHARGES

@<TRIPOS>ATOM
      1 C1         -0.0167    1.3794    0.0096 C.ar      1 <0>        -0.0805
      2 C2          1.1778    2.0986    0.0021 C.ar      1 <0>        -0.0944
      3 C3          2.3983    1.4099   -0.0133 C.ar      1 <0>         0.0927
      4 C4          2.4075    0.0055   -0.0209 C.ar      1 <0>         0.0371
      5 C5          1.1976   -0.6923   -0.0134 C.ar      1 <0>         0.0682
      6 C6          0.0021   -0.0041    0.0020 C.ar      1 <0>        -0.1069
      7 Br1        -1.6285   -0.9617    0.0131 Br        1 <0>        -0.0391
      8 N1          1.1981   -2.1725   -0.0214 N.pl3     1 <0>         0.0344
      9 O1          1.2081   -2.7826    1.0223 O.2       1 <0>        -0.1435
     10 O2          1.1886   -2.7714   -1.0716 O.3       1 <0>        -0.1447
     11 N2          3.7100   -0.3809   -0.0359 N.2       1 <0>        -0.5676
     12 C7          4.4758    0.6707   -0.0378 C.2       1 <0>         0.2173
     13 N3          3.7170    1.8007   -0.0242 N.2       1 <0>        -0.5567
     14 C8          1.1571    3.5737    0.0097 C.2       1 <0>         0.5683
     15 O3          2.2015    4.1965    0.0031 O.2       1 <0>        -0.4910
     16 N4         -0.0194    4.2311    0.0241 N.am      1 <0>        -0.7406
     17 C9         -0.0399    5.6959    0.0317 C.3       1 <0>         0.1408
     18 H1          0.8016    6.0700    0.6148 H         1 <0>         0.1241
     19 C10         0.0584    6.2176   -1.4036 C.3       1 <0>        -0.0246
     20 N5         -1.1263    7.0150   -1.7297 N.4       1 <0>        -0.3739
     21 C11        -1.2239    8.1788   -0.8456 C.3       1 <0>        -0.0079
     22 C12        -1.3647    7.7223    0.6082 C.3       1 <0>        -0.1337
     23 C13        -1.3543    6.1885    0.6514 C.3       1 <0>        -0.1097
     24 C14        -2.5169    5.6754   -0.2085 C.3       1 <0>        -0.1396
     25 C15        -2.3384    6.1972   -1.6419 C.3       1 <0>        -0.0077
     26 H2         -0.9604    1.9044    0.0260 H         1 <0>         0.1322
     27 H3          5.5555    0.6502   -0.0483 H         1 <0>         0.1886
     28 H4         -0.8525    3.7343    0.0294 H         1 <0>         0.4016
     29 H5          0.9498    6.8370   -1.5030 H         1 <0>         0.1383
     30 H6          0.1274    5.3745   -2.0910 H         1 <0>         0.1354
     31 H7         -0.3253    8.7873   -0.9482 H         1 <0>         0.1307
     32 H8         -2.0944    8.7726   -1.1242 H         1 <0>         0.1295
     33 H9         -0.5307    8.1079    1.1946 H         1 <0>         0.1033
     34 H10        -2.3042    8.0929    1.0181 H         1 <0>         0.1043
     35 H11        -1.4421    5.8371    1.6795 H         1 <0>         0.1253
     36 H12        -2.5132    4.5854   -0.2149 H         1 <0>         0.0983
     37 H13        -3.4606    6.0370    0.1998 H         1 <0>         0.1056
     38 H14        -3.2031    6.8015   -1.9164 H         1 <0>         0.1304
     39 H15        -2.2563    5.3540   -2.3276 H         1 <0>         0.1302
     40 H16        -1.0350    7.3497   -2.6772 H         1 <0>         0.4255
@<TRIPOS>BOND
     1    1    6 ar
     2    1    2 ar
     3    1   26 1
     4    2    3 ar
     5    2   14 1
     6    3   13 1
     7    3    4 ar
     8    4    5 ar
     9    4   11 1
    10    5    6 ar
    11    5    8 1
    12    6    7 1
    13    8    9 2
    14    8   10 1
    15   11   12 2
    16   12   13 1
    17   12   27 1
    18   14   15 2
    19   14   16 am
    20   16   17 1
    21   16   28 1
    22   17   18 1
    23   17   23 1
    24   17   19 1
    25   19   20 1
    26   19   29 1
    27   19   30 1
    28   20   25 1
    29   20   21 1
    30   20   40 1
    31   21   22 1
    32   21   31 1
    33   21   32 1
    34   22   23 1
    35   22   33 1
    36   22   34 1
    37   23   24 1
    38   23   35 1
    39   24   25 1
    40   24   36 1
    41   24   37 1
    42   25   38 1
    43   25   39 1
@<TRIPOS>MOLECULE
ZINC00033131
   38    40     0     0     0
SMALL
USER_CHARGES

@<TRIPOS>ATOM
      1 C1         -0.0178    1.4648    0.0101 C.3       1 <0>        -0.0433
      2 N1          0.0021   -0.0041    0.0020 N.4       1 <0>        -0.3983
      3 C2         -1.3736   -0.5473    0.1574 C.3       1 <0>         0.0407
      4 H1         -2.0955   -0.0286   -0.4735 H         1 <0>         0.1572
      5 C3         -1.6823   -0.3750    1.6625 C.3       1 <0>        -0.1473
      6 C4         -0.3012   -0.3601    2.3500 C.3       1 <0>        -0.1471
      7 C5          0.7165   -0.5247    1.1979 C.3       1 <0>         0.0412
      8 H2          1.6459    0.0118    1.3892 H         1 <0>         0.1611
      9 C6          0.9375   -2.0297    0.9772 C.3       1 <0>        -0.1428
     10 C7         -0.4245   -2.7273    0.9179 C.3       1 <0>         0.0750
     11 C8         -1.3075   -2.0510   -0.1543 C.3       1 <0>        -0.1654
     12 O1         -0.2397   -4.1026    0.5766 O.3       1 <0>        -0.3343
     13 C9         -1.1428   -4.9788    1.0577 C.2       1 <0>         0.5214
     14 O2         -2.0620   -4.5862    1.7479 O.2       1 <0>        -0.4861
     15 C10        -1.0153   -6.4171    0.7457 C.ar      1 <0>        -0.1112
     16 C11         0.0434   -6.8722   -0.0426 C.ar      1 <0>        -0.0501
     17 C12         0.1573   -8.2178   -0.3302 C.ar      1 <0>        -0.0383
     18 C13        -0.7758   -9.1151    0.1609 C.ar      1 <0>        -0.0590
     19 C14        -1.8282   -8.6700    0.9429 C.ar      1 <0>        -0.0354
     20 C15        -1.9496   -7.3277    1.2427 C.ar      1 <0>        -0.0397
     21 Cl1        -2.9933   -9.8028    1.5535 Cl        1 <0>        -0.0292
     22 Cl2         1.4729   -8.7857   -1.3102 Cl        1 <0>        -0.0339
     23 H3          1.0047    1.8421    0.0024 H         1 <0>         0.1240
     24 H4         -0.5450    1.8259   -0.8730 H         1 <0>         0.1237
     25 H5         -0.5280    1.8163    0.9069 H         1 <0>         0.1220
     26 H6         -2.2034    0.5662    1.8375 H         1 <0>         0.1042
     27 H7         -2.2779   -1.2126    2.0258 H         1 <0>         0.1161
     28 H8         -0.1432    0.5886    2.8631 H         1 <0>         0.1047
     29 H9         -0.2177   -1.1902    3.0515 H         1 <0>         0.1134
     30 H10         1.4693   -2.1869    0.0388 H         1 <0>         0.1040
     31 H11         1.5211   -2.4379    1.8024 H         1 <0>         0.1234
     32 H12        -0.9099   -2.6582    1.8914 H         1 <0>         0.1096
     33 H13        -2.3108   -2.4756   -0.1193 H         1 <0>         0.1187
     34 H14        -0.8806   -2.1999   -1.1461 H         1 <0>         0.1029
     35 H15         0.7714   -6.1732   -0.4269 H         1 <0>         0.1551
     36 H16        -0.6826  -10.1666   -0.0671 H         1 <0>         0.1578
     37 H17        -2.7682   -6.9823    1.8567 H         1 <0>         0.1579
     38 H18         0.4289   -0.3487   -0.8448 H         1 <0>         0.4272
@<TRIPOS>BOND
     1    1    2 1
     2    1   23 1
     3    1   24 1
     4    1   25 1
     5    2    7 1
     6    2    3 1
     7    2   38 1
     8    3    4 1
     9    3   11 1
    10    3    5 1
    11    5    6 1
    12    5   26 1
    13    5   27 1
    14    6    7 1
    15    6   28 1
    16    6   29 1
    17    7    8 1
    18    7    9 1
    19    9   10 1
    20    9   30 1
    21    9   31 1
    22   10   11 1
    23   10   12 1
    24   10   32 1
    25   11   33 1
    26   11   34 1
    27   12   13 1
    28   13   14 2
    29   13   15 1
    30   15   20 ar
    31   15   16 ar
    32   16   17 ar
    33   16   35 1
    34   17   18 ar
    35   17   22 1
    36   18   19 ar
    37   18   36 1
    38   19   20 ar
    39   19   21 1
    40   20   37 1
@<TRIPOS>MOLECULE
ZINC00004346
   31    33     0     0     0
SMALL
USER_CHARGES
2-[(5-methyl-1H-imidazol-4-yl)methyl]-4-phenyl-thiazole
@<TRIPOS>ATOM
      1 C1          1.4701    4.4168    0.0113 C.3       1 <0>        -0.0729
      2 C2          0.6233    3.1702    0.0123 C.2       1 <0>         0.0242
      3 C3         -0.7221    3.1137    0.0244 C.2       1 <0>        -0.0526
      4 N1         -1.0832    1.8219    0.0165 N.pl3     1 <0>        -0.5182
      5 C4         -0.0126    1.0758    0.0080 C.2       1 <0>         0.1741
      6 N2          1.0740    1.8777    0.0019 N.2       1 <0>        -0.4934
      7 H1         -2.0243    1.4839    0.0170 H         1 <0>         0.4270
      8 C5         -1.6580    4.2947    0.0380 C.3       1 <0>         0.0478
      9 C6         -1.9830    4.6945   -1.3782 C.2       1 <0>         0.0963
     10 N3         -2.9609    4.2775   -2.1450 N.2       1 <0>        -0.5013
     11 C7         -3.1122    4.7303   -3.3797 C.2       1 <0>         0.0997
     12 C8         -2.2117    5.6540   -3.8381 C.2       1 <0>        -0.2074
     13 S1         -1.1611    5.8292   -2.4034 S.3       1 <0>         0.0710
     14 C9         -4.2221    4.2516   -4.2396 C.ar      1 <0>        -0.0263
     15 C10        -4.3663    4.7453   -5.5349 C.ar      1 <0>        -0.1047
     16 C11        -5.3980    4.2928   -6.3322 C.ar      1 <0>        -0.1195
     17 C12        -6.2941    3.3589   -5.8442 C.ar      1 <0>        -0.1129
     18 C13        -6.1589    2.8693   -4.5575 C.ar      1 <0>        -0.1228
     19 C14        -5.1279    3.3108   -3.7532 C.ar      1 <0>        -0.0873
     20 H2          1.6650    4.7229   -1.0165 H         1 <0>         0.0716
     21 H3          0.9426    5.2147    0.5341 H         1 <0>         0.0693
     22 H4          2.4150    4.2146    0.5157 H         1 <0>         0.0752
     23 H5          0.0021   -0.0041    0.0061 H         1 <0>         0.2094
     24 H6         -2.5765    4.0245    0.5591 H         1 <0>         0.1067
     25 H7         -1.1815    5.1301    0.5510 H         1 <0>         0.1170
     26 H8         -2.1550    6.1445   -4.7987 H         1 <0>         0.1990
     27 H9         -3.6698    5.4778   -5.9154 H         1 <0>         0.1242
     28 H10        -5.5081    4.6713   -7.3376 H         1 <0>         0.1269
     29 H11        -7.1022    3.0103   -6.4702 H         1 <0>         0.1244
     30 H12        -6.8617    2.1405   -4.1815 H         1 <0>         0.1251
     31 H13        -5.0231    2.9276   -2.7489 H         1 <0>         0.1298
@<TRIPOS>BOND
     1    1    2 1
     2    1   20 1
     3    1   21 1
     4    1   22 1
     5    2    6 1
     6    2    3 2
     7    3    4 1
     8    3    8 1
     9    4    5 1
    10    4    7 1
    11    5   23 1
    12    5    6 2
    13    8    9 1
    14    8   24 1
    15    8   25 1
    16    9   13 1
    17    9   10 2
    18   10   11 1
    19   11   12 2
    20   11   14 1
    21   12   13 1
    22   12   26 1
    23   14   19 ar
    24   14   15 ar
    25   15   16 ar
    26   15   27 1
    27   16   17 ar
    28   16   28 1
    29   17   18 ar
    30   17   29 1
    31   18   19 ar
    32   18   30 1
    33   19   31 1
@<TRIPOS>MOLECULE
ZINC00004346
   32    34     0     0     0
SMALL
USER_CHARGES
2-[(5-methyl-1H-imidazol-4-yl)methyl]-4-phenyl-thiazole
@<TRIPOS>ATOM
      1 C1          1.4701    4.4168    0.0113 C.3       1 <0>        -0.1079
      2 C2          0.6233    3.1702    0.0123 C.2       1 <0>         0.0778
      3 C3         -0.7221    3.1137    0.0244 C.2       1 <0>         0.0237
      4 C4         -0.0126    1.0758    0.0080 C.cat     1 <0>         0.3095
      5 N1          1.0740    1.8777    0.0019 N.pl3     1 <0>        -0.5162
      6 H1          2.0294    1.5824   -0.0083 H         1 <0>         0.4741
      7 C5         -1.6580    4.2947    0.0380 C.3       1 <0>         0.0401
      8 C6         -1.9830    4.6945   -1.3782 C.2       1 <0>         0.0484
      9 N2         -2.9609    4.2775   -2.1450 N.2       1 <0>        -0.4840
     10 C7         -3.1122    4.7303   -3.3797 C.2       1 <0>         0.1017
     11 C8         -2.2117    5.6540   -3.8381 C.2       1 <0>        -0.1836
     12 S1         -1.1611    5.8292   -2.4034 S.3       1 <0>         0.0865
     13 C9         -4.2221    4.2516   -4.2396 C.ar      1 <0>        -0.0387
     14 C10        -4.3663    4.7453   -5.5349 C.ar      1 <0>        -0.1017
     15 C11        -5.3980    4.2928   -6.3322 C.ar      1 <0>        -0.1163
     16 C12        -6.2941    3.3589   -5.8442 C.ar      1 <0>        -0.1046
     17 C13        -6.1589    2.8693   -4.5575 C.ar      1 <0>        -0.1220
     18 C14        -5.1279    3.3108   -3.7532 C.ar      1 <0>        -0.0871
     19 H2          1.6650    4.7229   -1.0165 H         1 <0>         0.1053
     20 H3          0.9426    5.2147    0.5341 H         1 <0>         0.1081
     21 H4          2.4150    4.2146    0.5157 H         1 <0>         0.0983
     22 H5          0.0021   -0.0041    0.0020 H         1 <0>         0.2668
     23 H6         -2.5765    4.0245    0.5591 H         1 <0>         0.1298
     24 H7         -1.1815    5.1301    0.5510 H         1 <0>         0.1367
     25 H8         -2.1550    6.1445   -4.7987 H         1 <0>         0.2059
     26 H9         -3.6698    5.4778   -5.9154 H         1 <0>         0.1251
     27 H10        -5.5081    4.6713   -7.3376 H         1 <0>         0.1308
     28 H11        -7.1022    3.0103   -6.4702 H         1 <0>         0.1285
     29 H12        -6.8617    2.1405   -4.1815 H         1 <0>         0.1277
     30 H13        -5.0231    2.9276   -2.7489 H         1 <0>         0.1279
     31 N3         -1.0819    1.8224    0.0165 N.pl3     1 <0>        -0.4731
     32 H14        -2.0483    1.4753    0.0171 H         1 <0>         0.4827
@<TRIPOS>BOND
     1    1    2 1
     2    1   19 1
     3    1   20 1
     4    1   21 1
     5    2    5 1
     6    2    3 2
     7    3    7 1
     8    3   31 1
     9    4    5 1
    10    4   22 1
    11    4   31 2
    12    5    6 1
    13    7    8 1
    14    7   23 1
    15    7   24 1
    16    8   12 1
    17    8    9 2
    18    9   10 1
    19   10   11 2
    20   10   13 1
    21   11   12 1
    22   11   25 1
    23   13   18 ar
    24   13   14 ar
    25   14   15 ar
    26   14   26 1
    27   15   16 ar
    28   15   27 1
    29   16   17 ar
    30   16   28 1
    31   17   18 ar
    32   17   29 1
    33   18   30 1
    34   31   32 1
@<TRIPOS>MOLECULE
ZINC00057058
   26    27     0     0     0
SMALL
USER_CHARGES

@<TRIPOS>ATOM
      1 C1         -0.0168    1.3880    0.0097 C.ar      1 <0>        -0.1182
      2 C2          1.1587    2.1055    0.0023 C.ar      1 <0>        -0.1024
      3 C3          2.3795    1.4398   -0.0129 C.ar      1 <0>         0.0862
      4 C4          2.4019    0.0334   -0.0206 C.ar      1 <0>        -0.0842
      5 C5          1.2039   -0.6838   -0.0130 C.ar      1 <0>        -0.1143
      6 C6          0.0021   -0.0041    0.0020 C.ar      1 <0>         0.0953
      7 O1         -1.1679   -0.6972    0.0094 O.3       1 <0>        -0.4959
      8 C7          3.8159   -0.3493   -0.0361 C.2       1 <0>        -0.2101
      9 C8          4.5307    0.7870   -0.0369 C.2       1 <0>         0.0918
     10 N1          3.6908    1.8667   -0.0231 N.pl3     1 <0>        -0.5866
     11 H1          3.9751    2.7941   -0.0208 H         1 <0>         0.4248
     12 C9          4.3642   -1.7530   -0.0489 C.3       1 <0>        -0.0616
     13 C10         4.4190   -2.2661   -1.4892 C.3       1 <0>        -0.0080
     14 N2          4.9535   -3.6343   -1.5017 N.4       1 <0>        -0.6389
     15 H2         -0.9621    1.9101    0.0260 H         1 <0>         0.1389
     16 H3          1.1325    3.1852    0.0080 H         1 <0>         0.1315
     17 H4          1.2172   -1.7637   -0.0192 H         1 <0>         0.1256
     18 H5         -1.5147   -0.8930   -0.8718 H         1 <0>         0.3922
     19 H6          5.6093    0.8408   -0.0472 H         1 <0>         0.1750
     20 H7          5.3681   -1.7548    0.3759 H         1 <0>         0.0927
     21 H8          3.7180   -2.4009    0.5433 H         1 <0>         0.0925
     22 H9          3.4152   -2.2643   -1.9140 H         1 <0>         0.1329
     23 H10         5.0652   -1.6182   -2.0814 H         1 <0>         0.1331
     24 H11         5.8827   -3.6360   -1.1085 H         1 <0>         0.4347
     25 H12         4.3553   -4.2341   -0.9535 H         1 <0>         0.4353
     26 H13         4.9896   -3.9727   -2.4515 H         1 <0>         0.4379
@<TRIPOS>BOND
     1    1    6 ar
     2    1    2 ar
     3    1   15 1
     4    2    3 ar
     5    2   16 1
     6    3   10 1
     7    3    4 ar
     8    4    5 ar
     9    4    8 1
    10    5    6 ar
    11    5   17 1
    12    6    7 1
    13    7   18 1
    14    8    9 2
    15    8   12 1
    16    9   10 1
    17    9   19 1
    18   10   11 1
    19   12   13 1
    20   12   20 1
    21   12   21 1
    22   13   14 1
    23   13   22 1
    24   13   23 1
    25   14   24 1
    26   14   25 1
    27   14   26 1
@<TRIPOS>MOLECULE
ZINC25758156
   34    36     0     0     0
SMALL
USER_CHARGES

@<TRIPOS>ATOM
      1 C1         -0.0041    1.3855    0.2400 C.ar      1 <0>         0.0104
      2 C2          1.1865    2.0477    0.2293 C.ar      1 <0>        -0.2200
      3 C3          2.3749    1.3443   -0.0134 C.ar      1 <0>         0.4407
      4 N1          2.3741    0.0457   -0.2345 N.ar      1 <0>        -0.5404
      5 C4          1.2359   -0.6572   -0.2362 C.ar      1 <0>         0.2126
      6 C5          0.0021   -0.0042    0.0030 C.ar      1 <0>        -0.1515
      7 C6         -1.1881   -0.7478   -0.0007 C.ar      1 <0>         0.0070
      8 C7         -1.1437   -2.0890   -0.2338 C.ar      1 <0>        -0.0560
      9 C8          0.0686   -2.7335   -0.4689 C.ar      1 <0>        -0.0418
     10 C9          1.2415   -2.0425   -0.4733 C.ar      1 <0>        -0.1002
     11 N2         -2.3999   -2.8720   -0.2369 N.pl3     1 <0>         0.0289
     12 O1         -3.4564   -2.3206   -0.0333 O.2       1 <0>        -0.1539
     13 O2         -2.3694   -4.0629   -0.4429 O.3       1 <0>        -0.1447
     14 N3          3.5793    2.0319   -0.0212 N.pl3     1 <0>        -0.6213
     15 C10         4.8616    1.3112   -0.0435 C.3       1 <0>         0.0981
     16 C11         5.7250    1.8909   -1.1687 C.3       1 <0>        -0.0224
     17 N4          5.8491    3.3431   -0.9906 N.4       1 <0>        -0.5054
     18 C12         4.5333    3.9788   -1.1348 C.3       1 <0>        -0.0218
     19 C13         3.6107    3.5026   -0.0136 C.3       1 <0>         0.0957
     20 H1         -0.9285    1.9109    0.4296 H         1 <0>         0.1577
     21 H2          1.2149    3.1126    0.4071 H         1 <0>         0.1465
     22 H3         -2.1341   -0.2593    0.1807 H         1 <0>         0.1645
     23 H4          0.0781   -3.7979   -0.6512 H         1 <0>         0.1627
     24 H5          2.1730   -2.5570   -0.6576 H         1 <0>         0.1579
     25 H6          5.3705    1.4394    0.9119 H         1 <0>         0.0929
     26 H7          4.6831    0.2517   -0.2274 H         1 <0>         0.1411
     27 H8          6.7148    1.4352   -1.1389 H         1 <0>         0.1474
     28 H9          5.2572    1.6813   -2.1306 H         1 <0>         0.1352
     29 H10         6.2163    3.5378   -0.0712 H         1 <0>         0.4295
     30 H11         4.6449    5.0617   -1.0800 H         1 <0>         0.1495
     31 H12         4.1015    3.7061   -2.0978 H         1 <0>         0.1356
     32 H13         2.6057    3.8913   -0.1778 H         1 <0>         0.1304
     33 H14         3.9912    3.8559    0.9448 H         1 <0>         0.0992
     34 H15         6.4784    3.7136   -1.6869 H         1 <0>         0.4358
@<TRIPOS>BOND
     1    1    6 ar
     2    1    2 ar
     3    1   20 1
     4    2    3 ar
     5    2   21 1
     6    3    4 ar
     7    3   14 1
     8    4    5 ar
     9    5   10 ar
    10    5    6 ar
    11    6    7 ar
    12    7    8 ar
    13    7   22 1
    14    8    9 ar
    15    8   11 1
    16    9   10 ar
    17    9   23 1
    18   10   24 1
    19   11   12 2
    20   11   13 1
    21   14   19 1
    22   14   15 1
    23   15   16 1
    24   15   25 1
    25   15   26 1
    26   16   17 1
    27   16   27 1
    28   16   28 1
    29   17   18 1
    30   17   29 1
    31   17   34 1
    32   18   19 1
    33   18   30 1
    34   18   31 1
    35   19   32 1
    36   19   33 1
@<TRIPOS>MOLECULE
ZINC05681447
   36    38     0     0     0
SMALL
USER_CHARGES
N-quinuclidin-3-ylbenzamide
@<TRIPOS>ATOM
      1 C1          1.1547    3.1668    0.0081 C.ar      1 <0>        -0.0814
      2 C2          1.1717    1.7833    0.0004 C.ar      1 <0>        -0.1228
      3 C3         -0.0126    1.0758    0.0080 C.ar      1 <0>        -0.0542
      4 C4         -1.2298    1.7588    0.0174 C.ar      1 <0>        -0.1519
      5 C5         -1.2399    3.1544    0.0314 C.ar      1 <0>        -0.0872
      6 C6         -0.0484    3.8499    0.0233 C.ar      1 <0>        -0.1257
      7 C7         -2.5029    1.0070    0.0193 C.2       1 <0>         0.5680
      8 O1         -2.4910   -0.2084    0.0126 O.2       1 <0>        -0.5206
      9 N1         -3.6766    1.6695    0.0285 N.am      1 <0>        -0.7318
     10 C8         -4.9381    0.9246    0.0304 C.3       1 <0>         0.1390
     11 H1         -4.8291    0.0201   -0.5680 H         1 <0>         0.1267
     12 C9         -5.3093    0.5475    1.4675 C.3       1 <0>        -0.0171
     13 C10        -6.5418    2.6138    1.7500 C.3       1 <0>        -0.0022
     14 C11        -6.2050    3.0499    0.3213 C.3       1 <0>        -0.1393
     15 C12        -6.0529    1.8003   -0.5553 C.3       1 <0>        -0.1101
     16 C13        -7.3675    1.0110   -0.5142 C.3       1 <0>        -0.1335
     17 C14        -7.6717    0.6319    0.9379 C.3       1 <0>        -0.0035
     18 H2          2.0847    3.7159    0.0025 H         1 <0>         0.1341
     19 H3          2.1143    1.2561   -0.0118 H         1 <0>         0.1365
     20 H4          0.0021   -0.0041    0.0020 H         1 <0>         0.1384
     21 H5         -2.1783    3.6888    0.0432 H         1 <0>         0.1209
     22 H6         -0.0548    4.9298    0.0292 H         1 <0>         0.1334
     23 H7         -3.6861    2.6394    0.0338 H         1 <0>         0.4056
     24 H8         -5.3761   -0.5371    1.5531 H         1 <0>         0.1383
     25 H9         -4.5455    0.9201    2.1500 H         1 <0>         0.1314
     26 H10        -7.5056    3.0321    2.0402 H         1 <0>         0.1320
     27 H11        -5.7697    2.9716    2.4311 H         1 <0>         0.1276
     28 H12        -5.2709    3.6116    0.3216 H         1 <0>         0.0953
     29 H13        -7.0071    3.6753   -0.0704 H         1 <0>         0.1089
     30 H14        -5.8129    2.0756   -1.5822 H         1 <0>         0.1246
     31 H15        -7.2695    0.1067   -1.1148 H         1 <0>         0.1051
     32 H16        -8.1759    1.6271   -0.9078 H         1 <0>         0.1079
     33 H17        -7.7221   -0.4532    1.0276 H         1 <0>         0.1310
     34 H18        -8.6263    1.0662    1.2352 H         1 <0>         0.1313
     35 N2         -6.6131    1.1397    1.8365 N.4       1 <0>        -0.3899
     36 H19        -6.8390    0.8729    2.8019 H         1 <0>         0.4353
@<TRIPOS>BOND
     1    1    6 ar
     2    1    2 ar
     3    1   18 1
     4    2    3 ar
     5    2   19 1
     6    3    4 ar
     7    3   20 1
     8    4    5 ar
     9    4    7 1
    10    5    6 ar
    11    5   21 1
    12    6   22 1
    13    7    8 2
    14    7    9 am
    15    9   10 1
    16    9   23 1
    17   10   11 1
    18   10   15 1
    19   10   12 1
    20   12   24 1
    21   12   25 1
    22   12   35 1
    23   13   14 1
    24   13   26 1
    25   13   27 1
    26   13   35 1
    27   14   15 1
    28   14   28 1
    29   14   29 1
    30   15   16 1
    31   15   30 1
    32   16   17 1
    33   16   31 1
    34   16   32 1
    35   17   33 1
    36   17   34 1
    37   17   35 1
    38   35   36 1
@<TRIPOS>MOLECULE
ZINC25973757
   42    45     0     0     0
SMALL
USER_CHARGES
8-chloro-6-(4-methylpiperazin-1-yl)-11H-benzo[b][1,4]benzodiazepine
@<TRIPOS>ATOM
      1 C1          6.5878    0.4674    4.5541 C.3       1 <0>         0.0223
      2 N1          6.1616    0.4699    3.1483 N.3       1 <0>        -0.5420
      3 C2          6.2433   -0.8784    2.5710 C.3       1 <0>         0.0390
      4 C3          5.9670   -0.8034    1.0656 C.3       1 <0>         0.1259
      5 N2          4.6834   -0.1155    0.8598 N.pl3     1 <0>        -0.5969
      6 C4          4.4774    1.1843    1.5166 C.3       1 <0>         0.1100
      7 C5          4.8100    1.0283    3.0090 C.3       1 <0>         0.0399
      8 C6          3.7032   -0.6707    0.0689 C.2       1 <0>         0.5010
      9 N3          3.9085   -1.8657   -0.3582 N.2       1 <0>        -0.5939
     10 C7          3.1080   -2.6172   -1.1642 C.ar      1 <0>         0.1412
     11 C8          3.6965   -3.4323   -2.1349 C.ar      1 <0>        -0.1095
     12 C9          2.9147   -4.2737   -2.9019 C.ar      1 <0>        -0.1115
     13 C10         1.5457   -4.3145   -2.7164 C.ar      1 <0>        -0.1272
     14 C11         0.9480   -3.4977   -1.7714 C.ar      1 <0>        -0.1174
     15 C12         1.7184   -2.6384   -1.0063 C.ar      1 <0>         0.1136
     16 N4          1.0898   -1.7894   -0.0817 N.pl3     1 <0>        -0.7377
     17 C13         1.2416   -0.4086   -0.2311 C.ar      1 <0>         0.2275
     18 C14         2.5216    0.1598   -0.2065 C.ar      1 <0>        -0.1331
     19 C15         2.6667    1.5311   -0.4222 C.ar      1 <0>        -0.0635
     20 C16         1.5511    2.3191   -0.6297 C.ar      1 <0>        -0.0594
     21 C17         0.2870    1.7548   -0.6305 C.ar      1 <0>        -0.0684
     22 C18         0.1315    0.3938   -0.4377 C.ar      1 <0>        -0.1334
     23 Cl1         1.7354    4.0254   -0.8908 Cl        1 <0>        -0.0598
     24 H1          7.6008    0.0452    4.6294 H         1 <0>         0.0718
     25 H2          5.8911   -0.1430    5.1474 H         1 <0>         0.0256
     26 H3          6.5907    1.4982    4.9382 H         1 <0>         0.0716
     27 H4          7.2495   -1.2894    2.7403 H         1 <0>         0.0881
     28 H5          5.4963   -1.5283    3.0502 H         1 <0>         0.0376
     29 H6          6.7756   -0.2445    0.5718 H         1 <0>         0.0716
     30 H7          5.9181   -1.8209    0.6506 H         1 <0>         0.1067
     31 H8          5.1384    1.9351    1.0591 H         1 <0>         0.0799
     32 H9          3.4294    1.4951    1.3940 H         1 <0>         0.0966
     33 H10         4.0829    0.3503    3.4798 H         1 <0>         0.0384
     34 H11         4.7668    2.0112    3.5010 H         1 <0>         0.0898
     35 H12         4.7655   -3.4039   -2.2859 H         1 <0>         0.1263
     36 H13         3.3750   -4.9021   -3.6500 H         1 <0>         0.1252
     37 H14         0.9411   -4.9844   -3.3097 H         1 <0>         0.1239
     38 H15        -0.1224   -3.5307   -1.6310 H         1 <0>         0.1222
     39 H16         0.4931   -2.2150    0.7386 H         1 <0>         0.4307
     40 H17         3.6508    1.9761   -0.4265 H         1 <0>         0.1440
     41 H18        -0.5806    2.3787   -0.7866 H         1 <0>         0.1418
     42 H19        -0.8561   -0.0433   -0.4479 H         1 <0>         0.1415
@<TRIPOS>BOND
     1    1    2 1
     2    1   24 1
     3    1   25 1
     4    1   26 1
     5    2    7 1
     6    2    3 1
     7    3    4 1
     8    3   27 1
     9    3   28 1
    10    4    5 1
    11    4   29 1
    12    4   30 1
    13    5    6 1
    14    5    8 1
    15    6    7 1
    16    6   31 1
    17    6   32 1
    18    7   33 1
    19    7   34 1
    20    8   18 1
    21    8    9 2
    22    9   10 1
    23   10   15 ar
    24   10   11 ar
    25   11   12 ar
    26   11   35 1
    27   12   13 ar
    28   12   36 1
    29   13   14 ar
    30   13   37 1
    31   14   15 ar
    32   14   38 1
    33   15   16 1
    34   16   17 1
    35   16   39 1
    36   17   22 ar
    37   17   18 ar
    38   18   19 ar
    39   19   20 ar
    40   19   40 1
    41   20   21 ar
    42   20   23 1
    43   21   22 ar
    44   21   41 1
    45   22   42 1
@<TRIPOS>MOLECULE
ZINC19338859
   45    48     0     0     0
SMALL
USER_CHARGES
2-(4-methylpiperazin-1-yl)-4-phenyl-quinoline
@<TRIPOS>ATOM
      1 C1          0.0268   11.2828    1.1185 C.3       1 <0>        -0.0450
      2 N1          0.1369    9.8180    1.1100 N.4       1 <0>        -0.4046
      3 C2         -0.5954    9.2414   -0.0262 C.3       1 <0>        -0.0035
      4 C3         -0.5229    7.7143    0.0456 C.3       1 <0>         0.0372
      5 N2          0.8846    7.2920    0.0302 N.pl3     1 <0>        -0.4781
      6 C4          1.6169    7.8686    1.1664 C.3       1 <0>         0.0262
      7 C5          1.5444    9.3957    1.0946 C.3       1 <0>         0.0012
      8 C6          0.9885    5.9085    0.0222 C.ar      1 <0>         0.3329
      9 C7          2.2611    5.3278    0.0072 C.ar      1 <0>        -0.1783
     10 C8          2.3808    3.9469   -0.0005 C.ar      1 <0>         0.0542
     11 C9          1.1441    3.1647    0.0077 C.ar      1 <0>        -0.1035
     12 C10         1.1637    1.7656    0.0004 C.ar      1 <0>        -0.0909
     13 C11        -0.0126    1.0758    0.0080 C.ar      1 <0>        -0.1128
     14 C12        -1.2323    1.7473    0.0174 C.ar      1 <0>        -0.0861
     15 C13        -1.2853    3.1079    0.0306 C.ar      1 <0>        -0.1026
     16 C14        -0.0931    3.8520    0.0227 C.ar      1 <0>         0.1543
     17 N3         -0.1134    5.1895    0.0293 N.ar      1 <0>        -0.5159
     18 C15         3.7080    3.2890   -0.0158 C.ar      1 <0>        -0.0710
     19 C16         4.0016    2.2833    0.9047 C.ar      1 <0>        -0.0983
     20 C17         5.2373    1.6696    0.8811 C.ar      1 <0>        -0.1166
     21 C18         6.1885    2.0590   -0.0449 C.ar      1 <0>        -0.1018
     22 C19         5.9053    3.0603   -0.9566 C.ar      1 <0>        -0.1167
     23 C20         4.6709    3.6768   -0.9472 C.ar      1 <0>        -0.0950
     24 H1         -1.0348   11.5706    1.1300 H         1 <0>         0.1257
     25 H2          0.5079   11.6919    0.2179 H         1 <0>         0.1204
     26 H3          0.5248   11.6827    2.0141 H         1 <0>         0.1252
     27 H4         -1.6469    9.5618    0.0147 H         1 <0>         0.1410
     28 H5         -0.1431    9.5871   -0.9674 H         1 <0>         0.1355
     29 H6         -1.0005    7.3678    0.9739 H         1 <0>         0.0774
     30 H7         -1.0461    7.2813   -0.8197 H         1 <0>         0.1332
     31 H8          1.1645    7.5229    2.1076 H         1 <0>         0.0734
     32 H9          2.6684    7.5482    1.1256 H         1 <0>         0.1311
     33 H10         2.0213    9.7431    0.1662 H         1 <0>         0.1383
     34 H11         2.0669    9.8296    1.9599 H         1 <0>         0.1425
     35 H12         3.1435    5.9506    0.0021 H         1 <0>         0.1423
     36 H13         2.1045    1.2354   -0.0107 H         1 <0>         0.1358
     37 H14         0.0021   -0.0041    0.0020 H         1 <0>         0.1343
     38 H15        -2.1512    1.1798    0.0187 H         1 <0>         0.1359
     39 H16        -2.2397    3.6133    0.0417 H         1 <0>         0.1368
     40 H17         3.2616    1.9821    1.6314 H         1 <0>         0.1267
     41 H18         5.4641    0.8873    1.5903 H         1 <0>         0.1311
     42 H19         7.1559    1.5791   -0.0564 H         1 <0>         0.1297
     43 H20         6.6518    3.3597   -1.6773 H         1 <0>         0.1305
     44 H21         4.4508    4.4579   -1.6599 H         1 <0>         0.1256
     45 H22        -0.3210    9.4405    2.0362 H         1 <0>         0.4424
@<TRIPOS>BOND
     1    1    2 1
     2    1   24 1
     3    1   25 1
     4    1   26 1
     5    2    7 1
     6    2    3 1
     7    2   45 1
     8    3    4 1
     9    3   27 1
    10    3   28 1
    11    4    5 1
    12    4   29 1
    13    4   30 1
    14    5    6 1
    15    5    8 1
    16    6    7 1
    17    6   31 1
    18    6   32 1
    19    7   33 1
    20    7   34 1
    21    8   17 ar
    22    8    9 ar
    23    9   10 ar
    24    9   35 1
    25   10   11 ar
    26   10   18 1
    27   11   16 ar
    28   11   12 ar
    29   12   13 ar
    30   12   36 1
    31   13   14 ar
    32   13   37 1
    33   14   15 ar
    34   14   38 1
    35   15   16 ar
    36   15   39 1
    37   16   17 ar
    38   18   23 ar
    39   18   19 ar
    40   19   20 ar
    41   19   40 1
    42   20   21 ar
    43   20   41 1
    44   21   22 ar
    45   21   42 1
    46   22   23 ar
    47   22   43 1
    48   23   44 1
@<TRIPOS>MOLECULE
ZINC19338859
   45    48     0     0     0
SMALL
USER_CHARGES
2-(4-methylpiperazin-1-yl)-4-phenyl-quinoline
@<TRIPOS>ATOM
      1 C1          0.0268   11.2828    1.1185 C.3       1 <0>         0.0194
      2 N1          0.1369    9.8180    1.1100 N.3       1 <0>        -0.5462
      3 C2         -0.5954    9.2414   -0.0262 C.3       1 <0>         0.0539
      4 C3         -0.5229    7.7143    0.0456 C.3       1 <0>         0.0153
      5 N2          0.8846    7.2920    0.0302 N.pl3     1 <0>        -0.4728
      6 C4          1.6169    7.8686    1.1664 C.3       1 <0>         0.0541
      7 C5          1.5444    9.3957    1.0946 C.3       1 <0>         0.0460
      8 C6          0.9885    5.9085    0.0222 C.ar      1 <0>         0.4376
      9 C7          2.2611    5.3278    0.0072 C.ar      1 <0>        -0.1901
     10 C8          2.3808    3.9469   -0.0005 C.ar      1 <0>         0.1474
     11 C9          1.1441    3.1647    0.0077 C.ar      1 <0>        -0.0969
     12 C10         1.1637    1.7656    0.0004 C.ar      1 <0>        -0.0599
     13 C11        -0.0126    1.0758    0.0080 C.ar      1 <0>        -0.1054
     14 C12        -1.2323    1.7473    0.0174 C.ar      1 <0>        -0.0384
     15 C13        -1.2853    3.1079    0.0306 C.ar      1 <0>        -0.1424
     16 C14        -0.0931    3.8520    0.0227 C.ar      1 <0>         0.1514
     17 N3         -0.1134    5.1895    0.0293 N.ar      1 <0>        -0.5310
     18 C15         3.7080    3.2890   -0.0158 C.ar      1 <0>        -0.1062
     19 C16         4.0016    2.2833    0.9047 C.ar      1 <0>        -0.0868
     20 C17         5.2373    1.6696    0.8811 C.ar      1 <0>        -0.1155
     21 C18         6.1885    2.0590   -0.0449 C.ar      1 <0>        -0.0821
     22 C19         5.9053    3.0603   -0.9566 C.ar      1 <0>        -0.1149
     23 C20         4.6709    3.6768   -0.9472 C.ar      1 <0>        -0.0795
     24 H1         -1.0348   11.5706    1.1300 H         1 <0>         0.0786
     25 H2          0.5079   11.6919    0.2179 H         1 <0>         0.0362
     26 H3          0.5248   11.6827    2.0141 H         1 <0>         0.0801
     27 H4         -1.6469    9.5618    0.0147 H         1 <0>         0.1045
     28 H5         -0.1431    9.5871   -0.9674 H         1 <0>         0.0585
     29 H6         -1.0005    7.3678    0.9739 H         1 <0>         0.0825
     30 H7         -1.0461    7.2813   -0.8197 H         1 <0>         0.1027
     31 H8          1.1645    7.5229    2.1076 H         1 <0>         0.0815
     32 H9          2.6684    7.5482    1.1256 H         1 <0>         0.1116
     33 H10         2.0213    9.7431    0.1662 H         1 <0>         0.0580
     34 H11         2.0669    9.8296    1.9599 H         1 <0>         0.1062
     35 H12         3.1435    5.9506    0.0021 H         1 <0>         0.1830
     36 H13         2.1045    1.2354   -0.0107 H         1 <0>         0.1552
     37 H14         0.0021   -0.0041    0.0020 H         1 <0>         0.1516
     38 H15        -2.1512    1.1798    0.0187 H         1 <0>         0.1539
     39 H16        -2.2397    3.6133    0.0417 H         1 <0>         0.1527
     40 H17         3.2616    1.9821    1.6314 H         1 <0>         0.1317
     41 H18         5.4641    0.8873    1.5903 H         1 <0>         0.1381
     42 H19         7.1559    1.5791   -0.0564 H         1 <0>         0.1365
     43 H20         6.6518    3.3597   -1.6773 H         1 <0>         0.1379
     44 H21         4.4508    4.4579   -1.6599 H         1 <0>         0.1322
     45 H22        -1.0945    5.6867    0.0411 H         1 <0>         0.4698
@<TRIPOS>BOND
     1    1    2 1
     2    1   24 1
     3    1   25 1
     4    1   26 1
     5    2    7 1
     6    2    3 1
     7    3    4 1
     8    3   27 1
     9    3   28 1
    10    4    5 1
    11    4   29 1
    12    4   30 1
    13    5    6 1
    14    5    8 1
    15    6    7 1
    16    6   31 1
    17    6   32 1
    18    7   33 1
    19    7   34 1
    20    8   17 ar
    21    8    9 ar
    22    9   10 ar
    23    9   35 1
    24   10   11 ar
    25   10   18 1
    26   11   16 ar
    27   11   12 ar
    28   12   13 ar
    29   12   36 1
    30   13   14 ar
    31   13   37 1
    32   14   15 ar
    33   14   38 1
    34   15   16 ar
    35   15   39 1
    36   16   17 ar
    37   17   45 1
    38   18   23 ar
    39   18   19 ar
    40   19   20 ar
    41   19   40 1
    42   20   21 ar
    43   20   41 1
    44   21   22 ar
    45   21   42 1
    46   22   23 ar
    47   22   43 1
    48   23   44 1
@<TRIPOS>MOLECULE
ZINC22448624
   52    53     0     0     0
SMALL
USER_CHARGES

@<TRIPOS>ATOM
      1 C1         -0.0187    1.5258    0.0104 C.3       1 <0>        -0.1941
      2 C2          0.0021   -0.0041    0.0020 C.3       1 <0>        -0.0118
      3 N1          0.6897   -0.4778   -1.2066 N.4       1 <0>        -0.3840
      4 C3          2.0832   -0.1052   -1.1517 C.3       1 <0>        -0.0485
      5 C4          2.6583    0.2231   -2.5394 C.3       1 <0>        -0.0308
      6 N2          2.2162   -0.7153   -3.5951 N.4       1 <0>        -0.3896
      7 C5          2.2270   -2.0931   -3.1662 C.3       1 <0>        -0.0546
      8 C6          0.8248   -2.4582   -2.6342 C.3       1 <0>         0.1153
      9 H1          0.0717   -2.0318   -3.2970 H         1 <0>         0.1267
     10 C7          0.6079   -1.9537   -1.2814 C.3       1 <0>        -0.0354
     11 N3          0.6823   -3.9162   -2.6265 N.am      1 <0>        -0.7272
     12 C8          0.2909   -4.5610   -3.7434 C.2       1 <0>         0.5934
     13 O1          0.0559   -3.9323   -4.7578 O.2       1 <0>        -0.5055
     14 C9          0.1477   -6.0261   -3.7357 C.ar      1 <0>        -0.3042
     15 C10         0.4105   -6.7615   -2.5697 C.ar      1 <0>         0.0632
     16 C11         0.2646   -8.1220   -2.6077 C.ar      1 <0>        -0.2571
     17 C12        -0.1378   -8.7372   -3.7932 C.ar      1 <0>         0.5072
     18 N4         -0.3807   -8.0248   -4.8840 N.ar      1 <0>        -0.5873
     19 C13        -0.2591   -6.7083   -4.8924 C.ar      1 <0>         0.4542
     20 O2         -0.5229   -6.0149   -6.0254 O.3       1 <0>        -0.2715
     21 C14        -0.9327   -6.7698   -7.1674 C.3       1 <0>         0.0292
     22 N5         -0.2852  -10.1135   -3.8310 N.pl3     1 <0>        -0.6889
     23 C15        -0.7072  -10.7712   -5.0701 C.3       1 <0>         0.0835
     24 Br1         0.6065   -9.1600   -1.0644 Br        1 <0>        -0.0127
     25 C16         3.1058   -0.5745   -4.7556 C.3       1 <0>        -0.0527
     26 H2          1.0039    1.9031    0.0027 H         1 <0>         0.0824
     27 H3         -0.5459    1.8868   -0.8726 H         1 <0>         0.0854
     28 H4         -0.5289    1.8773    0.9072 H         1 <0>         0.1211
     29 H5          0.5293   -0.3651    0.8851 H         1 <0>         0.1440
     30 H6         -1.0205   -0.3814    0.0098 H         1 <0>         0.1456
     31 H7          2.1896    0.7693   -0.5098 H         1 <0>         0.1779
     32 H8          2.6519   -0.9287   -0.7199 H         1 <0>         0.1561
     33 H9          2.3496    1.2311   -2.8162 H         1 <0>         0.1602
     34 H10         3.7465    0.1970   -2.4819 H         1 <0>         0.1735
     35 H11         2.4768   -2.7365   -4.0098 H         1 <0>         0.1632
     36 H12         2.9639   -2.2233   -2.3736 H         1 <0>         0.1477
     37 H13         1.3610   -2.3825   -0.6203 H         1 <0>         0.1544
     38 H14        -0.3782   -2.2699   -0.9412 H         1 <0>         0.1648
     39 H15         0.8697   -4.4175   -1.8175 H         1 <0>         0.4160
     40 H16         0.7213   -6.2649   -1.6623 H         1 <0>         0.1465
     41 H17        -0.1494   -7.4793   -7.4340 H         1 <0>         0.0677
     42 H18        -1.8497   -7.3112   -6.9352 H         1 <0>         0.0680
     43 H19        -1.1114   -6.0946   -8.0042 H         1 <0>         0.1070
     44 H20        -0.1091  -10.6422   -3.0370 H         1 <0>         0.4219
     45 H21        -0.7673  -11.8474   -4.9080 H         1 <0>         0.0881
     46 H22        -1.6855  -10.3934   -5.3671 H         1 <0>         0.0709
     47 H23         0.0172  -10.5623   -5.8573 H         1 <0>         0.0707
     48 H24         4.1288   -0.8067   -4.4595 H         1 <0>         0.1338
     49 H25         2.7901   -1.2613   -5.5409 H         1 <0>         0.1393
     50 H26         3.0586    0.4490   -5.1275 H         1 <0>         0.1365
     51 H27         1.2786   -0.4700   -3.8758 H         1 <0>         0.4216
     52 H28         0.2600   -0.0713   -2.0240 H         1 <0>         0.4188
@<TRIPOS>BOND
     1    1    2 1
     2    1   26 1
     3    1   27 1
     4    1   28 1
     5    2    3 1
     6    2   29 1
     7    2   30 1
     8    3   10 1
     9    3    4 1
    10    3   52 1
    11    4    5 1
    12    4   31 1
    13    4   32 1
    14    5    6 1
    15    5   33 1
    16    5   34 1
    17    6    7 1
    18    6   25 1
    19    6   51 1
    20    7    8 1
    21    7   35 1
    22    7   36 1
    23    8    9 1
    24    8   10 1
    25    8   11 1
    26   10   37 1
    27   10   38 1
    28   11   12 am
    29   11   39 1
    30   12   13 2
    31   12   14 1
    32   14   19 ar
    33   14   15 ar
    34   15   16 ar
    35   15   40 1
    36   16   17 ar
    37   16   24 1
    38   17   18 ar
    39   17   22 1
    40   18   19 ar
    41   19   20 1
    42   20   21 1
    43   21   41 1
    44   21   42 1
    45   21   43 1
    46   22   23 1
    47   22   44 1
    48   23   45 1
    49   23   46 1
    50   23   47 1
    51   25   48 1
    52   25   49 1
    53   25   50 1
@<TRIPOS>MOLECULE
ZINC22448624
   51    52     0     0     0
SMALL
USER_CHARGES
5-bromo-N-[(6R)-1-ethyl-4-methyl-1,4-diazepan-6-yl]-2-methoxy-6-methylamino-pyridine-3-carboxamide
@<TRIPOS>ATOM
      1 C1          0.1464    2.6771   12.0831 C.3       1 <0>        -0.1915
      2 C2          1.5502    2.1344   11.8081 C.3       1 <0>        -0.0064
      3 N1          1.4530    0.9142   10.9959 N.4       1 <0>        -0.3830
      4 C3          0.6488   -0.0843   11.6571 C.3       1 <0>        -0.0187
      5 C4          1.1839   -1.5113   11.4406 C.3       1 <0>         0.0262
      6 N2          1.6341   -1.7502   10.0490 N.3       1 <0>        -0.5654
      7 C5          0.7615   -1.1966    9.0416 C.3       1 <0>         0.0359
      8 C6          1.2737    0.2088    8.6646 C.3       1 <0>         0.1347
      9 H1          2.3723    0.2273    8.6113 H         1 <0>         0.1131
     10 C7          0.8921    1.2107    9.6577 C.3       1 <0>        -0.0093
     11 N3          0.7134    0.5878    7.3651 N.am      1 <0>        -0.7442
     12 C8          1.3096    0.1766    6.2285 C.2       1 <0>         0.5869
     13 O1          2.3127   -0.5092    6.2816 O.2       1 <0>        -0.5065
     14 C9          0.7466    0.5574    4.9227 C.ar      1 <0>        -0.2875
     15 C10        -0.4104    1.3483    4.8489 C.ar      1 <0>         0.0622
     16 C11        -0.8989    1.6790    3.6137 C.ar      1 <0>        -0.2599
     17 C12        -0.2406    1.2258    2.4704 C.ar      1 <0>         0.5012
     18 N4          0.8481    0.4755    2.5613 N.ar      1 <0>        -0.5917
     19 C13         1.3587    0.1356    3.7326 C.ar      1 <0>         0.4457
     20 O2          2.4756   -0.6285    3.7840 O.3       1 <0>        -0.2663
     21 C14         3.0491   -1.0240    2.5363 C.3       1 <0>         0.0279
     22 N5         -0.7356    1.5603    1.2212 N.pl3     1 <0>        -0.7104
     23 C15        -0.0531    1.0904    0.0130 C.3       1 <0>         0.0893
     24 Br1        -2.4551    2.7419    3.4583 Br        1 <0>        -0.0246
     25 C16         1.8739   -3.1799    9.8113 C.3       1 <0>         0.0262
     26 H2          0.2192    3.5908   12.6913 H         1 <0>         0.1048
     27 H3         -0.4392    1.9207   12.6262 H         1 <0>         0.0791
     28 H4         -0.3500    2.9099   11.1295 H         1 <0>         0.0784
     29 H5          2.1358    2.8908   11.2650 H         1 <0>         0.1325
     30 H6          2.0466    1.9016   12.7617 H         1 <0>         0.1342
     31 H7          0.6371    0.1121   12.7394 H         1 <0>         0.1400
     32 H8         -0.3787   -0.0453   11.2663 H         1 <0>         0.1235
     33 H9          2.0420   -1.6860   12.1062 H         1 <0>         0.1055
     34 H10         0.3904   -2.2387   11.6668 H         1 <0>         0.0823
     35 H11         0.7664   -1.8472    8.1546 H         1 <0>         0.0997
     36 H12        -0.2614   -1.1277    9.4402 H         1 <0>         0.0547
     37 H13        -0.2061    1.2319    9.7169 H         1 <0>         0.1273
     38 H14         1.2597    2.1890    9.3146 H         1 <0>         0.1378
     39 H15        -0.1939    1.2079    7.3171 H         1 <0>         0.4210
     40 H16        -0.9046    1.6882    5.7469 H         1 <0>         0.1461
     41 H17         3.9441   -1.6360    2.7218 H         1 <0>         0.1057
     42 H18         3.3295   -0.1290    1.9615 H         1 <0>         0.0648
     43 H19         2.3151   -1.6115    1.9652 H         1 <0>         0.0648
     44 H20        -1.6412    2.1788    1.1360 H         1 <0>         0.4419
     45 H21        -0.5893    1.4541   -0.8759 H         1 <0>         0.0825
     46 H22        -0.0355   -0.0094    0.0061 H         1 <0>         0.0652
     47 H23         0.9779    1.4737    0.0017 H         1 <0>         0.0651
     48 H24         2.2062   -3.3283    8.7733 H         1 <0>         0.0848
     49 H25         0.9434   -3.7411    9.9822 H         1 <0>         0.0380
     50 H26         2.6516   -3.5408   10.5005 H         1 <0>         0.0801
     51 H27         2.4663    0.5001   10.8878 H         1 <0>         0.4561
@<TRIPOS>BOND
     1    1    2 1
     2    1   26 1
     3    1   27 1
     4    1   28 1
     5    2    3 1
     6    2   29 1
     7    2   30 1
     8    3   10 1
     9    3    4 1
    10    3   51 1
    11    4    5 1
    12    4   31 1
    13    4   32 1
    14    5    6 1
    15    5   33 1
    16    5   34 1
    17    6    7 1
    18    6   25 1
    19    7    8 1
    20    7   35 1
    21    7   36 1
    22    8    9 1
    23    8   10 1
    24    8   11 1
    25   10   37 1
    26   10   38 1
    27   11   12 am
    28   11   39 1
    29   12   13 2
    30   12   14 1
    31   14   19 ar
    32   14   15 ar
    33   15   16 ar
    34   15   40 1
    35   16   17 ar
    36   16   24 1
    37   17   18 ar
    38   17   22 1
    39   18   19 ar
    40   19   20 1
    41   20   21 1
    42   21   41 1
    43   21   42 1
    44   21   43 1
    45   22   23 1
    46   22   44 1
    47   23   45 1
    48   23   46 1
    49   23   47 1
    50   25   48 1
    51   25   49 1
    52   25   50 1
@<TRIPOS>MOLECULE
ZINC19796155
   42    45     0     0     0
SMALL
USER_CHARGES

@<TRIPOS>ATOM
      1 C1         -0.0670    1.4396   -0.3852 C.3       1 <0>         0.0243
      2 N1         -0.0229   -0.0169   -0.1987 N.3       1 <0>        -0.5428
      3 C2          0.3808   -0.6943   -1.4380 C.3       1 <0>         0.0399
      4 C3          0.2401   -2.2095   -1.2572 C.3       1 <0>         0.1263
      5 N2          0.9912   -2.6085   -0.0572 N.pl3     1 <0>        -0.5953
      6 C4          0.7394   -1.8803    1.1955 C.3       1 <0>         0.1122
      7 C5          0.8604   -0.3781    0.9181 C.3       1 <0>         0.0393
      8 C6          1.9051   -3.6365   -0.1053 C.2       1 <0>         0.5098
      9 N3          2.1670   -4.1290   -1.2643 N.2       1 <0>        -0.6041
     10 C7          3.0130   -5.1503   -1.5719 C.ar      1 <0>         0.1655
     11 C8          2.6280   -6.0848   -2.5372 C.ar      1 <0>        -0.1058
     12 C9          3.4872   -7.1047   -2.8991 C.ar      1 <0>        -0.0230
     13 C10         4.7348   -7.2069   -2.3106 C.ar      1 <0>        -0.1209
     14 C11         5.1212   -6.2977   -1.3402 C.ar      1 <0>        -0.1017
     15 C12         4.2618   -5.2835   -0.9546 C.ar      1 <0>         0.1117
     16 N4          4.6314   -4.4326    0.1003 N.pl3     1 <0>        -0.7261
     17 C13         3.8434   -4.4184    1.2519 C.ar      1 <0>         0.2140
     18 C14         2.4943   -4.0640    1.1729 C.ar      1 <0>        -0.1453
     19 C15         1.7072   -4.1133    2.3240 C.ar      1 <0>        -0.0723
     20 C16         2.2727   -4.4729    3.5311 C.ar      1 <0>        -0.1389
     21 C17         3.6189   -4.7825    3.6069 C.ar      1 <0>        -0.0765
     22 C18         4.3974   -4.7629    2.4751 C.ar      1 <0>        -0.1433
     23 Cl1         2.9987   -8.2627   -4.0966 Cl        1 <0>        -0.0679
     24 H1          0.9359    1.8090   -0.5992 H         1 <0>         0.0255
     25 H2         -0.7279    1.6794   -1.2181 H         1 <0>         0.0711
     26 H3         -0.4416    1.9111    0.5233 H         1 <0>         0.0709
     27 H4         -0.2581   -0.3649   -2.2574 H         1 <0>         0.0878
     28 H5          1.4186   -0.4499   -1.6647 H         1 <0>         0.0378
     29 H6         -0.8117   -2.4673   -1.1334 H         1 <0>         0.0720
     30 H7          0.6453   -2.7216   -2.1299 H         1 <0>         0.1060
     31 H8         -0.2645   -2.1065    1.5551 H         1 <0>         0.0792
     32 H9          1.4746   -2.1748    1.9444 H         1 <0>         0.0984
     33 H10         1.8915   -0.1381    0.6586 H         1 <0>         0.0379
     34 H11         0.5693    0.1807    1.8075 H         1 <0>         0.0892
     35 H12         1.6558   -6.0097   -3.0016 H         1 <0>         0.1375
     36 H13         5.4083   -7.9971   -2.6081 H         1 <0>         0.1357
     37 H14         6.0961   -6.3802   -0.8829 H         1 <0>         0.1326
     38 H15         5.4169   -3.8679    0.0299 H         1 <0>         0.4097
     39 H16         0.6563   -3.8699    2.2709 H         1 <0>         0.1344
     40 H17         1.6613   -4.5124    4.4205 H         1 <0>         0.1323
     41 H18         4.0571   -5.0467    4.5580 H         1 <0>         0.1317
     42 H19         5.4473   -5.0071    2.5424 H         1 <0>         0.1313
@<TRIPOS>BOND
     1    1    2 1
     2    1   24 1
     3    1   25 1
     4    1   26 1
     5    2    7 1
     6    2    3 1
     7    3    4 1
     8    3   27 1
     9    3   28 1
    10    4    5 1
    11    4   29 1
    12    4   30 1
    13    5    6 1
    14    5    8 1
    15    6    7 1
    16    6   31 1
    17    6   32 1
    18    7   33 1
    19    7   34 1
    20    8   18 1
    21    8    9 2
    22    9   10 1
    23   10   15 ar
    24   10   11 ar
    25   11   12 ar
    26   11   35 1
    27   12   13 ar
    28   12   23 1
    29   13   14 ar
    30   13   36 1
    31   14   15 ar
    32   14   37 1
    33   15   16 1
    34   16   17 1
    35   16   38 1
    36   17   22 ar
    37   17   18 ar
    38   18   19 ar
    39   19   20 ar
    40   19   39 1
    41   20   21 ar
    42   20   40 1
    43   21   22 ar
    44   21   41 1
    45   22   42 1
@<TRIPOS>MOLECULE
ZINC19796155
   44    47     0     0     0
SMALL
USER_CHARGES

@<TRIPOS>ATOM
      1 C1         -1.5703   -0.0018   -1.9302 C.3       1 <0>        -0.0497
      2 N1         -0.7527   -0.7171   -0.9414 N.4       1 <0>        -0.3854
      3 C2         -1.0498   -2.1535   -1.0104 C.3       1 <0>        -0.0252
      4 C3         -0.2839   -2.8861    0.0962 C.3       1 <0>         0.1048
      5 N2          1.1441   -2.5548   -0.0269 N.pl3     1 <0>        -0.7052
      6 C4          1.5202   -1.1363   -0.1296 C.3       1 <0>         0.1049
      7 C5          0.6692   -0.4862   -1.2256 C.3       1 <0>        -0.0251
      8 C6          2.0831   -3.5253   -0.0448 C.2       1 <0>         0.6309
      9 C7          2.6112   -3.9094    1.2074 C.ar      1 <0>        -0.2438
     10 C8          2.0495   -3.1929    2.2728 C.ar      1 <0>         0.0055
     11 C9          2.4602   -3.4528    3.5483 C.ar      1 <0>        -0.1817
     12 C10         3.4265   -4.4148    3.8208 C.ar      1 <0>         0.0489
     13 C11         4.0101   -5.1439    2.8276 C.ar      1 <0>        -0.2233
     14 C12         3.6302   -4.9235    1.4921 C.ar      1 <0>         0.3343
     15 N3          4.2865   -5.7106    0.6358 N.pl3     1 <0>        -0.6131
     16 C13         4.1767   -5.7728   -0.7271 C.ar      1 <0>         0.1589
     17 C14         5.0408   -6.7320   -1.2562 C.ar      1 <0>        -0.1157
     18 C15         5.0795   -6.9478   -2.6222 C.ar      1 <0>        -0.0495
     19 C16         4.2642   -6.2154   -3.4643 C.ar      1 <0>        -0.0338
     20 C17         3.4016   -5.2585   -2.9468 C.ar      1 <0>        -0.0846
     21 C18         3.3520   -5.0321   -1.5848 C.ar      1 <0>         0.0769
     22 N4          2.4115   -4.0290   -1.2719 N.pl3     1 <0>        -0.5773
     23 Cl1         4.3195   -6.4929   -5.1771 Cl        1 <0>        -0.0159
     24 H1         -1.3348   -0.3678   -2.9295 H         1 <0>         0.1246
     25 H2         -2.6262   -0.1724   -1.7203 H         1 <0>         0.1321
     26 H3         -1.3566    1.0656   -1.8745 H         1 <0>         0.1321
     27 H4         -2.1201   -2.3101   -0.8766 H         1 <0>         0.1569
     28 H5         -0.7442   -2.5415   -1.9820 H         1 <0>         0.1344
     29 H6         -0.6518   -2.5648    1.0707 H         1 <0>         0.1155
     30 H7         -0.4211   -3.9618   -0.0138 H         1 <0>         0.1302
     31 H8          1.3345   -0.6383    0.8220 H         1 <0>         0.1155
     32 H9          2.5758   -1.0551   -0.3891 H         1 <0>         0.1302
     33 H10         0.9228   -0.9247   -2.1907 H         1 <0>         0.1344
     34 H11         0.8655    0.5856   -1.2504 H         1 <0>         0.1569
     35 H12         1.2975   -2.4405    2.0860 H         1 <0>         0.1502
     36 H13         2.0243   -2.8976    4.3657 H         1 <0>         0.1496
     37 H14         3.7223   -4.5886    4.8448 H         1 <0>         0.1558
     38 H15         4.7590   -5.8851    3.0650 H         1 <0>         0.1623
     39 H16         5.6790   -7.3052   -0.6001 H         1 <0>         0.1677
     40 H17         5.7487   -7.6901   -3.0316 H         1 <0>         0.1653
     41 H18         2.7675   -4.6896   -3.6107 H         1 <0>         0.1565
     42 H19         1.9393   -3.6432   -2.0263 H         1 <0>         0.4255
     43 H20         4.9278   -6.3202    1.0333 H         1 <0>         0.4372
     44 H21        -0.9695   -0.3754   -0.0171 H         1 <0>         0.4310
@<TRIPOS>BOND
     1    1    2 1
     2    1   24 1
     3    1   25 1
     4    1   26 1
     5    2    7 1
     6    2    3 1
     7    2   44 1
     8    3    4 1
     9    3   27 1
    10    3   28 1
    11    4    5 1
    12    4   29 1
    13    4   30 1
    14    5    6 1
    15    5    8 1
    16    6    7 1
    17    6   31 1
    18    6   32 1
    19    7   33 1
    20    7   34 1
    21    8   22 1
    22    8    9 2
    23    9   14 ar
    24    9   10 ar
    25   10   11 ar
    26   10   35 1
    27   11   12 ar
    28   11   36 1
    29   12   13 ar
    30   12   37 1
    31   13   14 ar
    32   13   38 1
    33   14   15 2
    34   15   16 1
    35   15   43 1
    36   16   21 ar
    37   16   17 ar
    38   17   18 ar
    39   17   39 1
    40   18   19 ar
    41   18   40 1
    42   19   20 ar
    43   19   23 1
    44   20   21 ar
    45   20   41 1
    46   21   22 1
    47   22   42 1
@<TRIPOS>MOLECULE
ZINC19796155
   43    46     0     0     0
SMALL
USER_CHARGES

@<TRIPOS>ATOM
      1 C1         -0.0523    1.4387   -0.3863 C.3       1 <0>        -0.0469
      2 N1         -0.0147   -0.0168   -0.1908 N.4       1 <0>        -0.3852
      3 C2          0.4863   -0.6601   -1.4120 C.3       1 <0>        -0.0213
      4 C3          0.4181   -2.1823   -1.2510 C.3       1 <0>         0.1002
      5 N2          1.1441   -2.5548   -0.0269 N.pl3     1 <0>        -0.6180
      6 C4          0.8178   -1.8405    1.2170 C.3       1 <0>         0.0860
      7 C5          0.8671   -0.3344    0.9395 C.3       1 <0>        -0.0221
      8 C6          2.1017   -3.5432   -0.0451 C.2       1 <0>         0.5019
      9 N3          2.4234   -4.0210   -1.1951 N.2       1 <0>        -0.5760
     10 C7          3.3217   -5.0050   -1.4750 C.ar      1 <0>         0.1390
     11 C8          3.0096   -5.9522   -2.4541 C.ar      1 <0>        -0.0932
     12 C9          3.9229   -6.9340   -2.7877 C.ar      1 <0>        -0.0267
     13 C10         5.1529   -6.9852   -2.1572 C.ar      1 <0>        -0.1032
     14 C11         5.4673   -6.0631   -1.1730 C.ar      1 <0>        -0.1031
     15 C12         4.5533   -5.0871   -0.8155 C.ar      1 <0>         0.1235
     16 N4          4.8505   -4.2243    0.2524 N.pl3     1 <0>        -0.7273
     17 C13         4.0239   -4.2464    1.3765 C.ar      1 <0>         0.2173
     18 C14         2.6645   -3.9489    1.2520 C.ar      1 <0>        -0.1537
     19 C15         1.8414   -4.0345    2.3754 C.ar      1 <0>        -0.0841
     20 C16         2.3802   -4.3733    3.6007 C.ar      1 <0>        -0.1334
     21 C17         3.7349   -4.6261    3.7220 C.ar      1 <0>        -0.0692
     22 C18         4.5500   -4.5705    2.6174 C.ar      1 <0>        -0.1369
     23 Cl1         3.5248   -8.1083   -4.0027 Cl        1 <0>        -0.0551
     24 H1          0.9534    1.8033   -0.5956 H         1 <0>         0.1211
     25 H2         -0.7066    1.6758   -1.2253 H         1 <0>         0.1256
     26 H3         -0.4316    1.9169    0.5167 H         1 <0>         0.1252
     27 H4         -0.1269   -0.3565   -2.2605 H         1 <0>         0.1425
     28 H5          1.5196   -0.3587   -1.5839 H         1 <0>         0.1315
     29 H6         -0.6226   -2.4957   -1.1694 H         1 <0>         0.0898
     30 H7          0.8819   -2.6629   -2.1125 H         1 <0>         0.1431
     31 H8         -0.1827   -2.1194    1.5479 H         1 <0>         0.0960
     32 H9          1.5457   -2.0950    1.9873 H         1 <0>         0.1385
     33 H10         1.8889   -0.0428    0.6965 H         1 <0>         0.1320
     34 H11         0.5345    0.2092    1.8238 H         1 <0>         0.1439
     35 H12         2.0515   -5.9169   -2.9512 H         1 <0>         0.1396
     36 H13         5.8689   -7.7454   -2.4325 H         1 <0>         0.1422
     37 H14         6.4287   -6.1057   -0.6827 H         1 <0>         0.1382
     38 H15         5.6134   -3.6267    0.2096 H         1 <0>         0.4129
     39 H16         0.7836   -3.8354    2.2868 H         1 <0>         0.1314
     40 H17         1.7411   -4.4409    4.4686 H         1 <0>         0.1357
     41 H18         4.1512   -4.8742    4.6872 H         1 <0>         0.1370
     42 H19         5.6063   -4.7705    2.7202 H         1 <0>         0.1363
     43 H20        -0.9456   -0.3526    0.0057 H         1 <0>         0.4250
@<TRIPOS>BOND
     1    1    2 1
     2    1   24 1
     3    1   25 1
     4    1   26 1
     5    2    7 1
     6    2    3 1
     7    2   43 1
     8    3    4 1
     9    3   27 1
    10    3   28 1
    11    4    5 1
    12    4   29 1
    13    4   30 1
    14    5    6 1
    15    5    8 1
    16    6    7 1
    17    6   31 1
    18    6   32 1
    19    7   33 1
    20    7   34 1
    21    8   18 1
    22    8    9 2
    23    9   10 1
    24   10   15 ar
    25   10   11 ar
    26   11   12 ar
    27   11   35 1
    28   12   13 ar
    29   12   23 1
    30   13   14 ar
    31   13   36 1
    32   14   15 ar
    33   14   37 1
    34   15   16 1
    35   16   17 1
    36   16   38 1
    37   17   22 ar
    38   17   18 ar
    39   18   19 ar
    40   19   20 ar
    41   19   39 1
    42   20   21 ar
    43   20   40 1
    44   21   22 ar
    45   21   41 1
    46   22   42 1
@<TRIPOS>MOLECULE
ZINC05681419
   36    38     0     0     0
SMALL
USER_CHARGES
N-quinuclidin-3-ylbenzamide
@<TRIPOS>ATOM
      1 C1         -2.5883    2.2588    5.8510 C.ar      1 <0>        -0.0813
      2 C2         -1.8172    1.1114    5.9081 C.ar      1 <0>        -0.1228
      3 C3         -1.1645    0.6585    4.7803 C.ar      1 <0>        -0.0542
      4 C4         -1.2836    1.3602    3.5797 C.ar      1 <0>        -0.1519
      5 C5         -2.0591    2.5197    3.5301 C.ar      1 <0>        -0.0872
      6 C6         -2.7105    2.9591    4.6640 C.ar      1 <0>        -0.1257
      7 C7         -0.5865    0.8809    2.3672 C.2       1 <0>         0.5681
      8 O1          0.0923   -0.1264    2.4146 O.2       1 <0>        -0.5206
      9 N1         -0.7035    1.5608    1.2094 N.am      1 <0>        -0.7317
     10 C8         -0.0127    1.0858    0.0080 C.3       1 <0>         0.1389
     11 H1          0.0021   -0.0041    0.0020 H         1 <0>         0.1268
     12 C9          1.4230    1.6186   -0.0028 C.3       1 <0>        -0.0171
     13 C10         1.4543    1.6434   -2.4250 C.3       1 <0>        -0.0032
     14 C11         0.0198    1.1106   -2.4829 C.3       1 <0>        -0.1330
     15 C12        -0.7397    1.5969   -1.2422 C.3       1 <0>        -0.1099
     16 C13        -0.7205    3.1306   -1.2266 C.3       1 <0>        -0.1399
     17 C14         0.7347    3.6067   -1.2037 C.3       1 <0>        -0.0026
     18 H2         -3.0972    2.6092    6.7368 H         1 <0>         0.1341
     19 H3         -1.7259    0.5693    6.8378 H         1 <0>         0.1365
     20 H4         -0.5629   -0.2373    4.8262 H         1 <0>         0.1384
     21 H5         -2.1517    3.0697    2.6053 H         1 <0>         0.1209
     22 H6         -3.3139    3.8541    4.6261 H         1 <0>         0.1334
     23 H7         -1.2451    2.3646    1.1716 H         1 <0>         0.4056
     24 H8          1.5925    2.2252    0.8868 H         1 <0>         0.1313
     25 H9          2.1214    0.7817   -0.0108 H         1 <0>         0.1383
     26 H10         1.6456    2.2684   -3.2973 H         1 <0>         0.1313
     27 H11         2.1529    0.8068   -2.4163 H         1 <0>         0.1310
     28 H12         0.0354    0.0208   -2.4978 H         1 <0>         0.1051
     29 H13        -0.4734    1.4811   -3.3816 H         1 <0>         0.1080
     30 H14        -1.7679    1.2350   -1.2521 H         1 <0>         0.1245
     31 H15        -1.2374    3.4933   -0.3381 H         1 <0>         0.0953
     32 H16        -1.2159    3.5130   -2.1190 H         1 <0>         0.1088
     33 H17         0.9093    4.1995   -0.3058 H         1 <0>         0.1275
     34 H18         0.9320    4.2157   -2.0860 H         1 <0>         0.1320
     35 N2          1.6561    2.4506   -1.2028 N.4       1 <0>        -0.3899
     36 H19         2.6232    2.7952   -1.1868 H         1 <0>         0.4353
@<TRIPOS>BOND
     1    1    6 ar
     2    1    2 ar
     3    1   18 1
     4    2    3 ar
     5    2   19 1
     6    3    4 ar
     7    3   20 1
     8    4    5 ar
     9    4    7 1
    10    5    6 ar
    11    5   21 1
    12    6   22 1
    13    7    8 2
    14    7    9 am
    15    9   10 1
    16    9   23 1
    17   10   11 1
    18   10   15 1
    19   10   12 1
    20   12   24 1
    21   12   25 1
    22   12   35 1
    23   13   14 1
    24   13   26 1
    25   13   27 1
    26   13   35 1
    27   14   15 1
    28   14   28 1
    29   14   29 1
    30   15   16 1
    31   15   30 1
    32   16   17 1
    33   16   31 1
    34   16   32 1
    35   17   33 1
    36   17   34 1
    37   17   35 1
    38   35   36 1
@<TRIPOS>MOLECULE
ZINC01542113
   61    65     0     0     0
SMALL
USER_CHARGES
5-[4-[4-(5-cyano-1H-indol-3-yl)butyl]piperazin-1-yl]benzofuran-2-carboxamide
@<TRIPOS>ATOM
      1 C1         -0.6908   -1.8418   -9.9564 C.ar      1 <0>        -0.0533
      2 C2          0.2910   -0.9109  -10.1276 C.ar      1 <0>        -0.1223
      3 C3          0.4306    0.1367   -9.2201 C.ar      1 <0>         0.1217
      4 C4         -0.4445    0.2270   -8.1198 C.ar      1 <0>        -0.1088
      5 C5         -1.4499   -0.7217   -7.9498 C.ar      1 <0>        -0.0176
      6 C6         -1.5715   -1.7604   -8.8687 C.ar      1 <0>        -0.0509
      7 C7         -2.5971   -2.7459   -8.7030 C.1       1 <0>         0.2516
      8 N1         -3.4107   -3.5277   -8.5716 N.1       1 <0>        -0.4148
      9 C8         -0.0376    1.4225   -7.3759 C.2       1 <0>        -0.1737
     10 C9          1.0082    1.9522   -8.0291 C.2       1 <0>         0.0644
     11 N2          1.3011    1.1974   -9.1324 N.pl3     1 <0>        -0.5878
     12 H1          2.0171    1.3832   -9.7598 H         1 <0>         0.4230
     13 C10        -0.6691    1.9522   -6.1143 C.3       1 <0>        -0.0421
     14 C11        -0.0683    1.2355   -4.9034 C.3       1 <0>        -0.1132
     15 C12        -0.7095    1.7734   -3.6226 C.3       1 <0>        -0.1528
     16 C13        -0.1087    1.0567   -2.4117 C.3       1 <0>        -0.0044
     17 C14        -0.0127    1.0858    0.0080 C.3       1 <0>         0.0031
     18 C15        -0.7300    1.5798    1.2666 C.3       1 <0>         0.0230
     19 N3         -0.7832    3.0484    1.2523 N.pl3     1 <0>        -0.4826
     20 C16        -1.4948    3.5356    0.0624 C.3       1 <0>         0.0189
     21 C17        -0.7771    3.0416   -1.1959 C.3       1 <0>        -0.0039
     22 C18        -1.3696    3.5402    2.4236 C.ar      1 <0>         0.0698
     23 C19        -2.4823    4.3771    2.3463 C.ar      1 <0>        -0.1261
     24 C20        -3.0715    4.8698    3.4890 C.ar      1 <0>        -0.0768
     25 C21        -2.5589    4.5359    4.7374 C.ar      1 <0>         0.0632
     26 C22        -1.4363    3.6918    4.8192 C.ar      1 <0>        -0.1171
     27 C23        -0.8480    3.1911    3.6550 C.ar      1 <0>        -0.0686
     28 C24        -1.1565    3.5406    6.2468 C.2       1 <0>        -0.1139
     29 C25        -2.0959    4.2771    6.8946 C.2       1 <0>        -0.0141
     30 O1         -2.9174    4.8595    5.9964 O.3       1 <0>        -0.1814
     31 C26        -2.2018    4.4184    8.3536 C.2       1 <0>         0.6027
     32 O2         -1.4080    3.8496    9.0791 O.2       1 <0>        -0.5088
     33 N4         -3.1784    5.1782    8.8880 N.am      1 <0>        -0.8362
     34 H2         -0.7910   -2.6497  -10.6661 H         1 <0>         0.1384
     35 H3          0.9625   -0.9859  -10.9702 H         1 <0>         0.1339
     36 H4         -2.1260   -0.6548   -7.1103 H         1 <0>         0.1300
     37 H5          1.5403    2.8426   -7.7283 H         1 <0>         0.1729
     38 H6         -1.7443    1.7758   -6.1444 H         1 <0>         0.0747
     39 H7         -0.4787    3.0225   -6.0344 H         1 <0>         0.0746
     40 H8          1.0069    1.4120   -4.8733 H         1 <0>         0.0747
     41 H9         -0.2587    0.1653   -4.9833 H         1 <0>         0.0754
     42 H10        -1.7847    1.5969   -3.6527 H         1 <0>         0.0872
     43 H11        -0.5191    2.8436   -3.5426 H         1 <0>         0.0900
     44 H12         0.9665    1.2331   -2.3816 H         1 <0>         0.1321
     45 H13        -0.2991   -0.0136   -2.4916 H         1 <0>         0.1300
     46 H14         0.0021   -0.0041    0.0020 H         1 <0>         0.1381
     47 H15         1.0098    1.4634    0.0003 H         1 <0>         0.1410
     48 H16        -1.7436    1.1797    1.2882 H         1 <0>         0.0704
     49 H17        -0.1871    1.2439    2.1500 H         1 <0>         0.1282
     50 H18        -1.5096    4.6255    0.0684 H         1 <0>         0.1303
     51 H19        -2.5172    3.1577    0.0699 H         1 <0>         0.0721
     52 H20         0.2366    3.4417   -1.2171 H         1 <0>         0.1411
     53 H21        -1.3193    3.3776   -2.0798 H         1 <0>         0.1421
     54 H22        -2.8860    4.6416    1.3801 H         1 <0>         0.1422
     55 H23        -3.9329    5.5171    3.4154 H         1 <0>         0.1438
     56 H24         0.0111    2.5395    3.7168 H         1 <0>         0.1379
     57 H25        -0.3635    2.9604    6.6952 H         1 <0>         0.1760
     58 H26        -3.8114    5.6317    8.3096 H         1 <0>         0.4096
     59 H27        -3.2483    5.2714    9.8509 H         1 <0>         0.4159
     60 N5         -0.7506    1.5637   -1.1801 N.4       1 <0>        -0.3985
     61 H28        -1.7146    1.2130   -1.1376 H         1 <0>         0.4256
@<TRIPOS>BOND
     1    1    6 ar
     2    1    2 ar
     3    1   34 1
     4    2    3 ar
     5    2   35 1
     6    3   11 1
     7    3    4 ar
     8    4    5 ar
     9    4    9 1
    10    5    6 ar
    11    5   36 1
    12    6    7 1
    13    7    8 3
    14    9   10 2
    15    9   13 1
    16   10   11 1
    17   10   37 1
    18   11   12 1
    19   13   14 1
    20   13   38 1
    21   13   39 1
    22   14   15 1
    23   14   40 1
    24   14   41 1
    25   15   16 1
    26   15   42 1
    27   15   43 1
    28   16   44 1
    29   16   45 1
    30   16   60 1
    31   17   18 1
    32   17   46 1
    33   17   47 1
    34   17   60 1
    35   18   19 1
    36   18   48 1
    37   18   49 1
    38   19   20 1
    39   19   22 1
    40   20   21 1
    41   20   50 1
    42   20   51 1
    43   21   52 1
    44   21   53 1
    45   21   60 1
    46   22   27 ar
    47   22   23 ar
    48   23   24 ar
    49   23   54 1
    50   24   25 ar
    51   24   55 1
    52   25   30 1
    53   25   26 ar
    54   26   27 ar
    55   26   28 1
    56   27   56 1
    57   28   29 2
    58   28   57 1
    59   29   30 1
    60   29   31 1
    61   31   32 2
    62   31   33 am
    63   33   58 1
    64   33   59 1
    65   60   61 1
@<TRIPOS>MOLECULE
ZINC00004448
   42    45     0     0     0
SMALL
USER_CHARGES

@<TRIPOS>ATOM
      1 C1         -0.4391   -3.3377    1.8722 C.3       1 <0>        -0.1123
      2 C2         -0.1697   -2.2466    0.8683 C.cat     1 <0>         0.2989
      3 N1         -0.0089   -2.4170   -0.4155 N.pl3     1 <0>        -0.4743
      4 C3          0.2118   -1.2278   -0.9953 C.2       1 <0>        -0.0131
      5 C4          0.1869   -0.2847   -0.0343 C.2       1 <0>         0.0706
      6 N2         -0.0604   -0.9298    1.1473 N.pl3     1 <0>        -0.3998
      7 C5         -0.1811   -0.3082    2.4684 C.3       1 <0>         0.1079
      8 C6         -1.6568   -0.2375    2.8660 C.3       1 <0>        -0.1546
      9 H1         -2.1022   -1.2287    2.7806 H         1 <0>         0.1154
     10 C7         -1.7700    0.2464    4.3115 C.3       1 <0>        -0.1029
     11 C8         -3.2416    0.3294    4.7350 C.3       1 <0>        -0.0678
     12 C9         -3.9618    1.2252    3.7555 C.2       1 <0>         0.1597
     13 C10        -3.5215    1.3875    2.4463 C.2       1 <0>        -0.2921
     14 C11        -4.4444    2.3149    1.8134 C.ar      1 <0>        -0.0463
     15 C12        -4.5189    2.8565    0.5307 C.ar      1 <0>        -0.0763
     16 C13        -5.5626    3.7304    0.2795 C.ar      1 <0>        -0.1250
     17 C14        -6.4928    4.0558    1.2516 C.ar      1 <0>        -0.1030
     18 C15        -6.4370    3.5295    2.5307 C.ar      1 <0>        -0.1113
     19 C16        -5.3960    2.6468    2.8098 C.ar      1 <0>         0.0678
     20 N3         -5.0642    1.9669    3.9526 N.pl3     1 <0>        -0.4390
     21 C17        -5.8081    2.0387    5.2127 C.3       1 <0>         0.0582
     22 C18        -2.3800    0.7188    1.9432 C.2       1 <0>         0.4331
     23 O1         -1.9955    0.9054    0.8069 O.2       1 <0>        -0.4805
     24 H2         -1.5134   -3.4249    2.0346 H         1 <0>         0.1174
     25 H3         -0.0509   -4.2834    1.4940 H         1 <0>         0.1154
     26 H4          0.0521   -3.0941    2.8143 H         1 <0>         0.1145
     27 H5          0.3800   -1.0566   -2.0483 H         1 <0>         0.2213
     28 H6          0.3302    0.7771   -0.1704 H         1 <0>         0.2190
     29 H7          0.3645   -0.9030    3.2010 H         1 <0>         0.1257
     30 H8          0.2350    0.6987    2.4355 H         1 <0>         0.1281
     31 H9         -1.2451   -0.4489    4.9665 H         1 <0>         0.0978
     32 H10        -1.3139    1.2326    4.3982 H         1 <0>         0.0859
     33 H11        -3.6859   -0.6659    4.7191 H         1 <0>         0.1031
     34 H12        -3.3127    0.7488    5.7386 H         1 <0>         0.1005
     35 H13        -3.7956    2.6061   -0.2312 H         1 <0>         0.1359
     36 H14        -5.6535    4.1710   -0.7023 H         1 <0>         0.1265
     37 H15        -7.2882    4.7431    1.0040 H         1 <0>         0.1296
     38 H16        -7.1689    3.7920    3.2802 H         1 <0>         0.1330
     39 H17        -5.4075    2.8462    5.8256 H         1 <0>         0.0854
     40 H18        -6.8605    2.2295    5.0030 H         1 <0>         0.0945
     41 H19        -5.7096    1.0938    5.7471 H         1 <0>         0.0927
     42 H20        -0.0436   -3.2691   -0.8775 H         1 <0>         0.4603
@<TRIPOS>BOND
     1    1    2 1
     2    1   24 1
     3    1   25 1
     4    1   26 1
     5    2    6 1
     6    2    3 2
     7    3    4 1
     8    3   42 1
     9    4    5 2
    10    4   27 1
    11    5    6 1
    12    5   28 1
    13    6    7 1
    14    7    8 1
    15    7   29 1
    16    7   30 1
    17    8    9 1
    18    8   22 1
    19    8   10 1
    20   10   11 1
    21   10   31 1
    22   10   32 1
    23   11   12 1
    24   11   33 1
    25   11   34 1
    26   12   20 1
    27   12   13 2
    28   13   14 1
    29   13   22 1
    30   14   19 ar
    31   14   15 ar
    32   15   16 ar
    33   15   35 1
    34   16   17 ar
    35   16   36 1
    36   17   18 ar
    37   17   37 1
    38   18   19 ar
    39   18   38 1
    40   19   20 1
    41   20   21 1
    42   21   39 1
    43   21   40 1
    44   21   41 1
    45   22   23 2
@<TRIPOS>MOLECULE
ZINC00004448
   41    44     0     0     0
SMALL
USER_CHARGES

@<TRIPOS>ATOM
      1 C1         -0.4391   -3.3377    1.8722 C.3       1 <0>        -0.0665
      2 C2         -0.1697   -2.2466    0.8683 C.2       1 <0>         0.1894
      3 N1         -0.0089   -2.4170   -0.4155 N.2       1 <0>        -0.4892
      4 C3          0.2118   -1.2278   -0.9953 C.2       1 <0>        -0.0442
      5 C4          0.1868   -0.2847   -0.0343 C.2       1 <0>        -0.0089
      6 N2         -0.0604   -0.9298    1.1473 N.pl3     1 <0>        -0.4502
      7 C5         -0.1811   -0.3082    2.4684 C.3       1 <0>         0.1208
      8 C6         -1.6568   -0.2375    2.8660 C.3       1 <0>        -0.1505
      9 H1         -2.1022   -1.2287    2.7806 H         1 <0>         0.1106
     10 C7         -1.7700    0.2464    4.3115 C.3       1 <0>        -0.1021
     11 C8         -3.2416    0.3294    4.7350 C.3       1 <0>        -0.0641
     12 C9         -3.9618    1.2252    3.7555 C.2       1 <0>         0.1486
     13 C10        -3.5215    1.3875    2.4463 C.2       1 <0>        -0.2760
     14 C11        -4.4444    2.3149    1.8134 C.ar      1 <0>        -0.0490
     15 C12        -4.5189    2.8565    0.5307 C.ar      1 <0>        -0.0694
     16 C13        -5.5626    3.7304    0.2795 C.ar      1 <0>        -0.1333
     17 C14        -6.4928    4.0558    1.2516 C.ar      1 <0>        -0.1057
     18 C15        -6.4370    3.5295    2.5307 C.ar      1 <0>        -0.1186
     19 C16        -5.3960    2.6468    2.8098 C.ar      1 <0>         0.0711
     20 N3         -5.0642    1.9669    3.9526 N.pl3     1 <0>        -0.4472
     21 C17        -5.8081    2.0387    5.2127 C.3       1 <0>         0.0636
     22 C18        -2.3800    0.7188    1.9432 C.2       1 <0>         0.4253
     23 O1         -1.9955    0.9054    0.8069 O.2       1 <0>        -0.4537
     24 H2         -1.5134   -3.4248    2.0346 H         1 <0>         0.0742
     25 H3         -0.0510   -4.2834    1.4939 H         1 <0>         0.0891
     26 H4          0.0522   -3.0941    2.8143 H         1 <0>         0.0704
     27 H5          0.3800   -1.0566   -2.0483 H         1 <0>         0.1656
     28 H6          0.3302    0.7771   -0.1704 H         1 <0>         0.1690
     29 H7          0.3645   -0.9030    3.2010 H         1 <0>         0.0973
     30 H8          0.2350    0.6987    2.4355 H         1 <0>         0.0958
     31 H9         -1.2451   -0.4489    4.9665 H         1 <0>         0.0916
     32 H10        -1.3139    1.2326    4.3982 H         1 <0>         0.0786
     33 H11        -3.6859   -0.6659    4.7191 H         1 <0>         0.0996
     34 H12        -3.3127    0.7488    5.7386 H         1 <0>         0.0928
     35 H13        -3.7956    2.6061   -0.2312 H         1 <0>         0.1375
     36 H14        -5.6535    4.1710   -0.7023 H         1 <0>         0.1236
     37 H15        -7.2882    4.7431    1.0040 H         1 <0>         0.1251
     38 H16        -7.1689    3.7920    3.2802 H         1 <0>         0.1289
     39 H17        -5.4075    2.8462    5.8256 H         1 <0>         0.0801
     40 H18        -6.8605    2.2295    5.0030 H         1 <0>         0.0900
     41 H19        -5.7096    1.0938    5.7471 H         1 <0>         0.0899
@<TRIPOS>BOND
     1    1    2 1
     2    1   24 1
     3    1   25 1
     4    1   26 1
     5    2    6 1
     6    2    3 2
     7    3    4 1
     8    4    5 2
     9    4   27 1
    10    5    6 1
    11    5   28 1
    12    6    7 1
    13    7    8 1
    14    7   29 1
    15    7   30 1
    16    8    9 1
    17    8   22 1
    18    8   10 1
    19   10   11 1
    20   10   31 1
    21   10   32 1
    22   11   12 1
    23   11   33 1
    24   11   34 1
    25   12   20 1
    26   12   13 2
    27   13   14 1
    28   13   22 1
    29   14   19 ar
    30   14   15 ar
    31   15   16 ar
    32   15   35 1
    33   16   17 ar
    34   16   36 1
    35   17   18 ar
    36   17   37 1
    37   18   19 ar
    38   18   38 1
    39   19   20 1
    40   20   21 1
    41   21   39 1
    42   21   40 1
    43   21   41 1
    44   22   23 2
