@<TRIPOS>MOLECULE
ZINC13537284
   41    44     0     0     0
SMALL
USER_CHARGES

@<TRIPOS>ATOM
      1 C1         -0.0184    1.5028    0.0103 C.3       1 <0>        -0.1074
      2 C2          0.0021   -0.0041    0.0020 C.2       1 <0>         0.0729
      3 C3          0.0081   -0.8009   -1.0836 C.2       1 <0>         0.0067
      4 N1          0.0272   -2.0745   -0.6635 N.pl3     1 <0>        -0.4619
      5 C4          0.0333   -2.0972    0.6413 C.cat     1 <0>         0.3082
      6 N2          0.0241   -0.8258    1.0965 N.pl3     1 <0>        -0.5120
      7 H1          0.0299   -0.5470    2.0255 H         1 <0>         0.4650
      8 C5         -0.0046   -0.3419   -2.5190 C.3       1 <0>         0.1714
      9 N3          1.3486    0.0537   -2.9171 N.am      1 <0>        -0.6193
     10 C6          1.7630    1.4364   -2.7185 C.3       1 <0>         0.1135
     11 C7          3.2156    1.5553   -2.2571 C.3       1 <0>        -0.0758
     12 C8          4.0766    0.6665   -3.1201 C.2       1 <0>         0.1242
     13 C9          3.5653   -0.4837   -3.6832 C.2       1 <0>        -0.2492
     14 C10         4.6378   -1.0930   -4.4423 C.ar      1 <0>        -0.0510
     15 C11         4.7227   -2.2516   -5.2155 C.ar      1 <0>        -0.0707
     16 C12         5.9436   -2.5221   -5.8077 C.ar      1 <0>        -0.1300
     17 C13         7.0361   -1.6872   -5.6458 C.ar      1 <0>        -0.0985
     18 C14         6.9746   -0.5333   -4.8838 C.ar      1 <0>        -0.1175
     19 C15         5.7571   -0.2374   -4.2758 C.ar      1 <0>         0.0786
     20 N4          5.3710    0.8047   -3.4733 N.pl3     1 <0>        -0.4467
     21 C16         6.2392    1.9096   -3.0592 C.3       1 <0>         0.0636
     22 C17         2.1706   -0.8798   -3.4511 C.2       1 <0>         0.6060
     23 O1          1.7715   -1.9949   -3.7298 O.2       1 <0>        -0.5289
     24 H2          1.0042    1.8801    0.0026 H         1 <0>         0.1036
     25 H3         -0.5455    1.8639   -0.8728 H         1 <0>         0.1092
     26 H4         -0.5286    1.8543    0.9071 H         1 <0>         0.0982
     27 H5          0.0476   -2.9856    1.2553 H         1 <0>         0.2673
     28 H6         -0.3479   -1.1558   -3.1577 H         1 <0>         0.1191
     29 H7         -0.6772    0.5095   -2.6223 H         1 <0>         0.1263
     30 H8          1.6465    1.9773   -3.6576 H         1 <0>         0.0824
     31 H9          1.1170    1.8933   -1.9689 H         1 <0>         0.0965
     32 H10         3.5460    2.5894   -2.3543 H         1 <0>         0.1072
     33 H11         3.2949    1.2412   -1.2164 H         1 <0>         0.0935
     34 H12         3.8744   -2.9072   -5.3454 H         1 <0>         0.1367
     35 H13         6.0474   -3.4102   -6.4134 H         1 <0>         0.1265
     36 H14         7.9665   -1.9444   -6.1301 H         1 <0>         0.1290
     37 H15         7.8342    0.1096   -4.7652 H         1 <0>         0.1321
     38 H16         6.7383    1.6495   -2.1258 H         1 <0>         0.0804
     39 H17         6.9861    2.0939   -3.8315 H         1 <0>         0.0931
     40 H18         5.6393    2.8077   -2.9124 H         1 <0>         0.0896
     41 H19         0.0350   -2.8555   -1.2387 H         1 <0>         0.4680
@<TRIPOS>BOND
     1    1    2 1
     2    1   24 1
     3    1   25 1
     4    1   26 1
     5    2    6 1
     6    2    3 2
     7    3    4 1
     8    3    8 1
     9    4    5 2
    10    4   41 1
    11    5    6 1
    12    5   27 1
    13    6    7 1
    14    8    9 1
    15    8   28 1
    16    8   29 1
    17    9   22 am
    18    9   10 1
    19   10   11 1
    20   10   30 1
    21   10   31 1
    22   11   12 1
    23   11   32 1
    24   11   33 1
    25   12   20 1
    26   12   13 2
    27   13   14 1
    28   13   22 1
    29   14   19 ar
    30   14   15 ar
    31   15   16 ar
    32   15   34 1
    33   16   17 ar
    34   16   35 1
    35   17   18 ar
    36   17   36 1
    37   18   19 ar
    38   18   37 1
    39   19   20 1
    40   20   21 1
    41   21   38 1
    42   21   39 1
    43   21   40 1
    44   22   23 2
@<TRIPOS>MOLECULE
ZINC13537284
   41    44     0     0     0
SMALL
USER_CHARGES

@<TRIPOS>ATOM
      1 C1         -0.0184    1.5028    0.0103 C.3       1 <0>        -0.1071
      2 C2          0.0021   -0.0041    0.0020 C.2       1 <0>         0.0427
      3 C3          0.0078   -0.7894   -1.0919 C.2       1 <0>         0.0370
      4 N1          0.0283   -2.0846   -0.6496 N.pl3     1 <0>        -0.4973
      5 H1          0.0368   -2.8816   -1.2024 H         1 <0>         0.4684
      6 C4          0.0343   -2.0456    0.7003 C.cat     1 <0>         0.3079
      7 N2          0.0236   -0.7980    1.0829 N.pl3     1 <0>        -0.4758
      8 C5         -0.0061   -0.3305   -2.5273 C.3       1 <0>         0.1714
      9 N3          1.3466    0.0662   -2.9263 N.am      1 <0>        -0.6190
     10 C6          1.7599    1.4493   -2.7279 C.3       1 <0>         0.1136
     11 C7          3.2127    1.5693   -2.2674 C.3       1 <0>        -0.0757
     12 C8          4.0739    0.6813   -3.1309 C.2       1 <0>         0.1240
     13 C9          3.5632   -0.4694   -3.6937 C.2       1 <0>        -0.2489
     14 C10         4.6357   -1.0778   -4.4535 C.ar      1 <0>        -0.0511
     15 C11         4.7211   -2.2363   -5.2267 C.ar      1 <0>        -0.0707
     16 C12         5.9419   -2.5058   -5.8197 C.ar      1 <0>        -0.1301
     17 C13         7.0338   -1.6700   -5.6585 C.ar      1 <0>        -0.0985
     18 C14         6.9718   -0.5162   -4.8964 C.ar      1 <0>        -0.1175
     19 C15         5.7544   -0.2212   -4.2877 C.ar      1 <0>         0.0786
     20 N4          5.3680    0.8205   -3.4849 N.pl3     1 <0>        -0.4468
     21 C16         6.2356    1.9262   -3.0714 C.3       1 <0>         0.0637
     22 C17         2.1690   -0.8666   -3.4608 C.2       1 <0>         0.6059
     23 O1          1.7706   -1.9821   -3.7392 O.2       1 <0>        -0.5279
     24 H2          1.0042    1.8801    0.0026 H         1 <0>         0.1016
     25 H3         -0.5455    1.8639   -0.8728 H         1 <0>         0.1077
     26 H4         -0.5286    1.8543    0.9071 H         1 <0>         0.0969
     27 H5          0.0496   -2.9046    1.3548 H         1 <0>         0.2673
     28 H6         -0.3491   -1.1447   -3.1657 H         1 <0>         0.1200
     29 H7         -0.6795    0.5204   -2.6302 H         1 <0>         0.1276
     30 H8          1.6424    1.9900   -3.6670 H         1 <0>         0.0825
     31 H9          1.1140    1.9057   -1.9779 H         1 <0>         0.0967
     32 H10         3.5422    2.6037   -2.3648 H         1 <0>         0.1073
     33 H11         3.2929    1.2553   -1.2267 H         1 <0>         0.0935
     34 H12         3.8733   -2.8926   -5.3561 H         1 <0>         0.1367
     35 H13         6.0460   -3.3939   -6.4254 H         1 <0>         0.1265
     36 H14         7.9641   -1.9264   -6.1434 H         1 <0>         0.1290
     37 H15         7.8309    0.1275   -4.7784 H         1 <0>         0.1321
     38 H16         6.7354    1.6664   -2.1383 H         1 <0>         0.0804
     39 H17         6.9818    2.1110   -3.8441 H         1 <0>         0.0931
     40 H18         5.6350    2.8238   -2.9242 H         1 <0>         0.0896
     41 H19         0.0285   -0.4929    2.0036 H         1 <0>         0.4646
@<TRIPOS>BOND
     1    1    2 1
     2    1   24 1
     3    1   25 1
     4    1   26 1
     5    2    7 1
     6    2    3 2
     7    3    4 1
     8    3    8 1
     9    4    5 1
    10    4    6 1
    11    6    7 2
    12    6   27 1
    13    7   41 1
    14    8    9 1
    15    8   28 1
    16    8   29 1
    17    9   22 am
    18    9   10 1
    19   10   11 1
    20   10   30 1
    21   10   31 1
    22   11   12 1
    23   11   32 1
    24   11   33 1
    25   12   20 1
    26   12   13 2
    27   13   14 1
    28   13   22 1
    29   14   19 ar
    30   14   15 ar
    31   15   16 ar
    32   15   34 1
    33   16   17 ar
    34   16   35 1
    35   17   18 ar
    36   17   36 1
    37   18   19 ar
    38   18   37 1
    39   19   20 1
    40   20   21 1
    41   21   38 1
    42   21   39 1
    43   21   40 1
    44   22   23 2
@<TRIPOS>MOLECULE
ZINC13537284
   40    43     0     0     0
SMALL
USER_CHARGES

@<TRIPOS>ATOM
      1 C1         -0.0184    1.5028    0.0103 C.3       1 <0>        -0.0723
      2 C2          0.0021   -0.0041    0.0020 C.2       1 <0>         0.0146
      3 C3          0.0078   -0.7894   -1.0919 C.2       1 <0>        -0.0458
      4 N1          0.0283   -2.0846   -0.6496 N.pl3     1 <0>        -0.5564
      5 C4          0.0343   -2.0456    0.7003 C.2       1 <0>         0.1929
      6 N2          0.0236   -0.7980    1.0829 N.2       1 <0>        -0.4931
      7 C5         -0.0061   -0.3305   -2.5273 C.3       1 <0>         0.1874
      8 N3          1.3466    0.0662   -2.9263 N.am      1 <0>        -0.6121
      9 C6          1.7599    1.4493   -2.7279 C.3       1 <0>         0.1170
     10 C7          3.2127    1.5693   -2.2674 C.3       1 <0>        -0.0758
     11 C8          4.0739    0.6813   -3.1309 C.2       1 <0>         0.1249
     12 C9          3.5632   -0.4694   -3.6937 C.2       1 <0>        -0.2405
     13 C10         4.6357   -1.0778   -4.4535 C.ar      1 <0>        -0.0512
     14 C11         4.7211   -2.2363   -5.2267 C.ar      1 <0>        -0.0663
     15 C12         5.9419   -2.5058   -5.8197 C.ar      1 <0>        -0.1379
     16 C13         7.0338   -1.6700   -5.6585 C.ar      1 <0>        -0.1034
     17 C14         6.9718   -0.5162   -4.8964 C.ar      1 <0>        -0.1214
     18 C15         5.7544   -0.2212   -4.2877 C.ar      1 <0>         0.0798
     19 N4          5.3680    0.8205   -3.4849 N.pl3     1 <0>        -0.4528
     20 C16         6.2356    1.9262   -3.0714 C.3       1 <0>         0.0673
     21 C17         2.1690   -0.8666   -3.4608 C.2       1 <0>         0.6033
     22 O1          1.7706   -1.9821   -3.7392 O.2       1 <0>        -0.5357
     23 H1          1.0042    1.8801    0.0026 H         1 <0>         0.0677
     24 H2         -0.5455    1.8639   -0.8728 H         1 <0>         0.0686
     25 H3         -0.5286    1.8543    0.9071 H         1 <0>         0.0737
     26 H4          0.0496   -2.9046    1.3548 H         1 <0>         0.2086
     27 H5         -0.3491   -1.1447   -3.1657 H         1 <0>         0.0951
     28 H6         -0.6795    0.5204   -2.6302 H         1 <0>         0.1035
     29 H7          1.6424    1.9900   -3.6670 H         1 <0>         0.0713
     30 H8          1.1140    1.9057   -1.9779 H         1 <0>         0.1003
     31 H9          3.5422    2.6037   -2.3648 H         1 <0>         0.1009
     32 H10         3.2929    1.2553   -1.2267 H         1 <0>         0.0981
     33 H11         3.8733   -2.8926   -5.3561 H         1 <0>         0.1363
     34 H12         6.0460   -3.3939   -6.4254 H         1 <0>         0.1228
     35 H13         7.9641   -1.9264   -6.1434 H         1 <0>         0.1245
     36 H14         7.8309    0.1275   -4.7784 H         1 <0>         0.1287
     37 H15         6.7354    1.6664   -2.1383 H         1 <0>         0.0778
     38 H16         6.9818    2.1110   -3.8441 H         1 <0>         0.0888
     39 H17         5.6350    2.8238   -2.9242 H         1 <0>         0.0883
     40 H18         0.0368   -2.8816   -1.2024 H         1 <0>         0.4230
@<TRIPOS>BOND
     1    1    2 1
     2    1   23 1
     3    1   24 1
     4    1   25 1
     5    2    6 1
     6    2    3 2
     7    3    4 1
     8    3    7 1
     9    4    5 1
    10    4   40 1
    11    5    6 2
    12    5   26 1
    13    7    8 1
    14    7   27 1
    15    7   28 1
    16    8   21 am
    17    8    9 1
    18    9   10 1
    19    9   29 1
    20    9   30 1
    21   10   11 1
    22   10   31 1
    23   10   32 1
    24   11   19 1
    25   11   12 2
    26   12   13 1
    27   12   21 1
    28   13   18 ar
    29   13   14 ar
    30   14   15 ar
    31   14   33 1
    32   15   16 ar
    33   15   34 1
    34   16   17 ar
    35   16   35 1
    36   17   18 ar
    37   17   36 1
    38   18   19 1
    39   19   20 1
    40   20   37 1
    41   20   38 1
    42   20   39 1
    43   21   22 2
@<TRIPOS>MOLECULE
ZINC13537284
   40    43     0     0     0
SMALL
USER_CHARGES

@<TRIPOS>ATOM
      1 C1         -0.0184    1.5028    0.0103 C.3       1 <0>        -0.0814
      2 C2          0.0021   -0.0041    0.0020 C.2       1 <0>        -0.0178
      3 C3          0.0081   -0.8009   -1.0836 C.2       1 <0>        -0.0130
      4 N1          0.0272   -2.0745   -0.6635 N.2       1 <0>        -0.4675
      5 C4          0.0333   -2.0972    0.6413 C.2       1 <0>         0.1831
      6 N2          0.0241   -0.8258    1.0965 N.pl3     1 <0>        -0.5691
      7 C5         -0.0046   -0.3419   -2.5190 C.3       1 <0>         0.1961
      8 N3          1.3724   -0.1745   -2.9903 N.am      1 <0>        -0.6148
      9 C6          2.0196    1.1200   -2.8219 C.3       1 <0>         0.1242
     10 C7          3.4943    0.9956   -2.4385 C.3       1 <0>        -0.0729
     11 C8          4.1495   -0.0208   -3.3404 C.2       1 <0>         0.1159
     12 C9          3.4259   -1.0689   -3.8691 C.2       1 <0>        -0.2311
     13 C10         4.3411   -1.8450   -4.6801 C.ar      1 <0>        -0.0526
     14 C11         4.1922   -2.9993   -5.4499 C.ar      1 <0>        -0.0630
     15 C12         5.3184   -3.4664   -6.1041 C.ar      1 <0>        -0.1400
     16 C13         6.5410   -2.8242   -6.0050 C.ar      1 <0>        -0.1031
     17 C14         6.7116   -1.6783   -5.2476 C.ar      1 <0>        -0.1242
     18 C15         5.5937   -1.1868   -4.5780 C.ar      1 <0>         0.0806
     19 N4          5.4284   -0.0976   -3.7623 N.pl3     1 <0>        -0.4549
     20 C16         6.4881    0.8473   -3.4011 C.3       1 <0>         0.0690
     21 C17         1.9992   -1.2295   -3.5614 C.2       1 <0>         0.6001
     22 O1          1.4070   -2.2624   -3.8121 O.2       1 <0>        -0.5154
     23 H1          1.0042    1.8801    0.0026 H         1 <0>         0.0729
     24 H2         -0.5455    1.8639   -0.8728 H         1 <0>         0.0836
     25 H3         -0.5286    1.8543    0.9071 H         1 <0>         0.0675
     26 H4          0.0476   -2.9856    1.2553 H         1 <0>         0.2078
     27 H5         -0.5111   -1.0859   -3.1339 H         1 <0>         0.1009
     28 H6         -0.5317    0.6093   -2.5917 H         1 <0>         0.0891
     29 H7          1.9446    1.6755   -3.7567 H         1 <0>         0.0690
     30 H8          1.4987    1.6754   -2.0419 H         1 <0>         0.0906
     31 H9          3.9855    1.9611   -2.5591 H         1 <0>         0.0975
     32 H10         3.5756    0.6697   -1.4016 H         1 <0>         0.0932
     33 H11         3.2415   -3.5052   -5.5310 H         1 <0>         0.1379
     34 H12         5.2417   -4.3577   -6.7092 H         1 <0>         0.1225
     35 H13         7.3890   -3.2303   -6.5362 H         1 <0>         0.1235
     36 H14         7.6707   -1.1868   -5.1783 H         1 <0>         0.1273
     37 H15         6.9860    0.5053   -2.4938 H         1 <0>         0.0758
     38 H16         7.2131    0.9077   -4.2127 H         1 <0>         0.0879
     39 H17         6.0535    1.8318   -3.2281 H         1 <0>         0.0866
     40 H18         0.0299   -0.5470    2.0255 H         1 <0>         0.4184
@<TRIPOS>BOND
     1    1    2 1
     2    1   23 1
     3    1   24 1
     4    1   25 1
     5    2    6 1
     6    2    3 2
     7    3    4 1
     8    3    7 1
     9    4    5 2
    10    5    6 1
    11    5   26 1
    12    6   40 1
    13    7    8 1
    14    7   27 1
    15    7   28 1
    16    8   21 am
    17    8    9 1
    18    9   10 1
    19    9   29 1
    20    9   30 1
    21   10   11 1
    22   10   31 1
    23   10   32 1
    24   11   19 1
    25   11   12 2
    26   12   13 1
    27   12   21 1
    28   13   18 ar
    29   13   14 ar
    30   14   15 ar
    31   14   33 1
    32   15   16 ar
    33   15   34 1
    34   16   17 ar
    35   16   35 1
    36   17   18 ar
    37   17   36 1
    38   18   19 1
    39   19   20 1
    40   20   37 1
    41   20   38 1
    42   20   39 1
    43   21   22 2
@<TRIPOS>MOLECULE
ZINC13783311
   45    48     0     0     0
SMALL
USER_CHARGES

@<TRIPOS>ATOM
      1 C1         -0.1271    1.4586   -0.0425 C.3       1 <0>        -0.0399
      2 N1          0.0021   -0.0041    0.0020 N.4       1 <0>        -0.2795
      3 C2         -1.3242   -0.6405    0.2202 C.3       1 <0>         0.0403
      4 H1         -2.1006   -0.2009   -0.4059 H         1 <0>         0.1526
      5 C3         -1.6015   -0.4337    1.7270 C.3       1 <0>        -0.1464
      6 C4         -0.2062   -0.2909    2.3698 C.3       1 <0>        -0.1460
      7 C5          0.7875   -0.4244    1.1929 C.3       1 <0>         0.0410
      8 H2          1.6793    0.1858    1.3352 H         1 <0>         0.1565
      9 C6          1.1136   -1.9165    1.0199 C.3       1 <0>        -0.1468
     10 C7         -0.1937   -2.7140    1.0289 C.3       1 <0>         0.0785
     11 C8         -1.1551   -2.1462   -0.0387 C.3       1 <0>        -0.1687
     12 O1          0.0833   -4.0841    0.7319 O.3       1 <0>        -0.3448
     13 C9         -0.7385   -5.0061    1.2731 C.2       1 <0>         0.5453
     14 O2         -1.6652   -4.6554    1.9781 O.2       1 <0>        -0.5048
     15 C10        -0.5146   -6.4324    1.0113 C.2       1 <0>        -0.2388
     16 C11         0.4792   -6.9775    0.2512 C.2       1 <0>         0.1528
     17 N2          0.3622   -8.3264    0.2432 N.pl3     1 <0>        -0.5702
     18 H3          0.9557   -8.9304   -0.2299 H         1 <0>         0.4269
     19 C12        -0.7201   -8.7210    1.0028 C.ar      1 <0>         0.0806
     20 C13        -1.3152   -7.5604    1.5229 C.ar      1 <0>        -0.0590
     21 C14        -2.4381   -7.6574    2.3401 C.ar      1 <0>        -0.0751
     22 C15        -2.9597   -8.8976    2.6382 C.ar      1 <0>        -0.1265
     23 C16        -2.3711  -10.0453    2.1281 C.ar      1 <0>        -0.0946
     24 C17        -1.2638   -9.9632    1.3118 C.ar      1 <0>        -0.1182
     25 C18         0.6235   -0.5058   -1.2309 C.3       1 <0>        -0.0575
     26 H4          0.8638    1.9094   -0.0961 H         1 <0>         0.1211
     27 H5         -0.7049    1.7457   -0.9210 H         1 <0>         0.1209
     28 H6         -0.6361    1.8059    0.8567 H         1 <0>         0.1211
     29 H7         -2.1861    0.4727    1.8842 H         1 <0>         0.1025
     30 H8         -2.1223   -1.2981    2.1390 H         1 <0>         0.1163
     31 H9         -0.1047    0.6858    2.8429 H         1 <0>         0.1030
     32 H10        -0.0408   -1.0850    3.0978 H         1 <0>         0.1131
     33 H11         1.6285   -2.0702    0.0716 H         1 <0>         0.1054
     34 H12         1.7495   -2.2487    1.8406 H         1 <0>         0.1202
     35 H13        -0.6547   -2.6434    2.0141 H         1 <0>         0.1074
     36 H14        -2.1225   -2.6416    0.0432 H         1 <0>         0.1167
     37 H15        -0.7469   -2.3013   -1.0375 H         1 <0>         0.1042
     38 H16         1.2437   -6.4171   -0.2665 H         1 <0>         0.1879
     39 H17        -2.8979   -6.7652    2.7388 H         1 <0>         0.1323
     40 H18        -3.8305   -8.9763    3.2722 H         1 <0>         0.1309
     41 H19        -2.7879  -11.0122    2.3684 H         1 <0>         0.1338
     42 H20        -0.8122  -10.8632    0.9213 H         1 <0>         0.1282
     43 H21         1.6154   -0.0677   -1.3421 H         1 <0>         0.1231
     44 H22         0.7094   -1.5911   -1.1789 H         1 <0>         0.1319
     45 H23         0.0069   -0.2307   -2.0866 H         1 <0>         0.1223
@<TRIPOS>BOND
     1    1    2 1
     2    1   26 1
     3    1   27 1
     4    1   28 1
     5    2    7 1
     6    2    3 1
     7    2   25 1
     8    3    4 1
     9    3   11 1
    10    3    5 1
    11    5    6 1
    12    5   29 1
    13    5   30 1
    14    6    7 1
    15    6   31 1
    16    6   32 1
    17    7    8 1
    18    7    9 1
    19    9   10 1
    20    9   33 1
    21    9   34 1
    22   10   11 1
    23   10   12 1
    24   10   35 1
    25   11   36 1
    26   11   37 1
    27   12   13 1
    28   13   14 2
    29   13   15 1
    30   15   20 1
    31   15   16 2
    32   16   17 1
    33   16   38 1
    34   17   18 1
    35   17   19 1
    36   19   24 ar
    37   19   20 ar
    38   20   21 ar
    39   21   22 ar
    40   21   39 1
    41   22   23 ar
    42   22   40 1
    43   23   24 ar
    44   23   41 1
    45   24   42 1
    46   25   43 1
    47   25   44 1
    48   25   45 1
@<TRIPOS>MOLECULE
ZINC00066019
   27    28     0     0     0
SMALL
USER_CHARGES
1-(4-chlorophenyl)piperazine
@<TRIPOS>ATOM
      1 C1         -0.0167    1.3769    0.0096 C.ar      1 <0>        -0.1162
      2 C2          0.0021   -0.0041    0.0020 C.ar      1 <0>        -0.0828
      3 C3          1.2090   -0.6809   -0.0127 C.ar      1 <0>        -0.0444
      4 C4          2.4001    0.0234   -0.0203 C.ar      1 <0>        -0.0820
      5 C5          2.3873    1.4044   -0.0132 C.ar      1 <0>        -0.1507
      6 C6          1.1774    2.0864    0.0020 C.ar      1 <0>         0.0888
      7 N1          1.1615    3.4837    0.0092 N.pl3     1 <0>        -0.4869
      8 C7          0.4030    3.9958    1.1590 C.3       1 <0>         0.0233
      9 C8          0.3419    5.5234    1.0870 C.3       1 <0>         0.0009
     10 C9          2.4662    5.5536   -0.0729 C.3       1 <0>         0.0013
     11 C10         2.5273    4.0260   -0.0008 C.3       1 <0>         0.0173
     12 Cl1         1.2288   -2.4168   -0.0210 Cl        1 <0>        -0.0516
     13 H1         -0.9589    1.9046    0.0170 H         1 <0>         0.1377
     14 H2         -0.9261   -0.5562    0.0079 H         1 <0>         0.1434
     15 H3          3.3406   -0.5074   -0.0314 H         1 <0>         0.1413
     16 H4          3.3173    1.9536   -0.0195 H         1 <0>         0.1361
     17 H5         -0.6084    3.5900    1.1374 H         1 <0>         0.1290
     18 H6          0.8962    3.6947    2.0833 H         1 <0>         0.0713
     19 H7         -0.1954    5.9072    1.9543 H         1 <0>         0.1423
     20 H8         -0.1754    5.8241    0.1760 H         1 <0>         0.1412
     21 H9          3.4776    5.9594   -0.0512 H         1 <0>         0.1424
     22 H10         1.9733    5.8546   -0.9973 H         1 <0>         0.1411
     23 H11         3.0446    3.7253    0.9102 H         1 <0>         0.0733
     24 H12         3.0646    3.6422   -0.8681 H         1 <0>         0.1305
     25 N2          1.7113    6.0719    1.0838 N.4       1 <0>        -0.5192
     26 H13         2.1884    5.7975    1.9505 H         1 <0>         0.4317
     27 H14         1.6660    7.0962    1.0275 H         1 <0>         0.4410
@<TRIPOS>BOND
     1    1    6 ar
     2    1    2 ar
     3    1   13 1
     4    2    3 ar
     5    2   14 1
     6    3    4 ar
     7    3   12 1
     8    4    5 ar
     9    4   15 1
    10    5    6 ar
    11    5   16 1
    12    6    7 1
    13    7   11 1
    14    7    8 1
    15    8    9 1
    16    8   17 1
    17    8   18 1
    18    9   19 1
    19    9   20 1
    20    9   25 1
    21   10   11 1
    22   10   21 1
    23   10   22 1
    24   10   25 1
    25   11   23 1
    26   11   24 1
    27   25   26 1
    28   25   27 1
@<TRIPOS>MOLECULE
ZINC01891034
   52    54     0     0     0
SMALL
USER_CHARGES
4-amino-5-chloro-N-[1-(3-methoxypropyl)-4-piperidyl]-2,3-dihydrobenzofuran-7-carboxamide
@<TRIPOS>ATOM
      1 C1        -12.4725   10.4856   -3.8561 C.3       1 <0>         0.0299
      2 O1        -11.3062    9.6841   -3.6581 O.3       1 <0>        -0.3898
      3 C2        -10.7641    9.7629   -2.3382 C.3       1 <0>         0.0622
      4 C3         -9.5254    8.8699   -2.2415 C.3       1 <0>        -0.1536
      5 C4         -8.9450    8.9543   -0.8284 C.3       1 <0>        -0.0008
      6 C5         -7.3099    7.9646    0.6573 C.3       1 <0>         0.0054
      7 C6         -5.9914    7.1888    0.7008 C.3       1 <0>        -0.1579
      8 C7         -6.1981    5.8054    0.0778 C.3       1 <0>         0.1389
      9 C8         -6.7086    5.9712   -1.3562 C.3       1 <0>        -0.1618
     10 C9         -8.0063    6.7823   -1.3400 C.3       1 <0>        -0.0072
     11 N1         -4.9256    5.0797    0.0637 N.am      1 <0>        -0.7339
     12 C10        -4.9184    3.7321    0.0499 C.2       1 <0>         0.5763
     13 O2         -5.9685    3.1183    0.0492 O.2       1 <0>        -0.5193
     14 C11        -3.6396    3.0028    0.0357 C.ar      1 <0>        -0.2248
     15 C12        -2.4333    3.7085    0.0360 C.ar      1 <0>         0.0073
     16 C13        -1.2425    3.0406    0.0303 C.ar      1 <0>        -0.1506
     17 C14        -1.2252    1.6450    0.0168 C.ar      1 <0>         0.3155
     18 C15        -2.4141    0.9350    0.0186 C.ar      1 <0>        -0.2680
     19 C16        -3.6327    1.5944    0.0213 C.ar      1 <0>         0.2347
     20 O3         -4.6700    0.7169    0.0055 O.3       1 <0>        -0.2728
     21 C17        -4.2054   -0.5740    0.4360 C.3       1 <0>         0.0473
     22 C18        -2.7127   -0.5517    0.0294 C.3       1 <0>        -0.0981
     23 N2         -0.0111    0.9658    0.0074 N.pl3     1 <0>        -0.8485
     24 Cl1         0.2501    3.9272    0.0330 Cl        1 <0>        -0.0543
     25 H1        -12.2303   11.5319   -3.6699 H         1 <0>         0.0478
     26 H2        -12.8224   10.3707   -4.8820 H         1 <0>         0.0957
     27 H3        -13.2546   10.1656   -3.1675 H         1 <0>         0.0480
     28 H4        -11.5106    9.4278   -1.6182 H         1 <0>         0.0597
     29 H5        -10.4864   10.7942   -2.1205 H         1 <0>         0.0593
     30 H6         -8.7789    9.2049   -2.9616 H         1 <0>         0.0955
     31 H7         -9.8031    7.8386   -2.4593 H         1 <0>         0.0990
     32 H8         -9.6916    8.6193   -0.1083 H         1 <0>         0.1339
     33 H9         -8.6673    9.9856   -0.6107 H         1 <0>         0.1319
     34 H10        -8.0657    7.4286    1.2313 H         1 <0>         0.1346
     35 H11        -7.1626    8.9554    1.0872 H         1 <0>         0.1350
     36 H12        -5.6688    7.0772    1.7359 H         1 <0>         0.1204
     37 H13        -5.2308    7.7309    0.1389 H         1 <0>         0.0948
     38 H14        -6.9290    5.2477    0.6634 H         1 <0>         0.1059
     39 H15        -5.9598    6.4944   -1.9509 H         1 <0>         0.0906
     40 H16        -6.8983    4.9897   -1.7907 H         1 <0>         0.1184
     41 H17        -8.7589    6.2518   -0.7567 H         1 <0>         0.1347
     42 H18        -8.3648    6.9143   -2.3609 H         1 <0>         0.1376
     43 H19        -4.0881    5.5692    0.0642 H         1 <0>         0.4029
     44 H20        -2.4431    4.7884    0.0451 H         1 <0>         0.1402
     45 H21        -4.3102   -0.6821    1.5156 H         1 <0>         0.0851
     46 H22        -4.7387   -1.3698   -0.0840 H         1 <0>         0.1154
     47 H23        -2.5722   -0.9846   -0.9610 H         1 <0>         0.0928
     48 H24        -2.0997   -1.0670    0.7688 H         1 <0>         0.0928
     49 H25         0.0021   -0.0041    0.0020 H         1 <0>         0.4091
     50 H26         0.8223    1.4622    0.0021 H         1 <0>         0.4089
     51 N3         -7.7343    8.1109   -0.7511 N.4       1 <0>        -0.3942
     52 H27        -6.9795    8.5619   -1.2812 H         1 <0>         0.4282
@<TRIPOS>BOND
     1    1    2 1
     2    1   25 1
     3    1   26 1
     4    1   27 1
     5    2    3 1
     6    3    4 1
     7    3   28 1
     8    3   29 1
     9    4    5 1
    10    4   30 1
    11    4   31 1
    12    5   32 1
    13    5   33 1
    14    5   51 1
    15    6    7 1
    16    6   34 1
    17    6   35 1
    18    6   51 1
    19    7    8 1
    20    7   36 1
    21    7   37 1
    22    8    9 1
    23    8   11 1
    24    8   38 1
    25    9   10 1
    26    9   39 1
    27    9   40 1
    28   10   41 1
    29   10   42 1
    30   10   51 1
    31   11   12 am
    32   11   43 1
    33   12   13 2
    34   12   14 1
    35   14   19 ar
    36   14   15 ar
    37   15   16 ar
    38   15   44 1
    39   16   17 ar
    40   16   24 1
    41   17   18 ar
    42   17   23 1
    43   18   22 1
    44   18   19 ar
    45   19   20 1
    46   20   21 1
    47   21   22 1
    48   21   45 1
    49   21   46 1
    50   22   47 1
    51   22   48 1
    52   23   49 1
    53   23   50 1
    54   51   52 1
@<TRIPOS>MOLECULE
ZINC03795819
   47    51     0     0     0
SMALL
USER_CHARGES
quinuclidin-3-ylBLAHone
@<TRIPOS>ATOM
      1 C1          1.2066    1.7813   -0.0933 C.ar      1 <0>        -0.1208
      2 C2          0.0187    1.0812   -0.0331 C.ar      1 <0>        -0.0858
      3 C3         -1.2034    1.7454    0.0271 C.ar      1 <0>        -0.0754
      4 C4         -1.2219    3.1204    0.0245 C.ar      1 <0>        -0.0469
      5 C5         -0.0211    3.8359   -0.0491 C.ar      1 <0>        -0.1443
      6 C6          1.1958    3.1611   -0.0968 C.ar      1 <0>        -0.0545
      7 C7         -0.0612    5.3137   -0.0597 C.2       1 <0>         0.5749
      8 O1          0.9492    5.9549    0.1532 O.2       1 <0>        -0.5148
      9 N1         -1.2247    5.9442   -0.3074 N.am      1 <0>        -0.6144
     10 C8         -2.4090    5.1843   -0.7053 C.3       1 <0>         0.1085
     11 C9         -2.5138    3.8918    0.1005 C.3       1 <0>        -0.0672
     12 H1         -2.7286    4.1307    1.1421 H         1 <0>         0.0933
     13 C10        -3.6442    3.0294   -0.4671 C.3       1 <0>        -0.1109
     14 C11        -3.7099    1.7255    0.3057 C.3       1 <0>        -0.1198
     15 C12        -2.4461    0.9084    0.1134 C.3       1 <0>        -0.0858
     16 C13        -1.3049    7.4012   -0.1769 C.3       1 <0>         0.1345
     17 H2         -0.3793    7.7806    0.2558 H         1 <0>         0.1368
     18 C14        -2.4858    7.7714    0.7251 C.3       1 <0>        -0.0181
     19 C15        -2.8051    9.8614   -0.4575 C.3       1 <0>        -0.0017
     20 C16        -1.6331    9.5506   -1.3928 C.3       1 <0>        -0.1348
     21 C17        -1.5217    8.0298   -1.5591 C.3       1 <0>        -0.1099
     22 C18        -2.8422    7.5026   -2.1347 C.3       1 <0>        -0.1584
     23 C19        -3.9804    7.8708   -1.1788 C.3       1 <0>        -0.0070
     24 H3          2.1451    1.2489   -0.1373 H         1 <0>         0.1367
     25 H4          0.0372    0.0014   -0.0372 H         1 <0>         0.1322
     26 H5          2.1234    3.7129   -0.1358 H         1 <0>         0.1383
     27 H6         -3.2990    5.7891   -0.5319 H         1 <0>         0.0821
     28 H7         -2.3409    4.9421   -1.7658 H         1 <0>         0.0842
     29 H8         -4.5915    3.5605   -0.3739 H         1 <0>         0.0739
     30 H9         -3.4461    2.8111   -1.5165 H         1 <0>         0.0740
     31 H10        -4.5672    1.1446   -0.0343 H         1 <0>         0.0786
     32 H11        -3.8301    1.9554    1.3643 H         1 <0>         0.0653
     33 H12        -2.5412    0.3283   -0.8045 H         1 <0>         0.0814
     34 H13        -2.3452    0.2183    0.9511 H         1 <0>         0.0831
     35 H14        -2.9867    6.8629    1.0596 H         1 <0>         0.1336
     36 H15        -2.1227    8.3263    1.5901 H         1 <0>         0.1410
     37 H16        -2.4400   10.4017    0.4159 H         1 <0>         0.1310
     38 H17        -3.5381   10.4728   -0.9837 H         1 <0>         0.1314
     39 H18        -0.7100    9.9396   -0.9631 H         1 <0>         0.1040
     40 H19        -1.8066   10.0126   -2.3647 H         1 <0>         0.1059
     41 H20        -0.6882    7.7848   -2.2173 H         1 <0>         0.1203
     42 H21        -3.0227    7.9561   -3.1093 H         1 <0>         0.1053
     43 H22        -2.7885    6.4189   -2.2384 H         1 <0>         0.1121
     44 H23        -4.4712    6.9620   -0.8305 H         1 <0>         0.1276
     45 H24        -4.7037    8.4986   -1.6993 H         1 <0>         0.1344
     46 N2         -3.4553    8.6106   -0.0116 N.4       1 <0>        -0.3894
     47 H25        -4.2356    8.8449    0.6133 H         1 <0>         0.4355
@<TRIPOS>BOND
     1    1    6 ar
     2    1    2 ar
     3    1   24 1
     4    2    3 ar
     5    2   25 1
     6    3   15 1
     7    3    4 ar
     8    4   11 1
     9    4    5 ar
    10    5    6 ar
    11    5    7 1
    12    6   26 1
    13    7    8 2
    14    7    9 am
    15    9   10 1
    16    9   16 1
    17   10   11 1
    18   10   27 1
    19   10   28 1
    20   11   12 1
    21   11   13 1
    22   13   14 1
    23   13   29 1
    24   13   30 1
    25   14   15 1
    26   14   31 1
    27   14   32 1
    28   15   33 1
    29   15   34 1
    30   16   17 1
    31   16   21 1
    32   16   18 1
    33   18   35 1
    34   18   36 1
    35   18   46 1
    36   19   20 1
    37   19   37 1
    38   19   38 1
    39   19   46 1
    40   20   21 1
    41   20   39 1
    42   20   40 1
    43   21   22 1
    44   21   41 1
    45   22   23 1
    46   22   42 1
    47   22   43 1
    48   23   44 1
    49   23   45 1
    50   23   46 1
    51   46   47 1
@<TRIPOS>MOLECULE
ZINC02022527
   54    55     0     0     0
SMALL
USER_CHARGES

@<TRIPOS>ATOM
      1 C1         -3.0730    2.2881   -4.2693 C.3       1 <0>        -0.1569
      2 C2         -2.3049    1.5870   -3.1471 C.3       1 <0>        -0.1270
      3 C3         -2.8110    2.0874   -1.7927 C.3       1 <0>        -0.1231
      4 C4         -2.0429    1.3862   -0.6705 C.3       1 <0>        -0.1174
      5 C5         -2.5490    1.8867    0.6839 C.3       1 <0>        -0.1006
      6 C6         -2.2117    3.3722    0.8391 C.3       1 <0>        -0.1451
      7 C7         -2.6658    3.8518    2.2196 C.3       1 <0>        -0.0114
      8 C8         -2.3347    1.6429    3.1595 C.3       1 <0>        -0.0001
      9 C9         -1.8707    1.0973    1.8070 C.3       1 <0>        -0.1442
     10 C10        -2.2939    3.5901    4.5974 C.3       1 <0>        -0.0052
     11 C11        -2.1583    5.1140    4.5919 C.3       1 <0>        -0.1459
     12 C12        -2.4764    5.6593    5.9856 C.3       1 <0>        -0.1543
     13 C13        -2.3428    7.1604    5.9803 C.2       1 <0>         0.3987
     14 O1         -2.0245    7.7371    4.9623 O.2       1 <0>        -0.4456
     15 C14        -2.5986    7.9263    7.2106 C.ar      1 <0>        -0.1885
     16 C15        -3.0878    7.2813    8.3513 C.ar      1 <0>        -0.0705
     17 C16        -3.3195    8.0047    9.5018 C.ar      1 <0>        -0.1389
     18 C17        -3.0801    9.3679    9.5265 C.ar      1 <0>        -0.0729
     19 C18        -2.6016   10.0143    8.4004 C.ar      1 <0>        -0.1345
     20 C19        -2.3594    9.3036    7.2436 C.ar      1 <0>        -0.0178
     21 C20        -1.8387   10.0095    6.0182 C.3       1 <0>        -0.1264
     22 H1         -4.1363    2.0676   -4.1746 H         1 <0>         0.0549
     23 H2         -2.9175    3.3647   -4.1985 H         1 <0>         0.0540
     24 H3         -2.7125    1.9316   -5.2342 H         1 <0>         0.0581
     25 H4         -1.2417    1.8075   -3.2417 H         1 <0>         0.0621
     26 H5         -2.4605    0.5104   -3.2179 H         1 <0>         0.0631
     27 H6         -3.8743    1.8669   -1.6981 H         1 <0>         0.0644
     28 H7         -2.6555    3.1639   -1.7219 H         1 <0>         0.0632
     29 H8         -2.1984    0.3097   -0.7413 H         1 <0>         0.0733
     30 H9         -0.9796    1.6067   -0.7651 H         1 <0>         0.0688
     31 H10        -3.6287    1.7492    0.7427 H         1 <0>         0.0884
     32 H11        -1.1354    3.5132    0.7407 H         1 <0>         0.0881
     33 H12        -2.7264    3.9447    0.0675 H         1 <0>         0.1133
     34 H13        -3.7442    3.7233    2.3122 H         1 <0>         0.1295
     35 H14        -2.4142    4.9057    2.3388 H         1 <0>         0.1342
     36 H15        -3.4146    1.5248    3.2476 H         1 <0>         0.1293
     37 H16        -1.8426    1.0924    3.9613 H         1 <0>         0.1282
     38 H17        -2.1418    0.0446    1.7270 H         1 <0>         0.1118
     39 H18        -0.7890    1.2025    1.7239 H         1 <0>         0.0880
     40 H19        -3.3133    3.3170    4.8704 H         1 <0>         0.1315
     41 H20        -1.5979    3.1659    5.3211 H         1 <0>         0.1302
     42 H21        -1.1389    5.3871    4.3190 H         1 <0>         0.0944
     43 H22        -2.8542    5.5382    3.8682 H         1 <0>         0.0968
     44 H23        -3.4115    5.4088    6.2361 H         1 <0>         0.0981
     45 H24        -1.7805    5.2352    6.7093 H         1 <0>         0.1100
     46 H25        -3.2793    6.2186    8.3321 H         1 <0>         0.1290
     47 H26        -3.6933    7.5074   10.3846 H         1 <0>         0.1322
     48 H27        -3.2682    9.9300   10.4293 H         1 <0>         0.1326
     49 H28        -2.4176   11.0782    8.4274 H         1 <0>         0.1332
     50 H29        -2.6709   10.2515    5.3572 H         1 <0>         0.0784
     51 H30        -1.3321   10.9277    6.3156 H         1 <0>         0.0652
     52 H31        -1.1365    9.3600    5.4956 H         1 <0>         0.0893
     53 N1         -1.9588    3.0696    3.2558 N.4       1 <0>        -0.3931
     54 H32        -0.9467    3.1581    3.1071 H         1 <0>         0.4272
@<TRIPOS>BOND
     1    1    2 1
     2    1   22 1
     3    1   23 1
     4    1   24 1
     5    2    3 1
     6    2   25 1
     7    2   26 1
     8    3    4 1
     9    3   27 1
    10    3   28 1
    11    4    5 1
    12    4   29 1
    13    4   30 1
    14    5    9 1
    15    5    6 1
    16    5   31 1
    17    6    7 1
    18    6   32 1
    19    6   33 1
    20    7   34 1
    21    7   35 1
    22    7   53 1
    23    8    9 1
    24    8   36 1
    25    8   37 1
    26    8   53 1
    27    9   38 1
    28    9   39 1
    29   10   11 1
    30   10   40 1
    31   10   41 1
    32   10   53 1
    33   11   12 1
    34   11   42 1
    35   11   43 1
    36   12   13 1
    37   12   44 1
    38   12   45 1
    39   13   14 2
    40   13   15 1
    41   15   20 ar
    42   15   16 ar
    43   16   17 ar
    44   16   46 1
    45   17   18 ar
    46   17   47 1
    47   18   19 ar
    48   18   48 1
    49   19   20 ar
    50   19   49 1
    51   20   21 1
    52   21   50 1
    53   21   51 1
    54   21   52 1
    55   53   54 1
@<TRIPOS>MOLECULE
ZINC43172197
   65    69     0     0     0
SMALL
USER_CHARGES

@<TRIPOS>ATOM
      1 C1         -0.0286    1.3393   -0.2252 C.ar      1 <0>        -0.1263
      2 C2          1.1459    2.0527   -0.4528 C.ar      1 <0>        -0.0786
      3 C3          2.3554    1.4279   -0.4646 C.ar      1 <0>        -0.1141
      4 C4          2.4267    0.0417   -0.2440 C.ar      1 <0>         0.1749
      5 C5          1.2312   -0.6814   -0.0123 C.ar      1 <0>        -0.1379
      6 C6          0.0015   -0.0049   -0.0076 C.ar      1 <0>        -0.0808
      7 C7          1.3022   -2.0719    0.2091 C.ar      1 <0>        -0.0101
      8 C8          2.5277   -2.6669    0.1908 C.ar      1 <0>        -0.2219
      9 C9          3.6751   -1.8960   -0.0441 C.ar      1 <0>         0.4164
     10 N1          3.6022   -0.5969   -0.2499 N.ar      1 <0>        -0.5364
     11 N2          4.9157   -2.5156   -0.0597 N.pl3     1 <0>        -0.6257
     12 C10         6.1561   -1.7247   -0.0617 C.3       1 <0>         0.1039
     13 C11         7.0550   -2.2339   -1.1933 C.3       1 <0>        -0.0206
     14 N3          7.2586   -3.6802   -1.0422 N.4       1 <0>        -0.3833
     15 C12         5.9807   -4.3848   -1.2054 C.3       1 <0>        -0.0267
     16 C13         5.0286   -3.9823   -0.0687 C.3       1 <0>         0.1029
     17 C14         8.2075   -4.1484   -2.0613 C.3       1 <0>        -0.0096
     18 C15         8.5167   -5.6286   -1.8285 C.3       1 <0>        -0.1518
     19 C16         9.5049   -6.1163   -2.8898 C.3       1 <0>        -0.1004
     20 C17         9.8142   -7.5965   -2.6570 C.3       1 <0>        -0.0665
     21 C18        10.7876   -8.0768   -3.7024 C.2       1 <0>         0.3883
     22 N4         11.2199   -7.2407   -4.6041 N.2       1 <0>        -0.5267
     23 C19        12.0886   -7.6100   -5.5588 C.2       1 <0>         0.1766
     24 C20        12.5410   -8.8863   -5.5890 C.2       1 <0>        -0.2302
     25 C21        12.0683   -9.7969   -4.6145 C.2       1 <0>         0.5018
     26 O1         12.4462  -10.9567   -4.6149 O.2       1 <0>        -0.5281
     27 N5         11.1974   -9.3604   -3.6824 N.am      1 <0>        -0.3603
     28 N6         10.7293  -10.2158   -2.7257 N.3       1 <0>        -0.6050
     29 C22        13.5308   -9.3829   -6.6065 C.3       1 <0>        -0.0570
     30 C23        13.5949   -8.4333   -7.8017 C.3       1 <0>        -0.1220
     31 C24        13.7948   -7.0072   -7.2746 C.3       1 <0>        -0.1228
     32 C25        12.5148   -6.5724   -6.5633 C.3       1 <0>        -0.0691
     33 H1         -0.9750    1.8595   -0.2168 H         1 <0>         0.1319
     34 H2          1.0963    3.1180   -0.6228 H         1 <0>         0.1338
     35 H3          3.2568    1.9953   -0.6433 H         1 <0>         0.1347
     36 H4         -0.9158   -0.5472    0.1681 H         1 <0>         0.1329
     37 H5          0.4081   -2.6505    0.3889 H         1 <0>         0.1459
     38 H6          2.6152   -3.7304    0.3574 H         1 <0>         0.1363
     39 H7          5.9200   -0.6734   -0.2263 H         1 <0>         0.1390
     40 H8          6.6674   -1.8431    0.8937 H         1 <0>         0.0867
     41 H9          6.5802   -2.0320   -2.1534 H         1 <0>         0.1327
     42 H10         8.0179   -1.7249   -1.1496 H         1 <0>         0.1417
     43 H11         5.5384   -4.1179   -2.1652 H         1 <0>         0.1337
     44 H12         6.1519   -5.4608   -1.1707 H         1 <0>         0.1443
     45 H13         5.4280   -4.3247    0.8860 H         1 <0>         0.0939
     46 H14         4.0467   -4.4242   -0.2380 H         1 <0>         0.1277
     47 H15         7.7700   -4.0200   -3.0514 H         1 <0>         0.1314
     48 H16         9.1286   -3.5697   -1.9932 H         1 <0>         0.1343
     49 H17         8.9541   -5.7571   -0.8384 H         1 <0>         0.0888
     50 H18         7.5955   -6.2073   -1.8966 H         1 <0>         0.0887
     51 H19         9.0675   -5.9878   -3.8799 H         1 <0>         0.0879
     52 H20        10.4261   -5.5376   -2.8217 H         1 <0>         0.0869
     53 H21        10.2516   -7.7249   -1.6669 H         1 <0>         0.0970
     54 H22         8.8930   -8.1752   -2.7251 H         1 <0>         0.1094
     55 H23        11.1245  -11.1372   -2.8399 H         1 <0>         0.3897
     56 H24        10.9101   -9.8570   -1.8002 H         1 <0>         0.3573
     57 H25        14.5168   -9.4487   -6.1464 H         1 <0>         0.0780
     58 H26        13.2281  -10.3723   -6.9494 H         1 <0>         0.0820
     59 H27        14.4313   -8.7078   -8.4445 H         1 <0>         0.0780
     60 H28        12.6638   -8.4893   -8.3657 H         1 <0>         0.0684
     61 H29        14.6289   -6.9887   -6.5732 H         1 <0>         0.0695
     62 H30        13.9992   -6.3336   -8.1068 H         1 <0>         0.0799
     63 H31        11.7223   -6.4381   -7.2996 H         1 <0>         0.0922
     64 H32        12.6920   -5.6271   -6.0505 H         1 <0>         0.0900
     65 H33         7.6323   -3.8721   -0.1248 H         1 <0>         0.4223
@<TRIPOS>BOND
     1    1    6 ar
     2    1    2 ar
     3    1   33 1
     4    2    3 ar
     5    2   34 1
     6    3    4 ar
     7    3   35 1
     8    4   10 ar
     9    4    5 ar
    10    5    6 ar
    11    5    7 ar
    12    6   36 1
    13    7    8 ar
    14    7   37 1
    15    8    9 ar
    16    8   38 1
    17    9   10 ar
    18    9   11 1
    19   11   16 1
    20   11   12 1
    21   12   13 1
    22   12   39 1
    23   12   40 1
    24   13   14 1
    25   13   41 1
    26   13   42 1
    27   14   15 1
    28   14   17 1
    29   14   65 1
    30   15   16 1
    31   15   43 1
    32   15   44 1
    33   16   45 1
    34   16   46 1
    35   17   18 1
    36   17   47 1
    37   17   48 1
    38   18   19 1
    39   18   49 1
    40   18   50 1
    41   19   20 1
    42   19   51 1
    43   19   52 1
    44   20   21 1
    45   20   53 1
    46   20   54 1
    47   21   27 1
    48   21   22 2
    49   22   23 1
    50   23   32 1
    51   23   24 2
    52   24   25 1
    53   24   29 1
    54   25   26 2
    55   25   27 am
    56   27   28 1
    57   28   55 1
    58   28   56 1
    59   29   30 1
    60   29   57 1
    61   29   58 1
    62   30   31 1
    63   30   59 1
    64   30   60 1
    65   31   32 1
    66   31   61 1
    67   31   62 1
    68   32   63 1
    69   32   64 1
@<TRIPOS>MOLECULE
ZINC43172197
   66    70     0     0     0
SMALL
USER_CHARGES

@<TRIPOS>ATOM
      1 C1         -1.1440   -0.8993   -0.0171 C.ar      1 <0>        -0.1033
      2 C2         -1.0157   -2.2859   -0.0512 C.ar      1 <0>        -0.0204
      3 C3          0.2105   -2.8771   -0.0661 C.ar      1 <0>        -0.1497
      4 C4          1.3688   -2.0814   -0.0474 C.ar      1 <0>         0.1557
      5 C5          1.2360   -0.6719   -0.0132 C.ar      1 <0>        -0.1140
      6 C6         -0.0440   -0.0963    0.0018 C.ar      1 <0>        -0.0476
      7 C7          2.3976    0.1267    0.0055 C.ar      1 <0>         0.0854
      8 C8          3.6094   -0.4958   -0.0102 C.ar      1 <0>        -0.2269
      9 C9          3.6751   -1.8960   -0.0441 C.ar      1 <0>         0.4969
     10 N1          2.5859   -2.6367   -0.0619 N.ar      1 <0>        -0.5138
     11 N2          4.9157   -2.5156   -0.0597 N.pl3     1 <0>        -0.6162
     12 C10         6.1531   -1.7280   -0.1716 C.3       1 <0>         0.0894
     13 C11         7.0086   -2.3243   -1.2943 C.3       1 <0>        -0.0234
     14 N3          7.2215   -3.7546   -1.0390 N.4       1 <0>        -0.3866
     15 C12         5.9400   -4.4691   -1.0968 C.3       1 <0>        -0.0271
     16 C13         5.0319   -3.9786    0.0413 C.3       1 <0>         0.0772
     17 C14         8.1312   -4.3013   -2.0547 C.3       1 <0>        -0.0113
     18 C15         8.4530   -5.7590   -1.7194 C.3       1 <0>        -0.1526
     19 C16         9.4004   -6.3285   -2.7773 C.3       1 <0>        -0.1013
     20 C17         9.7222   -7.7862   -2.4420 C.3       1 <0>        -0.0650
     21 C18        10.6553   -8.3471   -3.4839 C.2       1 <0>         0.3838
     22 N4         11.0501   -7.5841   -4.4642 N.2       1 <0>        -0.5277
     23 C19        11.8820   -8.0272   -5.4203 C.2       1 <0>         0.1728
     24 C20        12.3360   -9.3022   -5.3686 C.2       1 <0>        -0.2233
     25 C21        11.9039  -10.1338   -4.3084 C.2       1 <0>         0.5008
     26 O1         12.2844  -11.2903   -4.2331 O.2       1 <0>        -0.5229
     27 N5         11.0688   -9.6254   -3.3799 N.am      1 <0>        -0.3604
     28 N6         10.6405  -10.4034   -2.3420 N.3       1 <0>        -0.6058
     29 C22        13.2868   -9.8772   -6.3821 C.3       1 <0>        -0.0594
     30 C23        13.3020   -9.0237   -7.6493 C.3       1 <0>        -0.1222
     31 C24        13.5186   -7.5610   -7.2431 C.3       1 <0>        -0.1237
     32 C25        12.2662   -7.0713   -6.5185 C.3       1 <0>        -0.0677
     33 H1         -2.1283   -0.4551   -0.0100 H         1 <0>         0.1575
     34 H2         -1.9029   -2.9016   -0.0656 H         1 <0>         0.1592
     35 H3          0.2928   -3.9536   -0.0918 H         1 <0>         0.1535
     36 H4         -0.1561    0.9776    0.0279 H         1 <0>         0.1626
     37 H5          2.3287    1.2042    0.0312 H         1 <0>         0.1843
     38 H6          4.5178    0.0882    0.0031 H         1 <0>         0.1823
     39 H7          5.9082   -0.6926   -0.4084 H         1 <0>         0.1453
     40 H8          6.7015   -1.7717    0.7694 H         1 <0>         0.1213
     41 H9          6.4963   -2.1977   -2.2480 H         1 <0>         0.1414
     42 H10         7.9711   -1.8139   -1.3280 H         1 <0>         0.1613
     43 H11         5.4601   -4.2775   -2.0565 H         1 <0>         0.1416
     44 H12         6.1151   -5.5391   -0.9850 H         1 <0>         0.1605
     45 H13         5.4689   -4.2457    1.0034 H         1 <0>         0.1263
     46 H14         4.0452   -4.4318   -0.0547 H         1 <0>         0.1193
     47 H15         7.6552   -4.2502   -3.0340 H         1 <0>         0.1362
     48 H16         9.0529   -3.7196   -2.0679 H         1 <0>         0.1427
     49 H17         8.9289   -5.8101   -0.7402 H         1 <0>         0.0917
     50 H18         7.5313   -6.3408   -1.7062 H         1 <0>         0.0876
     51 H19         8.9244   -6.2774   -3.7565 H         1 <0>         0.0892
     52 H20        10.3221   -5.7467   -2.7904 H         1 <0>         0.0896
     53 H21        10.1981   -7.8373   -1.4627 H         1 <0>         0.0969
     54 H22         8.8005   -8.3680   -2.4288 H         1 <0>         0.1081
     55 H23        11.0332  -11.3311   -2.3993 H         1 <0>         0.3914
     56 H24        10.8562   -9.9736   -1.4549 H         1 <0>         0.3562
     57 H25        14.2901   -9.9074   -5.9571 H         1 <0>         0.0800
     58 H26        12.9735  -10.8902   -6.6347 H         1 <0>         0.0835
     59 H27        14.1134   -9.3480   -8.3008 H         1 <0>         0.0798
     60 H28        12.3498   -9.1230   -8.1704 H         1 <0>         0.0684
     61 H29        14.3793   -7.4882   -6.5784 H         1 <0>         0.0701
     62 H30        13.6889   -6.9544   -8.1326 H         1 <0>         0.0809
     63 H31        11.4454   -6.9945   -7.2316 H         1 <0>         0.0916
     64 H32        12.4609   -6.0890   -6.0882 H         1 <0>         0.0889
     65 H33         2.6678   -3.6029   -0.0853 H         1 <0>         0.4330
     66 H34         7.6311   -3.8745   -0.1247 H         1 <0>         0.4283
@<TRIPOS>BOND
     1    1    6 ar
     2    1    2 ar
     3    1   33 1
     4    2    3 ar
     5    2   34 1
     6    3    4 ar
     7    3   35 1
     8    4   10 ar
     9    4    5 ar
    10    5    6 ar
    11    5    7 ar
    12    6   36 1
    13    7    8 ar
    14    7   37 1
    15    8    9 ar
    16    8   38 1
    17    9   10 ar
    18    9   11 1
    19   10   65 1
    20   11   16 1
    21   11   12 1
    22   12   13 1
    23   12   39 1
    24   12   40 1
    25   13   14 1
    26   13   41 1
    27   13   42 1
    28   14   15 1
    29   14   17 1
    30   14   66 1
    31   15   16 1
    32   15   43 1
    33   15   44 1
    34   16   45 1
    35   16   46 1
    36   17   18 1
    37   17   47 1
    38   17   48 1
    39   18   19 1
    40   18   49 1
    41   18   50 1
    42   19   20 1
    43   19   51 1
    44   19   52 1
    45   20   21 1
    46   20   53 1
    47   20   54 1
    48   21   27 1
    49   21   22 2
    50   22   23 1
    51   23   32 1
    52   23   24 2
    53   24   25 1
    54   24   29 1
    55   25   26 2
    56   25   27 am
    57   27   28 1
    58   28   55 1
    59   28   56 1
    60   29   30 1
    61   29   57 1
    62   29   58 1
    63   30   31 1
    64   30   59 1
    65   30   60 1
    66   31   32 1
    67   31   61 1
    68   31   62 1
    69   32   63 1
    70   32   64 1
@<TRIPOS>MOLECULE
ZINC00014360
   42    43     0     0     0
SMALL
USER_CHARGES

@<TRIPOS>ATOM
      1 C1         -0.0178    1.4608    0.0101 C.3       1 <0>         0.0793
      2 N1          0.0021   -0.0041    0.0020 N.pl3     1 <0>        -1.1235
      3 S1          0.7421   -0.8289    1.2326 S.o2      1 <0>         2.6084
      4 O1          0.5924   -2.2002    0.8914 O.2       1 <0>        -0.9468
      5 O2          2.0334   -0.2448    1.3355 O.2       1 <0>        -0.9510
      6 C2         -0.2382   -0.4417    2.7090 C.3       1 <0>        -0.5828
      7 C3          0.3516   -1.1474    3.9028 C.ar      1 <0>        -0.1049
      8 C4         -0.0784   -2.4267    4.2282 C.ar      1 <0>        -0.0826
      9 C5          0.4473   -3.0893    5.3155 C.ar      1 <0>        -0.1137
     10 C6          1.4193   -2.4726    6.0968 C.ar      1 <0>         0.1042
     11 C7          1.8519   -1.1765    5.7625 C.ar      1 <0>        -0.0991
     12 C8          1.3091   -0.5253    4.6530 C.ar      1 <0>        -0.0640
     13 C9          2.8614   -0.8166    6.7612 C.2       1 <0>        -0.2000
     14 C10         2.9754   -1.8603    7.5977 C.2       1 <0>         0.0879
     15 N2          2.1214   -2.8591    7.2163 N.pl3     1 <0>        -0.5851
     16 H1          2.0253   -3.7124    7.6673 H         1 <0>         0.4255
     17 C11         3.6270    0.4793    6.8351 C.3       1 <0>        -0.0627
     18 C12         2.7992    1.5182    7.5943 C.3       1 <0>        -0.0095
     19 N3          3.5455    2.7814    7.6664 N.4       1 <0>        -0.3881
     20 C13         3.7116    3.3299    6.3138 C.3       1 <0>        -0.0545
     21 C14         2.8051    3.7410    8.4964 C.3       1 <0>        -0.0469
     22 H2          1.0048    1.8381    0.0023 H         1 <0>         0.0693
     23 H3         -0.5450    1.8219   -0.8730 H         1 <0>         0.0876
     24 H4         -0.5280    1.8123    0.9069 H         1 <0>         0.0574
     25 H5         -0.4183   -0.4908   -0.7241 H         1 <0>         0.4222
     26 H6         -0.2266    0.6346    2.8808 H         1 <0>         0.1378
     27 H7         -1.2653   -0.7750    2.5608 H         1 <0>         0.1453
     28 H8         -0.8329   -2.9072    3.6230 H         1 <0>         0.1399
     29 H9          0.1057   -4.0841    5.5609 H         1 <0>         0.1340
     30 H10         1.6421    0.4681    4.3911 H         1 <0>         0.1262
     31 H11         3.6421   -1.9048    8.4461 H         1 <0>         0.1761
     32 H12         4.5701    0.3149    7.3563 H         1 <0>         0.0931
     33 H13         3.8275    0.8410    5.8266 H         1 <0>         0.0945
     34 H14         1.8561    1.6826    7.0732 H         1 <0>         0.1293
     35 H15         2.5988    1.1565    8.6029 H         1 <0>         0.1303
     36 H16         4.2654    4.2672    6.3673 H         1 <0>         0.1245
     37 H17         4.2611    2.6179    5.6980 H         1 <0>         0.1265
     38 H18         2.7316    3.5116    5.8726 H         1 <0>         0.1219
     39 H19         2.6818    3.3340    9.5001 H         1 <0>         0.1225
     40 H20         3.3588    4.6783    8.5499 H         1 <0>         0.1241
     41 H21         1.8251    3.9226    8.0552 H         1 <0>         0.1209
     42 H22         4.4527    2.6132    8.0749 H         1 <0>         0.4266
@<TRIPOS>BOND
     1    1    2 1
     2    1   22 1
     3    1   23 1
     4    1   24 1
     5    2    3 1
     6    2   25 1
     7    3    4 2
     8    3    5 2
     9    3    6 1
    10    6    7 1
    11    6   26 1
    12    6   27 1
    13    7   12 ar
    14    7    8 ar
    15    8    9 ar
    16    8   28 1
    17    9   10 ar
    18    9   29 1
    19   10   15 1
    20   10   11 ar
    21   11   12 ar
    22   11   13 1
    23   12   30 1
    24   13   14 2
    25   13   17 1
    26   14   15 1
    27   14   31 1
    28   15   16 1
    29   17   18 1
    30   17   32 1
    31   17   33 1
    32   18   19 1
    33   18   34 1
    34   18   35 1
    35   19   20 1
    36   19   21 1
    37   19   42 1
    38   20   36 1
    39   20   37 1
    40   20   38 1
    41   21   39 1
    42   21   40 1
    43   21   41 1
@<TRIPOS>MOLECULE
ZINC00011112
   33    34     0     0     0
SMALL
USER_CHARGES
1-methyl-4-(6-methyl-2-pyridyl)-piperazine
@<TRIPOS>ATOM
      1 C1         -0.0127    1.0858    0.0080 C.3       1 <0>        -0.1565
      2 C2         -0.7181    1.5718    1.2479 C.ar      1 <0>         0.1974
      3 C3         -2.0817    1.7860    1.2164 C.ar      1 <0>        -0.1366
      4 C4         -2.7271    2.2289    2.3631 C.ar      1 <0>         0.0483
      5 C5         -1.9728    2.4512    3.5012 C.ar      1 <0>        -0.1459
      6 C6         -0.6019    2.2195    3.4601 C.ar      1 <0>         0.3480
      7 N1          0.1681    2.4388    4.5964 N.pl3     1 <0>        -0.4844
      8 C7          0.0073    3.8157    5.0839 C.3       1 <0>         0.0222
      9 C8          0.8064    3.9928    6.3772 C.3       1 <0>        -0.0013
     10 C9          2.3822    2.3128    5.6335 C.3       1 <0>         0.0073
     11 C10         1.5831    2.1357    4.3402 C.3       1 <0>        -0.0110
     12 C11         3.0352    3.9215    7.3218 C.3       1 <0>        -0.0435
     13 H1          0.0021   -0.0041    0.0020 H         1 <0>         0.1219
     14 H2          1.0099    1.4631    0.0003 H         1 <0>         0.0965
     15 H3         -0.5399    1.4469   -0.8751 H         1 <0>         0.1247
     16 H4         -2.6411    1.6071    0.3101 H         1 <0>         0.1946
     17 H5         -3.7934    2.4004    2.3651 H         1 <0>         0.1878
     18 H6         -2.4419    2.8003    4.4092 H         1 <0>         0.1904
     19 H7          0.3746    4.5133    4.3311 H         1 <0>         0.0910
     20 H8         -1.0471    4.0119    5.2782 H         1 <0>         0.1482
     21 H9          0.4213    3.3144    7.1384 H         1 <0>         0.1514
     22 H10         0.7121    5.0214    6.7254 H         1 <0>         0.1558
     23 H11         2.0150    1.6153    6.3863 H         1 <0>         0.1523
     24 H12         3.4366    2.1163    5.4392 H         1 <0>         0.1546
     25 H13         1.6775    1.1071    3.9924 H         1 <0>         0.1382
     26 H14         1.9682    2.8139    3.5787 H         1 <0>         0.0889
     27 H15         4.0863    3.7547    7.0862 H         1 <0>         0.1301
     28 H16         2.8975    4.9480    7.6616 H         1 <0>         0.1316
     29 H17         2.7257    3.2337    8.1088 H         1 <0>         0.1306
     30 N2          0.0543    1.7797    2.3474 N.ar      1 <0>        -0.5235
     31 H18         1.0679    1.6160    2.3409 H         1 <0>         0.4636
     32 N3          2.2300    3.7067    6.1005 N.4       1 <0>        -0.4029
     33 H19         2.5617    4.3429    5.3661 H         1 <0>         0.4305
@<TRIPOS>BOND
     1    1    2 1
     2    1   13 1
     3    1   14 1
     4    1   15 1
     5    2    3 ar
     6    2   30 ar
     7    3    4 ar
     8    3   16 1
     9    4    5 ar
    10    4   17 1
    11    5    6 ar
    12    5   18 1
    13    6    7 1
    14    6   30 ar
    15    7   11 1
    16    7    8 1
    17    8    9 1
    18    8   19 1
    19    8   20 1
    20    9   21 1
    21    9   22 1
    22    9   32 1
    23   10   11 1
    24   10   23 1
    25   10   24 1
    26   10   32 1
    27   11   25 1
    28   11   26 1
    29   12   27 1
    30   12   28 1
    31   12   29 1
    32   12   32 1
    33   30   31 1
    34   32   33 1
@<TRIPOS>MOLECULE
ZINC13759256
   34    35     0     0     0
SMALL
USER_CHARGES
1-(4-methoxy-2-methyl-phenyl)piperazine
@<TRIPOS>ATOM
      1 C1         -1.0257    0.0277    2.2899 C.3       1 <0>        -0.1197
      2 C2         -0.4809   -0.7113    1.0948 C.ar      1 <0>        -0.0396
      3 C3         -0.4522   -2.0923    1.0906 C.ar      1 <0>        -0.1350
      4 C4          0.0544   -2.7724   -0.0067 C.ar      1 <0>         0.1360
      5 C5          0.5275   -2.0667   -1.1032 C.ar      1 <0>        -0.1933
      6 C6          0.4944   -0.6862   -1.1031 C.ar      1 <0>        -0.1134
      7 C7         -0.0128   -0.0043   -0.0046 C.ar      1 <0>         0.0356
      8 N1         -0.0468    1.3946   -0.0036 N.pl3     1 <0>        -0.4806
      9 C8          0.7222    1.9410   -1.1305 C.3       1 <0>         0.0203
     10 C9          0.7266    3.4692   -1.0484 C.3       1 <0>         0.0018
     11 C10        -1.4266    3.4161    0.0561 C.3       1 <0>         0.0010
     12 C11        -1.4310    1.8878   -0.0260 C.3       1 <0>         0.0154
     13 O1          0.0878   -4.1320   -0.0075 O.3       1 <0>        -0.3125
     14 C12         0.6231   -4.7671   -1.1703 C.3       1 <0>         0.0244
     15 H1         -2.1082    0.1175    2.1990 H         1 <0>         0.0726
     16 H2         -0.7817   -0.5218    3.1991 H         1 <0>         0.0769
     17 H3         -0.5812    1.0219    2.3359 H         1 <0>         0.0777
     18 H4         -0.8201   -2.6425    1.9441 H         1 <0>         0.1403
     19 H5          0.9222   -2.5971   -1.9572 H         1 <0>         0.1345
     20 H6          0.8631   -0.1370   -1.9567 H         1 <0>         0.1280
     21 H7          1.7466    1.5714   -1.0848 H         1 <0>         0.1272
     22 H8          0.2640    1.6285   -2.0689 H         1 <0>         0.0687
     23 H9          1.2719    3.8776   -1.8992 H         1 <0>         0.1400
     24 H10         1.2092    3.7823   -0.1225 H         1 <0>         0.1402
     25 H11        -2.4510    3.7857    0.0104 H         1 <0>         0.1401
     26 H12        -0.9688    3.7286    0.9946 H         1 <0>         0.1402
     27 H13        -1.9136    1.5748   -0.9519 H         1 <0>         0.0665
     28 H14        -1.9765    1.4792    0.8246 H         1 <0>         0.1312
     29 H15         0.5914   -5.8489   -1.0406 H         1 <0>         0.1074
     30 H16         0.0309   -4.4882   -2.0418 H         1 <0>         0.0578
     31 H17         1.6554   -4.4487   -1.3155 H         1 <0>         0.0587
     32 N2         -0.6612    3.9686   -1.0776 N.4       1 <0>        -0.5188
     33 H18        -1.1058    3.6829   -1.9580 H         1 <0>         0.4309
     34 H19        -0.6542    4.9934   -1.0145 H         1 <0>         0.4395
@<TRIPOS>BOND
     1    1    2 1
     2    1   15 1
     3    1   16 1
     4    1   17 1
     5    2    7 ar
     6    2    3 ar
     7    3    4 ar
     8    3   18 1
     9    4    5 ar
    10    4   13 1
    11    5    6 ar
    12    5   19 1
    13    6    7 ar
    14    6   20 1
    15    7    8 1
    16    8   12 1
    17    8    9 1
    18    9   10 1
    19    9   21 1
    20    9   22 1
    21   10   23 1
    22   10   24 1
    23   10   32 1
    24   11   12 1
    25   11   25 1
    26   11   26 1
    27   11   32 1
    28   12   27 1
    29   12   28 1
    30   13   14 1
    31   14   29 1
    32   14   30 1
    33   14   31 1
    34   32   33 1
    35   32   34 1
@<TRIPOS>MOLECULE
ZINC01742345
   26    26     0     0     0
SMALL
USER_CHARGES
1-[2-(4-chlorophenyl)ethyl]guanidine
@<TRIPOS>ATOM
      1 C1          1.3488    1.6055    1.9324 C.ar      1 <0>        -0.0979
      2 C2          1.0160    1.8366    3.2538 C.ar      1 <0>        -0.1067
      3 C3          0.1732    0.9629    3.9175 C.ar      1 <0>        -0.0271
      4 C4         -0.3405   -0.1384    3.2562 C.ar      1 <0>        -0.1067
      5 C5         -0.0115   -0.3652    1.9331 C.ar      1 <0>        -0.0980
      6 C6          0.8307    0.5080    1.2705 C.ar      1 <0>        -0.0998
      7 C7          1.1891    0.2601   -0.1721 C.3       1 <0>        -0.0880
      8 C8          0.1720    0.9578   -1.0774 C.3       1 <0>         0.0968
      9 N1          0.5203    0.7167   -2.4798 N.pl3     1 <0>        -0.6976
     10 C9         -0.2559    1.2487   -3.4822 C.cat     1 <0>         0.7401
     11 N2         -1.3591    2.0068   -3.1684 N.pl3     1 <0>        -0.8050
     12 Cl1        -0.2402    1.2488    5.5791 Cl        1 <0>        -0.0539
     13 H1          2.0103    2.2851    1.4155 H         1 <0>         0.1336
     14 H2          1.4174    2.6964    3.7695 H         1 <0>         0.1392
     15 H3         -0.9988   -0.8206    3.7736 H         1 <0>         0.1392
     16 H4         -0.4127   -1.2248    1.4167 H         1 <0>         0.1336
     17 H5          1.1772   -0.8116   -0.3705 H         1 <0>         0.0922
     18 H6          2.1850    0.6556   -0.3722 H         1 <0>         0.0922
     19 H7         -0.8239    0.5623   -0.8773 H         1 <0>         0.0937
     20 H8          0.1839    2.0294   -0.8791 H         1 <0>         0.0937
     21 H9          1.2987    0.1818   -2.7012 H         1 <0>         0.4351
     22 H10        -0.4313    1.3668   -5.5079 H         1 <0>         0.4525
     23 H11        -1.5897    2.1664   -2.2398 H         1 <0>         0.4394
     24 H12        -1.9067    2.3821   -3.8756 H         1 <0>         0.4388
     25 N3          0.1124    0.9942   -4.7294 N.pl3     1 <0>        -0.7968
     26 H13         0.9452    0.4221   -4.9122 H         1 <0>         0.4572
@<TRIPOS>BOND
     1    1    6 ar
     2    1    2 ar
     3    1   13 1
     4    2    3 ar
     5    2   14 1
     6    3    4 ar
     7    3   12 1
     8    4    5 ar
     9    4   15 1
    10    5    6 ar
    11    5   16 1
    12    6    7 1
    13    7    8 1
    14    7   17 1
    15    7   18 1
    16    8    9 1
    17    8   19 1
    18    8   20 1
    19    9   10 1
    20    9   21 1
    21   10   11 1
    22   10   25 2
    23   11   23 1
    24   11   24 1
    25   22   25 1
    26   25   26 1
@<TRIPOS>MOLECULE
ZINC13759262
   26    26     0     0     0
SMALL
USER_CHARGES
1-[2-(2-chlorophenyl)ethyl]guanidine
@<TRIPOS>ATOM
      1 C1         -0.2469   -5.0207    1.1610 C.ar      1 <0>        -0.1087
      2 C2         -0.5612   -5.6433   -0.0327 C.ar      1 <0>        -0.0951
      3 C3         -0.4702   -4.9448   -1.2216 C.ar      1 <0>        -0.1050
      4 C4         -0.0649   -3.6217   -1.2171 C.ar      1 <0>        -0.0321
      5 C5          0.2490   -2.9992   -0.0223 C.ar      1 <0>        -0.0935
      6 C6          0.1626   -3.7006    1.1657 C.ar      1 <0>        -0.0984
      7 C7          0.6910   -1.5585   -0.0167 C.3       1 <0>        -0.0920
      8 C8         -0.5384   -0.6479    0.0011 C.3       1 <0>         0.0972
      9 N1         -0.1087    0.7527    0.0067 N.pl3     1 <0>        -0.6966
     10 C9         -1.0453    1.7590    0.0166 C.cat     1 <0>         0.7396
     11 N2         -0.6421    3.0734    0.0218 N.pl3     1 <0>        -0.8067
     12 Cl1         0.0503   -2.7438   -2.7102 Cl        1 <0>        -0.0644
     13 H1         -0.3176   -5.5672    2.0899 H         1 <0>         0.1361
     14 H2         -0.8776   -6.6760   -0.0361 H         1 <0>         0.1391
     15 H3         -0.7150   -5.4315   -2.1541 H         1 <0>         0.1395
     16 H4          0.4119   -3.2158    2.0981 H         1 <0>         0.1348
     17 H5          1.2805   -1.3557   -0.9108 H         1 <0>         0.0963
     18 H6          1.2971   -1.3679    0.8691 H         1 <0>         0.0962
     19 H7         -1.1279   -0.8506    0.8952 H         1 <0>         0.0958
     20 H8         -1.1445   -0.8385   -0.8846 H         1 <0>         0.0936
     21 H9          0.8367    0.9700   -0.0007 H         1 <0>         0.4343
     22 H10        -3.0522    2.1065    0.0280 H         1 <0>         0.4516
     23 H11         0.3033    3.2907    0.0185 H         1 <0>         0.4402
     24 H12        -1.3029    3.7834    0.0288 H         1 <0>         0.4390
     25 N3         -2.3199    1.3964    0.0206 N.pl3     1 <0>        -0.7960
     26 H13        -2.5704    0.4006    0.0164 H         1 <0>         0.4555
@<TRIPOS>BOND
     1    1    6 ar
     2    1    2 ar
     3    1   13 1
     4    2    3 ar
     5    2   14 1
     6    3    4 ar
     7    3   15 1
     8    4    5 ar
     9    4   12 1
    10    5    6 ar
    11    5    7 1
    12    6   16 1
    13    7    8 1
    14    7   17 1
    15    7   18 1
    16    8    9 1
    17    8   19 1
    18    8   20 1
    19    9   10 1
    20    9   21 1
    21   10   11 1
    22   10   25 2
    23   11   23 1
    24   11   24 1
    25   22   25 1
    26   25   26 1
@<TRIPOS>MOLECULE
ZINC02002802
   23    23     0     0     0
SMALL
USER_CHARGES
1-[(3-chlorophenyl)methyl]guanidine
@<TRIPOS>ATOM
      1 C1         -4.8675    1.0504   -1.1630 C.ar      1 <0>        -0.1032
      2 C2         -3.6012    1.6056   -1.1663 C.ar      1 <0>        -0.0886
      3 C3         -2.9592    1.8707    0.0287 C.ar      1 <0>        -0.1260
      4 C4         -3.5872    1.5908    1.2280 C.ar      1 <0>        -0.0858
      5 C5         -4.8562    1.0401    1.2319 C.ar      1 <0>        -0.0378
      6 C6         -5.4962    0.7701    0.0351 C.ar      1 <0>        -0.0830
      7 Cl1        -5.6456    0.6888    2.7375 Cl        1 <0>        -0.0473
      8 C7         -1.5769    2.4710    0.0242 C.3       1 <0>         0.1446
      9 N1         -0.5789    1.3986    0.0151 N.pl3     1 <0>        -0.6956
     10 C8          0.7610    1.7066    0.0040 C.cat     1 <0>         0.7389
     11 N2          1.6976    0.7002   -0.0104 N.pl3     1 <0>        -0.8065
     12 H1         -5.3669    0.8396   -2.0971 H         1 <0>         0.1433
     13 H2         -3.1120    1.8286   -2.1030 H         1 <0>         0.1348
     14 H3         -3.0869    1.8014    2.1616 H         1 <0>         0.1384
     15 H4         -6.4871    0.3405    0.0377 H         1 <0>         0.1440
     16 H5         -1.4439    3.0835    0.9160 H         1 <0>         0.1021
     17 H6         -1.4528    3.0905   -0.8639 H         1 <0>         0.1034
     18 H7         -0.8634    0.4713    0.0128 H         1 <0>         0.4343
     19 H8          2.0654    3.2709   -0.0001 H         1 <0>         0.4518
     20 H9          1.4131   -0.2271   -0.0126 H         1 <0>         0.4403
     21 H10         2.6429    0.9175   -0.0182 H         1 <0>         0.4390
     22 N3          1.0843    2.9917    0.0077 N.pl3     1 <0>        -0.7965
     23 H11         0.3472    3.7065    0.0186 H         1 <0>         0.4553
@<TRIPOS>BOND
     1    1    6 ar
     2    1    2 ar
     3    1   12 1
     4    2    3 ar
     5    2   13 1
     6    3    4 ar
     7    3    8 1
     8    4    5 ar
     9    4   14 1
    10    5    6 ar
    11    5    7 1
    12    6   15 1
    13    8    9 1
    14    8   16 1
    15    8   17 1
    16    9   10 1
    17    9   18 1
    18   10   11 1
    19   10   22 2
    20   11   20 1
    21   11   21 1
    22   19   22 1
    23   22   23 1
@<TRIPOS>MOLECULE
ZINC15924305
   24    24     0     0     0
SMALL
USER_CHARGES

@<TRIPOS>ATOM
      1 C1          0.2293    1.8388   -0.1730 C.ar      1 <0>        -0.0870
      2 C2          1.5066    2.3284    0.0072 C.ar      1 <0>        -0.1440
      3 C3          2.6075    1.5448   -0.3430 C.ar      1 <0>         0.1518
      4 C4          2.4081    0.2691   -0.8741 C.ar      1 <0>        -0.1495
      5 C5          1.1250   -0.2090   -1.0494 C.ar      1 <0>        -0.0144
      6 C6          0.0376    0.5742   -0.6996 C.ar      1 <0>        -0.1365
      7 Cl1         0.8740   -1.7948   -1.7095 Cl        1 <0>        -0.0714
      8 N1          3.8781    2.0257   -0.1668 N.2       1 <0>        -0.6177
      9 C7          4.5664    1.6858    0.8973 C.2       1 <0>         0.6777
     10 N2          5.8844    2.0514    1.0075 N.pl3     1 <0>        -0.8142
     11 N3          3.9663    0.9624    1.9034 N.pl3     1 <0>        -0.6750
     12 C8          4.6479    0.7168    3.0773 C.2       1 <0>         0.6319
     13 N4          5.7987    1.2870    3.2936 N.2       1 <0>        -0.8026
     14 N5          4.1125   -0.1299    4.0187 N.pl3     1 <0>        -0.8873
     15 H1         -0.6229    2.4427    0.1018 H         1 <0>         0.1323
     16 H2          1.6544    3.3162    0.4182 H         1 <0>         0.1276
     17 H3          3.2556   -0.3420   -1.1474 H         1 <0>         0.1304
     18 H4         -0.9644    0.1959   -0.8387 H         1 <0>         0.1319
     19 H5          6.2064    2.8471    0.5557 H         1 <0>         0.4111
     20 H6          6.4941    1.5142    1.5371 H         1 <0>         0.4236
     21 H7          6.2780    1.1143    4.1191 H         1 <0>         0.3487
     22 H8          3.2554   -0.5546    3.8575 H         1 <0>         0.3959
     23 H9          4.5917   -0.3026    4.8441 H         1 <0>         0.4140
     24 H10         3.0642    0.6255    1.7868 H         1 <0>         0.4227
@<TRIPOS>BOND
     1    1    6 ar
     2    1    2 ar
     3    1   15 1
     4    2    3 ar
     5    2   16 1
     6    3    4 ar
     7    3    8 1
     8    4    5 ar
     9    4   17 1
    10    5    6 ar
    11    5    7 1
    12    6   18 1
    13    8    9 2
    14    9   10 1
    15    9   11 1
    16   10   19 1
    17   10   20 1
    18   11   12 1
    19   11   24 1
    20   12   13 2
    21   12   14 1
    22   13   21 1
    23   14   22 1
    24   14   23 1
@<TRIPOS>MOLECULE
ZINC15924305
   25    25     0     0     0
SMALL
USER_CHARGES

@<TRIPOS>ATOM
      1 C1          0.7316    0.4043   -3.0808 C.ar      1 <0>        -0.0586
      2 C2          1.8587    1.1832   -2.9042 C.ar      1 <0>        -0.1333
      3 C3          3.0791    0.5832   -2.6230 C.ar      1 <0>         0.1512
      4 C4          3.1628   -0.7993   -2.5202 C.ar      1 <0>        -0.1905
      5 C5          2.0317   -1.5734   -2.6979 C.ar      1 <0>        -0.0004
      6 C6          0.8170   -0.9716   -2.9781 C.ar      1 <0>        -0.1179
      7 Cl1         2.1345   -3.3016   -2.5697 Cl        1 <0>        -0.0453
      8 N1          4.2219    1.3695   -2.4441 N.pl3     1 <0>        -0.6789
      9 C7          5.2007    0.9705   -1.5630 C.2       1 <0>         0.6245
     10 N2          6.3243    1.6254   -1.4978 N.2       1 <0>        -0.7572
     11 N3          4.9914   -0.1241   -0.7481 N.pl3     1 <0>        -0.6304
     12 C8          6.0071   -0.5905    0.0494 C.cat     1 <0>         0.7761
     13 N4          5.8517   -1.7235    0.7306 N.pl3     1 <0>        -0.7656
     14 N5          7.1472    0.0904    0.1413 N.pl3     1 <0>        -0.7867
     15 H1         -0.2184    0.8712   -3.2951 H         1 <0>         0.1497
     16 H2          1.7908    2.2580   -2.9850 H         1 <0>         0.1430
     17 H3          4.1105   -1.2689   -2.3019 H         1 <0>         0.1353
     18 H4         -0.0658   -1.5782   -3.1163 H         1 <0>         0.1474
     19 H5          4.3244    2.1962   -2.9412 H         1 <0>         0.4374
     20 H6          6.4436    2.4367   -2.0159 H         1 <0>         0.3759
     21 H7          4.1268   -0.5638   -0.7390 H         1 <0>         0.4452
     22 H8          5.0209   -2.2197    0.6635 H         1 <0>         0.4389
     23 H9          7.1292    1.0486    0.2910 H         1 <0>         0.4517
     24 H10         7.9961   -0.3716    0.0587 H         1 <0>         0.4384
     25 H11         6.5693   -2.0530    1.2940 H         1 <0>         0.4499
@<TRIPOS>BOND
     1    1    6 ar
     2    1    2 ar
     3    1   15 1
     4    2    3 ar
     5    2   16 1
     6    3    4 ar
     7    3    8 1
     8    4    5 ar
     9    4   17 1
    10    5    6 ar
    11    5    7 1
    12    6   18 1
    13    8    9 1
    14    8   19 1
    15    9   10 2
    16    9   11 1
    17   10   20 1
    18   11   12 1
    19   11   21 1
    20   12   13 2
    21   12   14 1
    22   13   22 1
    23   13   25 1
    24   14   23 1
    25   14   24 1
@<TRIPOS>MOLECULE
ZINC15924305
   25    25     0     0     0
SMALL
USER_CHARGES

@<TRIPOS>ATOM
      1 C1          1.8071    0.3646    3.9466 C.ar      1 <0>        -0.0868
      2 C2          2.8369    0.9176    3.2104 C.ar      1 <0>        -0.1001
      3 C3          2.5550    1.6445    2.0611 C.ar      1 <0>         0.1589
      4 C4          1.2375    1.8134    1.6552 C.ar      1 <0>        -0.1300
      5 C5          0.2115    1.2578    2.3959 C.ar      1 <0>        -0.0166
      6 C6          0.4965    0.5338    3.5408 C.ar      1 <0>        -0.1103
      7 Cl1        -1.4358    1.4678    1.8900 Cl        1 <0>        -0.0509
      8 N1          3.5956    2.2057    1.3143 N.pl3     1 <0>        -0.6378
      9 C7          4.8036    1.5438    1.2064 C.2       1 <0>         0.6111
     10 N2          4.9416    0.3452    1.7170 N.2       1 <0>        -0.7507
     11 N3          5.8403    2.1313    0.5755 N.pl3     1 <0>        -0.6336
     12 C8          6.9403    1.4441    0.3330 C.cat     1 <0>         0.7600
     13 N4          6.9258    0.0797    0.4149 N.pl3     1 <0>        -0.8107
     14 N5          8.0944    2.0965    0.0000 N.pl3     1 <0>        -0.7783
     15 H1          2.0265   -0.2045    4.8379 H         1 <0>         0.1409
     16 H2          3.8604    0.7850    3.5285 H         1 <0>         0.1415
     17 H3          1.0151    2.3784    0.7621 H         1 <0>         0.1386
     18 H4         -0.3067    0.1004    4.1183 H         1 <0>         0.1409
     19 H5          3.4693    3.0597    0.8720 H         1 <0>         0.4247
     20 H6          5.8167   -0.0723    1.7448 H         1 <0>         0.3609
     21 H7          6.1004   -0.4065    0.2625 H         1 <0>         0.4510
     22 H8          7.7408   -0.4023    0.6252 H         1 <0>         0.4447
     23 H9          8.1047    3.0647   -0.0580 H         1 <0>         0.4437
     24 H10         8.9030    1.5913   -0.1782 H         1 <0>         0.4474
     25 H11         5.7776    3.0593    0.3000 H         1 <0>         0.4415
@<TRIPOS>BOND
     1    1    6 ar
     2    1    2 ar
     3    1   15 1
     4    2    3 ar
     5    2   16 1
     6    3    4 ar
     7    3    8 1
     8    4    5 ar
     9    4   17 1
    10    5    6 ar
    11    5    7 1
    12    6   18 1
    13    8    9 1
    14    8   19 1
    15    9   10 2
    16    9   11 1
    17   10   20 1
    18   11   12 2
    19   11   25 1
    20   12   13 1
    21   12   14 1
    22   13   21 1
    23   13   22 1
    24   14   23 1
    25   14   24 1
@<TRIPOS>MOLECULE
ZINC15924305
   24    24     0     0     0
SMALL
USER_CHARGES

@<TRIPOS>ATOM
      1 C1          0.0742    1.0549    0.2130 C.ar      1 <0>        -0.0725
      2 C2          1.2414    1.7599    0.4339 C.ar      1 <0>        -0.1444
      3 C3          2.4007    1.4124   -0.2471 C.ar      1 <0>         0.1717
      4 C4          2.3831    0.3563   -1.1488 C.ar      1 <0>        -0.1694
      5 C5          1.2124   -0.3454   -1.3657 C.ar      1 <0>        -0.0036
      6 C6          0.0587    0.0040   -0.6850 C.ar      1 <0>        -0.1321
      7 Cl1         1.1883   -1.6655   -2.4928 Cl        1 <0>        -0.0595
      8 N1          3.5837    2.1250   -0.0256 N.pl3     1 <0>        -0.7070
      9 C7          4.7828    1.4559    0.0677 C.2       1 <0>         0.6138
     10 N2          5.8966    2.1251    0.1584 N.2       1 <0>        -0.6969
     11 N3          4.8051    0.0765    0.0652 N.pl3     1 <0>        -0.6436
     12 C8          6.0069   -0.5940    0.1587 C.2       1 <0>         0.6120
     13 N4          7.1207    0.0752    0.2494 N.2       1 <0>        -0.7250
     14 N5          6.0291   -1.9685    0.1562 N.pl3     1 <0>        -0.8983
     15 H1         -0.8264    1.3222    0.7458 H         1 <0>         0.1393
     16 H2          1.2522    2.5810    1.1353 H         1 <0>         0.1348
     17 H3          3.2830    0.0839   -1.6801 H         1 <0>         0.1398
     18 H4         -0.8552   -0.5455   -0.8559 H         1 <0>         0.1378
     19 H5          3.5591    3.0907    0.0623 H         1 <0>         0.4217
     20 H6          5.8767    3.0917    0.2364 H         1 <0>         0.3343
     21 H7          3.9757   -0.4218   -0.0023 H         1 <0>         0.4166
     22 H8          7.9658   -0.3964    0.3151 H         1 <0>         0.3315
     23 H9          5.1996   -2.4668    0.0887 H         1 <0>         0.3877
     24 H10         6.8742   -2.4400    0.2220 H         1 <0>         0.4115
@<TRIPOS>BOND
     1    1    6 ar
     2    1    2 ar
     3    1   15 1
     4    2    3 ar
     5    2   16 1
     6    3    4 ar
     7    3    8 1
     8    4    5 ar
     9    4   17 1
    10    5    6 ar
    11    5    7 1
    12    6   18 1
    13    8    9 1
    14    8   19 1
    15    9   10 2
    16    9   11 1
    17   10   20 1
    18   11   12 1
    19   11   21 1
    20   12   13 2
    21   12   14 1
    22   13   22 1
    23   14   23 1
    24   14   24 1
@<TRIPOS>MOLECULE
ZINC15924305
   24    24     0     0     0
SMALL
USER_CHARGES

@<TRIPOS>ATOM
      1 C1          0.5756    1.4924   -2.5023 C.ar      1 <0>        -0.0886
      2 C2          1.6522    2.1510   -1.9408 C.ar      1 <0>        -0.1475
      3 C3          2.9037    1.5492   -1.9289 C.ar      1 <0>         0.1750
      4 C4          3.0692    0.2861   -2.4820 C.ar      1 <0>        -0.1027
      5 C5          1.9884   -0.3679   -3.0424 C.ar      1 <0>        -0.0190
      6 C6          0.7424    0.2352   -3.0524 C.ar      1 <0>        -0.1284
      7 Cl1         2.1935   -1.9466   -3.7348 Cl        1 <0>        -0.0670
      8 N1          3.9955    2.2142   -1.3613 N.pl3     1 <0>        -0.6664
      9 C7          4.9630    1.5009   -0.6910 C.2       1 <0>         0.6198
     10 N2          4.9211    0.1991   -0.6786 N.2       1 <0>        -0.7748
     11 N3          5.9772    2.1647   -0.0322 N.pl3     1 <0>        -0.7264
     12 C8          5.9506    3.5402    0.0671 C.2       1 <0>         0.6197
     13 N4          7.0583    4.2019    0.2450 N.2       1 <0>        -0.7775
     14 N5          4.7549    4.2126   -0.0216 N.pl3     1 <0>        -0.8508
     15 H1         -0.3987    1.9584   -2.5076 H         1 <0>         0.1361
     16 H2          1.5208    3.1333   -1.5116 H         1 <0>         0.1289
     17 H3          4.0414   -0.1843   -2.4746 H         1 <0>         0.1621
     18 H4         -0.1010   -0.2775   -3.4909 H         1 <0>         0.1331
     19 H5          4.0708    3.1780   -1.4401 H         1 <0>         0.4186
     20 H6          5.5596   -0.3016   -0.1471 H         1 <0>         0.3481
     21 H7          7.9088    3.7355    0.2351 H         1 <0>         0.3499
     22 H8          3.9186    3.7275    0.0566 H         1 <0>         0.4084
     23 H9          4.7475    5.1723   -0.1624 H         1 <0>         0.4223
     24 H10         6.7091    1.6641    0.3612 H         1 <0>         0.4271
@<TRIPOS>BOND
     1    1    6 ar
     2    1    2 ar
     3    1   15 1
     4    2    3 ar
     5    2   16 1
     6    3    4 ar
     7    3    8 1
     8    4    5 ar
     9    4   17 1
    10    5    6 ar
    11    5    7 1
    12    6   18 1
    13    8    9 1
    14    8   19 1
    15    9   10 2
    16    9   11 1
    17   10   20 1
    18   11   12 1
    19   11   24 1
    20   12   13 2
    21   12   14 1
    22   13   21 1
    23   14   22 1
    24   14   23 1
@<TRIPOS>MOLECULE
ZINC15924305
   24    24     0     0     0
SMALL
USER_CHARGES

@<TRIPOS>ATOM
      1 C1          0.0679    1.2256    0.5357 C.ar      1 <0>        -0.0902
      2 C2          1.2530    1.9354    0.5473 C.ar      1 <0>        -0.1482
      3 C3          2.3843    1.4058   -0.0595 C.ar      1 <0>         0.1828
      4 C4          2.3208    0.1631   -0.6765 C.ar      1 <0>        -0.1120
      5 C5          1.1324   -0.5423   -0.6848 C.ar      1 <0>        -0.0187
      6 C6          0.0068   -0.0110   -0.0791 C.ar      1 <0>        -0.1376
      7 Cl1         1.0510   -2.0954   -1.4561 Cl        1 <0>        -0.0743
      8 N1          3.5853    2.1226   -0.0495 N.pl3     1 <0>        -0.6400
      9 C7          4.7846    1.4547    0.0497 C.2       1 <0>         0.6427
     10 N2          4.8078    0.1525    0.0361 N.2       1 <0>        -0.7883
     11 N3          5.9621    2.1644    0.1637 N.pl3     1 <0>        -0.6806
     12 C8          5.9501    3.5403    0.0670 C.2       1 <0>         0.6459
     13 N4          4.8171    4.1774   -0.0170 N.2       1 <0>        -0.8177
     14 N5          7.1338    4.2391    0.0594 N.pl3     1 <0>        -0.8830
     15 H1         -0.8108    1.6355    1.0114 H         1 <0>         0.1322
     16 H2          1.2995    2.9016    1.0275 H         1 <0>         0.1274
     17 H3          3.1989   -0.2512   -1.1495 H         1 <0>         0.1590
     18 H4         -0.9210   -0.5638   -0.0867 H         1 <0>         0.1295
     19 H5          3.5730    3.0905   -0.1126 H         1 <0>         0.4356
     20 H6          5.6433   -0.3192    0.1787 H         1 <0>         0.3413
     21 H7          4.8087    5.1450   -0.0850 H         1 <0>         0.3569
     22 H8          7.9776    3.7647    0.1220 H         1 <0>         0.3987
     23 H9          7.1254    5.2067   -0.0086 H         1 <0>         0.4150
     24 H10         6.7984    1.6959    0.3118 H         1 <0>         0.4234
@<TRIPOS>BOND
     1    1    6 ar
     2    1    2 ar
     3    1   15 1
     4    2    3 ar
     5    2   16 1
     6    3    4 ar
     7    3    8 1
     8    4    5 ar
     9    4   17 1
    10    5    6 ar
    11    5    7 1
    12    6   18 1
    13    8    9 1
    14    8   19 1
    15    9   10 2
    16    9   11 1
    17   10   20 1
    18   11   12 1
    19   11   24 1
    20   12   13 2
    21   12   14 1
    22   13   21 1
    23   14   22 1
    24   14   23 1
@<TRIPOS>MOLECULE
ZINC15924305
   24    24     0     0     0
SMALL
USER_CHARGES

@<TRIPOS>ATOM
      1 C1          0.2369    1.0007   -1.3418 C.ar      1 <0>        -0.0752
      2 C2          1.3972    1.7362   -1.1972 C.ar      1 <0>        -0.1380
      3 C3          2.6210    1.1749   -1.5379 C.ar      1 <0>         0.1594
      4 C4          2.6744   -0.1253   -2.0234 C.ar      1 <0>        -0.1588
      5 C5          1.5102   -0.8562   -2.1659 C.ar      1 <0>        -0.0065
      6 C6          0.2923   -0.2932   -1.8253 C.ar      1 <0>        -0.1246
      7 Cl1         1.5751   -2.4812   -2.7732 Cl        1 <0>        -0.0547
      8 N1          3.7972    1.9176   -1.3929 N.pl3     1 <0>        -0.7013
      9 C7          4.9246    1.3259   -0.8704 C.2       1 <0>         0.6358
     10 N2          6.0517    1.9784   -0.8479 N.2       1 <0>        -0.7860
     11 N3          4.8610    0.0417   -0.3705 N.pl3     1 <0>        -0.6867
     12 C8          6.0119   -0.5936    0.0472 C.2       1 <0>         0.6485
     13 N4          5.9830   -1.8596    0.3521 N.2       1 <0>        -0.7984
     14 N5          7.1894    0.1094    0.1417 N.pl3     1 <0>        -0.8261
     15 H1         -0.7143    1.4356   -1.0726 H         1 <0>         0.1411
     16 H2          1.3528    2.7471   -0.8198 H         1 <0>         0.1357
     17 H3          3.6245   -0.5644   -2.2896 H         1 <0>         0.1397
     18 H4         -0.6164   -0.8660   -1.9374 H         1 <0>         0.1398
     19 H5          3.8184    2.8497   -1.6605 H         1 <0>         0.4224
     20 H6          6.0810    2.9056   -1.1315 H         1 <0>         0.3497
     21 H7          4.0070   -0.4146   -0.3127 H         1 <0>         0.4188
     22 H8          7.1716    1.0675    0.2920 H         1 <0>         0.4211
     23 H9          8.0382   -0.3527    0.0581 H         1 <0>         0.4054
     24 H10         5.1711   -2.3728    0.2161 H         1 <0>         0.3390
@<TRIPOS>BOND
     1    1    6 ar
     2    1    2 ar
     3    1   15 1
     4    2    3 ar
     5    2   16 1
     6    3    4 ar
     7    3    8 1
     8    4    5 ar
     9    4   17 1
    10    5    6 ar
    11    5    7 1
    12    6   18 1
    13    8    9 1
    14    8   19 1
    15    9   10 2
    16    9   11 1
    17   10   20 1
    18   11   12 1
    19   11   21 1
    20   12   13 2
    21   12   14 1
    22   13   24 1
    23   14   22 1
    24   14   23 1
@<TRIPOS>MOLECULE
ZINC14951244
   25    25     0     0     0
SMALL
USER_CHARGES

@<TRIPOS>ATOM
      1 C1          0.2625    1.1579    3.1746 C.ar      1 <0>        -0.1202
      2 C2          1.5013    1.7544    3.3227 C.ar      1 <0>        -0.0975
      3 C3          2.6143    1.1955    2.7259 C.ar      1 <0>        -0.1365
      4 C4          2.4885    0.0328    1.9767 C.ar      1 <0>         0.1432
      5 C5          1.2430   -0.5641    1.8303 C.ar      1 <0>        -0.1063
      6 C6          0.1339    0.0002    2.4294 C.ar      1 <0>        -0.1014
      7 N1          3.6134   -0.5355    1.3707 N.pl3     1 <0>        -0.6381
      8 C7          3.7071   -1.9075    1.2370 C.2       1 <0>         0.6088
      9 N2          2.7975   -2.6817    1.7750 N.2       1 <0>        -0.7511
     10 N3          4.7348   -2.4496    0.5528 N.pl3     1 <0>        -0.6327
     11 C8          4.7416   -3.7420    0.2868 C.cat     1 <0>         0.7596
     12 N4          3.5934   -4.4723    0.4154 N.pl3     1 <0>        -0.8115
     13 N5          5.8970   -4.3505   -0.1173 N.pl3     1 <0>        -0.7790
     14 H1         -0.6056    1.5947    3.6457 H         1 <0>         0.1293
     15 H2          1.5984    2.6586    3.9054 H         1 <0>         0.1324
     16 H3          3.5814    1.6623    2.8413 H         1 <0>         0.1273
     17 H4          1.1417   -1.4681    1.2481 H         1 <0>         0.1363
     18 H5         -0.8349   -0.4634    2.3160 H         1 <0>         0.1298
     19 H6          2.9229   -3.6435    1.7840 H         1 <0>         0.3590
     20 H7          2.7306   -4.0433    0.3034 H         1 <0>         0.4503
     21 H8          3.6413   -5.4196    0.6188 H         1 <0>         0.4446
     22 H9          6.7118   -3.8322   -0.2085 H         1 <0>         0.4434
     23 H10         5.9020   -5.3006   -0.3128 H         1 <0>         0.4471
     24 H11         4.3279    0.0336    1.0442 H         1 <0>         0.4227
     25 H12         5.4690   -1.8895    0.2560 H         1 <0>         0.4406
@<TRIPOS>BOND
     1    1    6 ar
     2    1    2 ar
     3    1   14 1
     4    2    3 ar
     5    2   15 1
     6    3    4 ar
     7    3   16 1
     8    4    5 ar
     9    4    7 1
    10    5    6 ar
    11    5   17 1
    12    6   18 1
    13    7    8 1
    14    7   24 1
    15    8    9 2
    16    8   10 1
    17    9   19 1
    18   10   11 2
    19   10   25 1
    20   11   12 1
    21   11   13 1
    22   12   20 1
    23   12   21 1
    24   13   22 1
    25   13   23 1
@<TRIPOS>MOLECULE
ZINC14951244
   25    25     0     0     0
SMALL
USER_CHARGES

@<TRIPOS>ATOM
      1 C1          0.5211    0.8910   -2.9736 C.ar      1 <0>        -0.1223
      2 C2          0.3893    0.0329   -1.8972 C.ar      1 <0>        -0.0975
      3 C3          1.5042   -0.5806   -1.3607 C.ar      1 <0>        -0.1147
      4 C4          2.7588   -0.3350   -1.9035 C.ar      1 <0>         0.1389
      5 C5          2.8878    0.5273   -2.9845 C.ar      1 <0>        -0.1448
      6 C6          1.7688    1.1377   -3.5163 C.ar      1 <0>        -0.0957
      7 N1          3.8901   -0.9544   -1.3622 N.pl3     1 <0>        -0.6645
      8 C7          3.7668   -2.1539   -0.6992 C.2       1 <0>         0.6002
      9 N2          2.6208   -2.7720   -0.6790 N.2       1 <0>        -0.6938
     10 N3          4.8581   -2.7021   -0.0553 N.pl3     1 <0>        -0.6706
     11 C8          6.0291   -1.9912    0.0373 C.cat     1 <0>         0.7480
     12 N4          7.1827   -2.6297    0.2203 N.pl3     1 <0>        -0.7664
     13 N5          6.0107   -0.6635   -0.0559 N.pl3     1 <0>        -0.7949
     14 H1         -0.3529    1.3660   -3.3942 H         1 <0>         0.1295
     15 H2         -0.5866   -0.1574   -1.4754 H         1 <0>         0.1309
     16 H3          1.4007   -1.2504   -0.5199 H         1 <0>         0.1498
     17 H4          3.8620    0.7207   -3.4086 H         1 <0>         0.1238
     18 H5          1.8684    1.8084   -4.3569 H         1 <0>         0.1321
     19 H6          4.7615   -0.5384   -1.4542 H         1 <0>         0.4098
     20 H7          2.5145   -3.5794   -0.1522 H         1 <0>         0.3644
     21 H8          4.7976   -3.5895    0.3317 H         1 <0>         0.4518
     22 H9          7.1960   -3.5972    0.2882 H         1 <0>         0.4466
     23 H10         5.1723   -0.1830    0.0275 H         1 <0>         0.4475
     24 H11         6.8359   -0.1764   -0.2072 H         1 <0>         0.4459
     25 H12         8.0099   -2.1274    0.2857 H         1 <0>         0.4460
@<TRIPOS>BOND
     1    1    6 ar
     2    1    2 ar
     3    1   14 1
     4    2    3 ar
     5    2   15 1
     6    3    4 ar
     7    3   16 1
     8    4    5 ar
     9    4    7 1
    10    5    6 ar
    11    5   17 1
    12    6   18 1
    13    7    8 1
    14    7   19 1
    15    8    9 2
    16    8   10 1
    17    9   20 1
    18   10   11 1
    19   10   21 1
    20   11   12 2
    21   11   13 1
    22   12   22 1
    23   12   25 1
    24   13   23 1
    25   13   24 1
@<TRIPOS>MOLECULE
ZINC14951244
   24    24     0     0     0
SMALL
USER_CHARGES

@<TRIPOS>ATOM
      1 C1          0.5315    0.8572   -3.0248 C.ar      1 <0>        -0.1416
      2 C2          0.3961    0.0148   -1.9365 C.ar      1 <0>        -0.1018
      3 C3          1.5091   -0.5923   -1.3887 C.ar      1 <0>        -0.1193
      4 C4          2.7652   -0.3561   -1.9320 C.ar      1 <0>         0.1657
      5 C5          2.8977    0.4904   -3.0250 C.ar      1 <0>        -0.1571
      6 C6          1.7808    1.0945   -3.5681 C.ar      1 <0>        -0.0993
      7 N1          3.8944   -0.9691   -1.3793 N.pl3     1 <0>        -0.6656
      8 C7          3.7690   -2.1621   -0.7047 C.2       1 <0>         0.6197
      9 N2          2.6237   -2.7820   -0.6853 N.2       1 <0>        -0.7737
     10 N3          4.8564   -2.7014   -0.0490 N.pl3     1 <0>        -0.7274
     11 C8          6.0336   -1.9877    0.0368 C.2       1 <0>         0.6196
     12 N4          7.1632   -2.6130    0.2089 N.2       1 <0>        -0.7785
     13 N5          6.0147   -0.6166   -0.0594 N.pl3     1 <0>        -0.8511
     14 H1         -0.3410    1.3272   -3.4541 H         1 <0>         0.1207
     15 H2         -0.5809   -0.1682   -1.5143 H         1 <0>         0.1231
     16 H3          1.4027   -1.2498   -0.5385 H         1 <0>         0.1521
     17 H4          3.8732    0.6765   -3.4496 H         1 <0>         0.1209
     18 H5          1.8831    1.7529   -4.4180 H         1 <0>         0.1242
     19 H6          4.7660   -0.5533   -1.4715 H         1 <0>         0.4163
     20 H7          2.5154   -3.5842   -0.1508 H         1 <0>         0.3461
     21 H8          4.7931   -3.5825    0.3518 H         1 <0>         0.4262
     22 H9          5.1762   -0.1360    0.0239 H         1 <0>         0.4095
     23 H10         6.8398   -0.1295   -0.2107 H         1 <0>         0.4219
     24 H11         7.1766   -3.5805    0.2768 H         1 <0>         0.3494
@<TRIPOS>BOND
     1    1    6 ar
     2    1    2 ar
     3    1   14 1
     4    2    3 ar
     5    2   15 1
     6    3    4 ar
     7    3   16 1
     8    4    5 ar
     9    4    7 1
    10    5    6 ar
    11    5   17 1
    12    6   18 1
    13    7    8 1
    14    7   19 1
    15    8    9 2
    16    8   10 1
    17    9   20 1
    18   10   11 1
    19   10   21 1
    20   11   12 2
    21   11   13 1
    22   12   24 1
    23   13   22 1
    24   13   23 1
@<TRIPOS>MOLECULE
ZINC14951244
   24    24     0     0     0
SMALL
USER_CHARGES

@<TRIPOS>ATOM
      1 C1          0.0276    1.4060   -0.2855 C.ar      1 <0>        -0.1467
      2 C2          0.2768    0.4399    0.6721 C.ar      1 <0>        -0.1033
      3 C3          1.4663   -0.2616    0.6541 C.ar      1 <0>        -0.1155
      4 C4          2.4127    0.0040   -0.3270 C.ar      1 <0>         0.1785
      5 C5          2.1593    0.9749   -1.2873 C.ar      1 <0>        -0.1553
      6 C6          0.9679    1.6729   -1.2637 C.ar      1 <0>        -0.1012
      7 N1          3.6186   -0.7044   -0.3477 N.pl3     1 <0>        -0.6406
      8 C7          3.6448   -2.0294    0.0236 C.2       1 <0>         0.6442
      9 N2          2.5306   -2.6629    0.2552 N.2       1 <0>        -0.7876
     10 N3          4.8512   -2.6865    0.1504 N.pl3     1 <0>        -0.6828
     11 C8          6.0336   -1.9857    0.0354 C.2       1 <0>         0.6400
     12 N4          6.0144   -0.6867   -0.0579 N.2       1 <0>        -0.8148
     13 N5          7.2324   -2.6583    0.0192 N.pl3     1 <0>        -0.8858
     14 H1         -0.9052    1.9500   -0.2720 H         1 <0>         0.1182
     15 H2         -0.4594    0.2341    1.4350 H         1 <0>         0.1199
     16 H3          1.6605   -1.0157    1.4025 H         1 <0>         0.1323
     17 H4          2.8934    1.1840   -2.0514 H         1 <0>         0.1191
     18 H5          0.7702    2.4280   -2.0102 H         1 <0>         0.1214
     19 H6          4.4364   -0.2618   -0.6238 H         1 <0>         0.4322
     20 H7          2.5508   -3.5741    0.5872 H         1 <0>         0.3409
     21 H8          4.8678   -3.6413    0.3205 H         1 <0>         0.4222
     22 H9          6.8459   -0.1939   -0.1388 H         1 <0>         0.3538
     23 H10         7.2443   -3.6282    0.0133 H         1 <0>         0.3972
     24 H11         8.0664   -2.1630    0.0137 H         1 <0>         0.4139
@<TRIPOS>BOND
     1    1    6 ar
     2    1    2 ar
     3    1   14 1
     4    2    3 ar
     5    2   15 1
     6    3    4 ar
     7    3   16 1
     8    4    5 ar
     9    4    7 1
    10    5    6 ar
    11    5   17 1
    12    6   18 1
    13    7    8 1
    14    7   19 1
    15    8    9 2
    16    8   10 1
    17    9   20 1
    18   10   11 1
    19   10   21 1
    20   11   12 2
    21   11   13 1
    22   12   22 1
    23   13   23 1
    24   13   24 1
@<TRIPOS>MOLECULE
ZINC14951244
   24    24     0     0     0
SMALL
USER_CHARGES

@<TRIPOS>ATOM
      1 C1          0.3129    1.5049   -0.0515 C.ar      1 <0>        -0.1382
      2 C2          0.6969    0.4642    0.7741 C.ar      1 <0>        -0.0841
      3 C3          1.7909   -0.3122    0.4457 C.ar      1 <0>        -0.1758
      4 C4          2.5056   -0.0467   -0.7152 C.ar      1 <0>         0.1510
      5 C5          2.1172    0.9994   -1.5423 C.ar      1 <0>        -0.1482
      6 C6          1.0223    1.7719   -1.2081 C.ar      1 <0>        -0.0855
      7 N1          3.6143   -0.8307   -1.0505 N.pl3     1 <0>        -0.7016
      8 C7          3.6077   -2.1811   -0.7850 C.2       1 <0>         0.6331
      9 N2          4.6853   -2.8875   -0.9756 N.2       1 <0>        -0.7873
     10 N3          2.4598   -2.7865   -0.3170 N.pl3     1 <0>        -0.6876
     11 C8          2.4849   -4.1126    0.0619 C.2       1 <0>         0.6500
     12 N4          1.3727   -4.7325    0.3366 N.2       1 <0>        -0.8020
     13 N5          3.6835   -4.7798    0.1497 N.pl3     1 <0>        -0.8234
     14 H1         -0.5457    2.1077    0.2053 H         1 <0>         0.1279
     15 H2          0.1410    0.2584    1.6769 H         1 <0>         0.1306
     16 H3          2.0906   -1.1246    1.0911 H         1 <0>         0.1305
     17 H4          2.6711    1.2086   -2.4455 H         1 <0>         0.1277
     18 H5          0.7198    2.5855   -1.8507 H         1 <0>         0.1297
     19 H6          5.5119   -2.4510   -1.2345 H         1 <0>         0.3484
     20 H7          0.5225   -4.2847    0.2046 H         1 <0>         0.3391
     21 H8          4.5054   -4.2841    0.2898 H         1 <0>         0.4172
     22 H9          3.7074   -5.7464    0.0717 H         1 <0>         0.4077
     23 H10         4.3878   -0.4227   -1.4702 H         1 <0>         0.4199
     24 H11         1.6352   -2.2797   -0.2544 H         1 <0>         0.4211
@<TRIPOS>BOND
     1    1    6 ar
     2    1    2 ar
     3    1   14 1
     4    2    3 ar
     5    2   15 1
     6    3    4 ar
     7    3   16 1
     8    4    5 ar
     9    4    7 1
    10    5    6 ar
    11    5   17 1
    12    6   18 1
    13    7    8 1
    14    7   23 1
    15    8    9 2
    16    8   10 1
    17    9   19 1
    18   10   11 1
    19   10   24 1
    20   11   12 2
    21   11   13 1
    22   12   20 1
    23   13   21 1
    24   13   22 1
@<TRIPOS>MOLECULE
ZINC14951244
   24    24     0     0     0
SMALL
USER_CHARGES

@<TRIPOS>ATOM
      1 C1         -0.0111    1.3851    0.0658 C.ar      1 <0>        -0.1417
      2 C2          0.2096    0.3213    0.9212 C.ar      1 <0>        -0.0867
      3 C3          1.4128   -0.3559    0.8873 C.ar      1 <0>        -0.1756
      4 C4          2.4016    0.0326   -0.0072 C.ar      1 <0>         0.1566
      5 C5          2.1768    1.1015   -0.8650 C.ar      1 <0>        -0.1493
      6 C6          0.9714    1.7745   -0.8260 C.ar      1 <0>        -0.0869
      7 N1          3.6214   -0.6508   -0.0438 N.pl3     1 <0>        -0.7098
      8 C7          3.6448   -2.0230    0.0600 C.2       1 <0>         0.6153
      9 N2          4.7831   -2.6504    0.1435 N.2       1 <0>        -0.7023
     10 N3          2.4626   -2.7338    0.0756 N.pl3     1 <0>        -0.6430
     11 C8          2.4860   -4.1090    0.1796 C.2       1 <0>         0.6114
     12 N4          3.6243   -4.7365    0.2631 N.2       1 <0>        -0.7253
     13 N5          1.3080   -4.8173    0.1952 N.pl3     1 <0>        -0.8989
     14 H1         -0.9545    1.9102    0.0912 H         1 <0>         0.1258
     15 H2         -0.5596    0.0199    1.6168 H         1 <0>         0.1282
     16 H3          1.5846   -1.1865    1.5559 H         1 <0>         0.1285
     17 H4          2.9438    1.4063   -1.5615 H         1 <0>         0.1269
     18 H5          0.7959    2.6058   -1.4927 H         1 <0>         0.1278
     19 H6          5.6101   -2.1480    0.2109 H         1 <0>         0.3333
     20 H7          3.6408   -5.7036    0.3363 H         1 <0>         0.3308
     21 H8          0.4602   -4.3500    0.1330 H         1 <0>         0.3872
     22 H9          1.3245   -5.7844    0.2683 H         1 <0>         0.4111
     23 H10         4.4509   -0.1577   -0.1423 H         1 <0>         0.4190
     24 H11         1.6148   -2.2665    0.0134 H         1 <0>         0.4176
@<TRIPOS>BOND
     1    1    6 ar
     2    1    2 ar
     3    1   14 1
     4    2    3 ar
     5    2   15 1
     6    3    4 ar
     7    3   16 1
     8    4    5 ar
     9    4    7 1
    10    5    6 ar
    11    5   17 1
    12    6   18 1
    13    7    8 1
    14    7   23 1
    15    8    9 2
    16    8   10 1
    17    9   19 1
    18   10   11 1
    19   10   24 1
    20   11   12 2
    21   11   13 1
    22   12   20 1
    23   13   21 1
    24   13   22 1
@<TRIPOS>MOLECULE
ZINC13488369
   20    20     0     0     0
SMALL
USER_CHARGES
1-(3-chlorophenyl)guanidine
@<TRIPOS>ATOM
      1 C1          0.1083    0.9252    0.7769 C.ar      1 <0>        -0.0587
      2 C2          0.4735    2.2459    0.6023 C.ar      1 <0>        -0.1148
      3 C3         -0.4912    3.1978    0.2991 C.ar      1 <0>         0.1280
      4 C4         -1.8212    2.8188    0.1724 C.ar      1 <0>        -0.1843
      5 C5         -2.1799    1.4950    0.3436 C.ar      1 <0>         0.0008
      6 C6         -1.2162    0.5500    0.6508 C.ar      1 <0>        -0.1004
      7 Cl1        -3.8410    1.0183    0.1792 Cl        1 <0>        -0.0294
      8 N1         -0.1238    4.5357    0.1213 N.pl3     1 <0>        -0.6365
      9 C7         -0.9872    5.5416    0.4921 C.cat     1 <0>         0.7416
     10 N2         -0.6769    6.8518    0.2127 N.pl3     1 <0>        -0.7976
     11 H1          0.8584    0.1848    1.0127 H         1 <0>         0.1565
     12 H2          1.5086    2.5379    0.7010 H         1 <0>         0.1492
     13 H3         -2.5737    3.5568   -0.0628 H         1 <0>         0.1535
     14 H4         -1.4992   -0.4832    0.7879 H         1 <0>         0.1537
     15 H5          0.7394    4.7546   -0.2633 H         1 <0>         0.4448
     16 H6         -2.7718    5.8908    1.4096 H         1 <0>         0.4498
     17 H7          0.1504    7.0671   -0.2456 H         1 <0>         0.4420
     18 H8         -1.2854    7.5606    0.4740 H         1 <0>         0.4425
     19 N3         -2.1002    5.1818    1.1148 N.pl3     1 <0>        -0.7991
     20 H9         -2.2866    4.1893    1.3005 H         1 <0>         0.4585
@<TRIPOS>BOND
     1    1    6 ar
     2    1    2 ar
     3    1   11 1
     4    2    3 ar
     5    2   12 1
     6    3    4 ar
     7    3    8 1
     8    4    5 ar
     9    4   13 1
    10    5    6 ar
    11    5    7 1
    12    6   14 1
    13    8    9 1
    14    8   15 1
    15    9   10 1
    16    9   19 2
    17   10   17 1
    18   10   18 1
    19   16   19 1
    20   19   20 1
@<TRIPOS>MOLECULE
ZINC01586446
   20    20     0     0     0
SMALL
USER_CHARGES
1-phenylguanidine
@<TRIPOS>ATOM
      1 C1         -1.5980    4.5914    0.1773 C.ar      1 <0>        -0.1054
      2 C2         -0.2393    4.3633    0.2961 C.ar      1 <0>        -0.0776
      3 C3          0.2533    3.0741    0.2432 C.ar      1 <0>        -0.1156
      4 C4         -0.6177    2.0061    0.0706 C.ar      1 <0>         0.1044
      5 C5         -1.9812    2.2391   -0.0542 C.ar      1 <0>        -0.1775
      6 C6         -2.4678    3.5302    0.0054 C.ar      1 <0>        -0.0777
      7 N1         -0.1221    0.6992    0.0167 N.pl3     1 <0>        -0.6374
      8 C7         -0.8393   -0.3326    0.5787 C.cat     1 <0>         0.7403
      9 N2         -0.4130   -1.6307    0.4235 N.pl3     1 <0>        -0.8006
     10 H1         -1.9807    5.6005    0.2186 H         1 <0>         0.1424
     11 H2          0.4374    5.1941    0.4306 H         1 <0>         0.1451
     12 H3          1.3146    2.8967    0.3357 H         1 <0>         0.1409
     13 H4         -2.6606    1.4111   -0.1933 H         1 <0>         0.1401
     14 H5         -3.5284    3.7118   -0.0875 H         1 <0>         0.1446
     15 H6          0.7270    0.5200   -0.4167 H         1 <0>         0.4415
     16 H7         -2.4961   -0.7381    1.6917 H         1 <0>         0.4488
     17 H8          0.3931   -1.8193   -0.0820 H         1 <0>         0.4412
     18 H9         -0.9185   -2.3577    0.8195 H         1 <0>         0.4414
     19 N3         -1.9309   -0.0088    1.2566 N.pl3     1 <0>        -0.7973
     20 H10        -2.2078    0.9760    1.3440 H         1 <0>         0.4583
@<TRIPOS>BOND
     1    1    6 ar
     2    1    2 ar
     3    1   10 1
     4    2    3 ar
     5    2   11 1
     6    3    4 ar
     7    3   12 1
     8    4    5 ar
     9    4    7 1
    10    5    6 ar
    11    5   13 1
    12    6   14 1
    13    7    8 1
    14    7   15 1
    15    8    9 1
    16    8   19 2
    17    9   17 1
    18    9   18 1
    19   16   19 1
    20   19   20 1
@<TRIPOS>MOLECULE
ZINC03633590
   24    25     0     0     0
SMALL
USER_CHARGES
N'-(3-chlorophenyl)pyrimidine-2,4-diamine
@<TRIPOS>ATOM
      1 C1         -0.1185    1.2297   -0.5731 C.ar      1 <0>        -0.0874
      2 C2          1.0691    1.9346   -0.5996 C.ar      1 <0>        -0.1456
      3 C3          1.1552    3.1718    0.0257 C.ar      1 <0>         0.1680
      4 C4          0.0459    3.6968    0.6762 C.ar      1 <0>        -0.1078
      5 C5         -1.1395    2.9868    0.6993 C.ar      1 <0>        -0.0177
      6 C6         -1.2230    1.7566    0.0701 C.ar      1 <0>        -0.1293
      7 Cl1        -2.5269    3.6414    1.5119 Cl        1 <0>        -0.0673
      8 N1          2.3558    3.8874   -0.0000 N.pl3     1 <0>        -0.6508
      9 C7          2.3365    5.2702   -0.0971 C.ar      1 <0>         0.4661
     10 C8          3.5286    5.9893   -0.2108 C.ar      1 <0>        -0.3360
     11 C9          3.4614    7.3654   -0.3048 C.ar      1 <0>         0.2201
     12 N2          2.2771    7.9596   -0.2845 N.ar      1 <0>        -0.6009
     13 C10         1.1622    7.2524   -0.1757 C.ar      1 <0>         0.6019
     14 N3          1.1832    5.9308   -0.0887 N.ar      1 <0>        -0.6142
     15 N4         -0.0552    7.9105   -0.1582 N.pl3     1 <0>        -0.8189
     16 H1         -0.1856    0.2676   -1.0592 H         1 <0>         0.1361
     17 H2          1.9301    1.5238   -1.1058 H         1 <0>         0.1307
     18 H3          0.1096    4.6588    1.1631 H         1 <0>         0.1516
     19 H4         -2.1517    1.2055    0.0852 H         1 <0>         0.1336
     20 H5          3.2023    3.4165    0.0500 H         1 <0>         0.4246
     21 H6          4.4812    5.4806   -0.2252 H         1 <0>         0.1427
     22 H7          4.3644    7.9511   -0.3935 H         1 <0>         0.1698
     23 H8         -0.0847    8.8777   -0.2252 H         1 <0>         0.4165
     24 H9         -0.8790    7.4044   -0.0790 H         1 <0>         0.4142
@<TRIPOS>BOND
     1    1    6 ar
     2    1    2 ar
     3    1   16 1
     4    2    3 ar
     5    2   17 1
     6    3    4 ar
     7    3    8 1
     8    4    5 ar
     9    4   18 1
    10    5    6 ar
    11    5    7 1
    12    6   19 1
    13    8    9 1
    14    8   20 1
    15    9   14 ar
    16    9   10 ar
    17   10   11 ar
    18   10   21 1
    19   11   12 ar
    20   11   22 1
    21   12   13 ar
    22   13   14 ar
    23   13   15 1
    24   15   23 1
    25   15   24 1
@<TRIPOS>MOLECULE
ZINC29130869
   21    22     0     0     0
SMALL
USER_CHARGES

@<TRIPOS>ATOM
      1 C1         -0.0168    1.3851    0.0097 C.ar      1 <0>        -0.1114
      2 C2          1.1695    2.0923    0.0021 C.ar      1 <0>        -0.0557
      3 C3          2.3765    1.4166   -0.0142 C.ar      1 <0>        -0.0325
      4 C4          2.3977    0.0325   -0.0291 C.ar      1 <0>         0.0004
      5 C5          1.2119   -0.6819   -0.0241 C.ar      1 <0>        -0.1257
      6 C6          0.0021   -0.0041    0.0020 C.ar      1 <0>         0.1557
      7 N1         -1.2115   -0.7080    0.0366 N.pl3     1 <0>        -0.6439
      8 C7         -1.1703   -2.0782   -0.1764 C.cat     1 <0>         0.7629
      9 N2         -0.0513   -2.7297    0.3259 N.pl3     1 <0>        -0.7367
     10 C8          1.2613   -2.1888   -0.0559 C.3       1 <0>         0.1619
     11 N3         -2.1192   -2.7123   -0.8059 N.pl3     1 <0>        -0.7135
     12 Cl1         3.9156   -0.8096   -0.0547 Cl        1 <0>        -0.0101
     13 Cl2         3.8674    2.3060   -0.0167 Cl        1 <0>        -0.0128
     14 H1         -0.9593    1.9121    0.0260 H         1 <0>         0.1571
     15 H2          1.1549    3.1722    0.0086 H         1 <0>         0.1643
     16 H3         -2.0510   -0.2519    0.2042 H         1 <0>         0.4492
     17 H4          1.5138   -2.5230   -1.0622 H         1 <0>         0.1084
     18 H5          2.0175   -2.5425    0.6450 H         1 <0>         0.1321
     19 H6         -2.8871   -2.2251   -1.1432 H         1 <0>         0.4475
     20 H7         -0.1322   -3.5063    0.9014 H         1 <0>         0.4498
     21 H8         -2.0575   -3.6714   -0.9369 H         1 <0>         0.4529
@<TRIPOS>BOND
     1    1    6 ar
     2    1    2 ar
     3    1   14 1
     4    2    3 ar
     5    2   15 1
     6    3    4 ar
     7    3   13 1
     8    4    5 ar
     9    4   12 1
    10    5   10 1
    11    5    6 ar
    12    6    7 1
    13    7    8 1
    14    7   16 1
    15    8    9 1
    16    8   11 2
    17    9   10 1
    18    9   20 1
    19   10   17 1
    20   10   18 1
    21   11   19 1
    22   11   21 1
@<TRIPOS>MOLECULE
ZINC05116719
   38    41     0     0     0
SMALL
USER_CHARGES

@<TRIPOS>ATOM
      1 C1         -0.0178    1.4608    0.0101 C.3       1 <0>         0.0667
      2 N1          0.0021   -0.0041    0.0020 N.pl3     1 <0>        -0.4615
      3 C2          0.0077   -0.7635   -1.1101 C.2       1 <0>         0.1354
      4 C3          0.0281   -2.0968   -0.7603 C.2       1 <0>        -0.2731
      5 C4          0.0354   -2.1349    0.7154 C.ar      1 <0>        -0.0582
      6 C5          0.0236   -0.7947    1.1332 C.ar      1 <0>         0.0744
      7 C6          0.0312   -0.5055    2.4937 C.ar      1 <0>        -0.1211
      8 C7          0.0534   -1.5304    3.4148 C.ar      1 <0>        -0.1016
      9 C8          0.0688   -2.8535    2.9997 C.ar      1 <0>        -0.1331
     10 C9          0.0542   -3.1603    1.6558 C.ar      1 <0>        -0.0709
     11 C10         0.0391   -3.2077   -1.6404 C.2       1 <0>         0.4307
     12 O1          0.0567   -4.3362   -1.1933 O.2       1 <0>        -0.4614
     13 C11         0.0289   -2.9879   -3.1312 C.3       1 <0>        -0.1220
     14 H1         -0.4987   -2.0616   -3.3584 H         1 <0>         0.0952
     15 C12        -0.6800   -4.1602   -3.8152 C.3       1 <0>        -0.1037
     16 C13        -0.9136   -3.8260   -5.2935 C.3       1 <0>        -0.0348
     17 C14         0.3880   -3.3434   -5.8844 C.2       1 <0>         0.0090
     18 C15         1.4439   -2.9324   -5.1500 C.2       1 <0>        -0.0293
     19 N2          2.4254   -2.5775   -6.0238 N.pl3     1 <0>        -0.5609
     20 H2          3.3067   -2.2423   -5.7964 H         1 <0>         0.4201
     21 C16         1.9386   -2.7813   -7.2697 C.2       1 <0>         0.1806
     22 N3          0.7178   -3.2398   -7.1746 N.2       1 <0>        -0.4855
     23 C17         1.4715   -2.8938   -3.6442 C.3       1 <0>        -0.0263
     24 H3          1.0048    1.8381    0.0023 H         1 <0>         0.0780
     25 H4         -0.5450    1.8219   -0.8730 H         1 <0>         0.0902
     26 H5         -0.5280    1.8123    0.9069 H         1 <0>         0.0881
     27 H6         -0.0025   -0.3857   -2.1218 H         1 <0>         0.1818
     28 H7          0.0201    0.5214    2.8280 H         1 <0>         0.1210
     29 H8          0.0593   -1.3010    4.4702 H         1 <0>         0.1285
     30 H9          0.0866   -3.6469    3.7322 H         1 <0>         0.1272
     31 H10         0.0669   -4.1912    1.3344 H         1 <0>         0.1332
     32 H11        -0.0607   -5.0539   -3.7383 H         1 <0>         0.0763
     33 H12        -1.6382   -4.3395   -3.3276 H         1 <0>         0.0766
     34 H13        -1.2486   -4.7180   -5.8229 H         1 <0>         0.0824
     35 H14        -1.6676   -3.0435   -5.3782 H         1 <0>         0.0771
     36 H15         2.4705   -2.5953   -8.1911 H         1 <0>         0.2093
     37 H16         1.9200   -1.9586   -3.3090 H         1 <0>         0.0774
     38 H17         2.0513   -3.7358   -3.2660 H         1 <0>         0.0842
@<TRIPOS>BOND
     1    1    2 1
     2    1   24 1
     3    1   25 1
     4    1   26 1
     5    2    6 1
     6    2    3 1
     7    3    4 2
     8    3   27 1
     9    4    5 1
    10    4   11 1
    11    5   10 ar
    12    5    6 ar
    13    6    7 ar
    14    7    8 ar
    15    7   28 1
    16    8    9 ar
    17    8   29 1
    18    9   10 ar
    19    9   30 1
    20   10   31 1
    21   11   12 2
    22   11   13 1
    23   13   14 1
    24   13   23 1
    25   13   15 1
    26   15   16 1
    27   15   32 1
    28   15   33 1
    29   16   17 1
    30   16   34 1
    31   16   35 1
    32   17   22 1
    33   17   18 2
    34   18   19 1
    35   18   23 1
    36   19   20 1
    37   19   21 1
    38   21   22 2
    39   21   36 1
    40   23   37 1
    41   23   38 1
@<TRIPOS>MOLECULE
ZINC05116719
   39    42     0     0     0
SMALL
USER_CHARGES

@<TRIPOS>ATOM
      1 C1         -0.0178    1.4608    0.0101 C.3       1 <0>         0.0635
      2 N1          0.0021   -0.0041    0.0020 N.pl3     1 <0>        -0.4554
      3 C2          0.0077   -0.7635   -1.1101 C.2       1 <0>         0.1346
      4 C3          0.0281   -2.0968   -0.7603 C.2       1 <0>        -0.2823
      5 C4          0.0354   -2.1349    0.7154 C.ar      1 <0>        -0.0573
      6 C5          0.0236   -0.7947    1.1332 C.ar      1 <0>         0.0727
      7 C6          0.0312   -0.5055    2.4937 C.ar      1 <0>        -0.1181
      8 C7          0.0534   -1.5304    3.4148 C.ar      1 <0>        -0.0971
      9 C8          0.0688   -2.8535    2.9997 C.ar      1 <0>        -0.1258
     10 C9          0.0542   -3.1603    1.6558 C.ar      1 <0>        -0.0748
     11 C10         0.0391   -3.2077   -1.6404 C.2       1 <0>         0.4313
     12 O1          0.0567   -4.3362   -1.1933 O.2       1 <0>        -0.4532
     13 C11         0.0289   -2.9879   -3.1312 C.3       1 <0>        -0.1304
     14 H1         -0.4988   -2.0616   -3.3582 H         1 <0>         0.1045
     15 C12        -0.6808   -4.1599   -3.8148 C.3       1 <0>        -0.1106
     16 C13        -0.9142   -3.8235   -5.2931 C.3       1 <0>        -0.0601
     17 C14         0.3842   -3.3340   -5.8797 C.2       1 <0>         0.0631
     18 C15         1.4443   -2.9222   -5.1516 C.2       1 <0>         0.0292
     19 N2          2.4122   -2.5632   -5.9992 N.pl3     1 <0>        -0.4660
     20 C16         1.9935   -2.7351   -7.2260 C.cat     1 <0>         0.2963
     21 N3          0.7291   -3.2156   -7.1911 N.pl3     1 <0>        -0.5023
     22 H2          0.1736   -3.4339   -7.9557 H         1 <0>         0.4659
     23 C17         1.4712   -2.8930   -3.6435 C.3       1 <0>        -0.0463
     24 H3          1.0048    1.8381    0.0023 H         1 <0>         0.0809
     25 H4         -0.5450    1.8219   -0.8730 H         1 <0>         0.0906
     26 H5         -0.5280    1.8123    0.9069 H         1 <0>         0.0917
     27 H6         -0.0025   -0.3857   -2.1218 H         1 <0>         0.1781
     28 H7          0.0201    0.5214    2.8280 H         1 <0>         0.1239
     29 H8          0.0593   -1.3010    4.4702 H         1 <0>         0.1324
     30 H9          0.0866   -3.6469    3.7322 H         1 <0>         0.1305
     31 H10         0.0669   -4.1912    1.3344 H         1 <0>         0.1334
     32 H11        -0.0618   -5.0539   -3.7388 H         1 <0>         0.0895
     33 H12        -1.6391   -4.3388   -3.3271 H         1 <0>         0.0996
     34 H13        -1.2440   -4.7159   -5.8251 H         1 <0>         0.1077
     35 H14        -1.6718   -3.0444   -5.3772 H         1 <0>         0.1094
     36 H15         2.5629   -2.5272   -8.1198 H         1 <0>         0.2674
     37 H16         1.9211   -1.9605   -3.3027 H         1 <0>         0.1059
     38 H17         2.0496   -3.7381   -3.2702 H         1 <0>         0.1126
     39 H18         3.2863   -2.2283   -5.7452 H         1 <0>         0.4649
@<TRIPOS>BOND
     1    1    2 1
     2    1   24 1
     3    1   25 1
     4    1   26 1
     5    2    6 1
     6    2    3 1
     7    3    4 2
     8    3   27 1
     9    4    5 1
    10    4   11 1
    11    5   10 ar
    12    5    6 ar
    13    6    7 ar
    14    7    8 ar
    15    7   28 1
    16    8    9 ar
    17    8   29 1
    18    9   10 ar
    19    9   30 1
    20   10   31 1
    21   11   12 2
    22   11   13 1
    23   13   14 1
    24   13   23 1
    25   13   15 1
    26   15   16 1
    27   15   32 1
    28   15   33 1
    29   16   17 1
    30   16   34 1
    31   16   35 1
    32   17   21 1
    33   17   18 2
    34   18   19 1
    35   18   23 1
    36   19   20 2
    37   19   39 1
    38   20   21 1
    39   20   36 1
    40   21   22 1
    41   23   37 1
    42   23   38 1
@<TRIPOS>MOLECULE
ZINC05116719
   39    42     0     0     0
SMALL
USER_CHARGES

@<TRIPOS>ATOM
      1 C1         -0.0178    1.4608    0.0101 C.3       1 <0>         0.0634
      2 N1          0.0021   -0.0041    0.0020 N.pl3     1 <0>        -0.4553
      3 C2          0.0077   -0.7635   -1.1101 C.2       1 <0>         0.1348
      4 C3          0.0281   -2.0968   -0.7603 C.2       1 <0>        -0.2824
      5 C4          0.0354   -2.1349    0.7154 C.ar      1 <0>        -0.0573
      6 C5          0.0236   -0.7947    1.1332 C.ar      1 <0>         0.0726
      7 C6          0.0312   -0.5055    2.4937 C.ar      1 <0>        -0.1181
      8 C7          0.0534   -1.5304    3.4148 C.ar      1 <0>        -0.0972
      9 C8          0.0688   -2.8535    2.9997 C.ar      1 <0>        -0.1258
     10 C9          0.0542   -3.1603    1.6558 C.ar      1 <0>        -0.0748
     11 C10         0.0391   -3.2077   -1.6404 C.2       1 <0>         0.4314
     12 O1          0.0567   -4.3362   -1.1933 O.2       1 <0>        -0.4532
     13 C11         0.0289   -2.9879   -3.1312 C.3       1 <0>        -0.1300
     14 H1         -0.4987   -2.0616   -3.3584 H         1 <0>         0.1047
     15 C12        -0.6800   -4.1602   -3.8152 C.3       1 <0>        -0.1110
     16 C13        -0.9136   -3.8260   -5.2935 C.3       1 <0>        -0.0584
     17 C14         0.3880   -3.3434   -5.8844 C.2       1 <0>         0.0323
     18 C15         1.4439   -2.9324   -5.1500 C.2       1 <0>         0.0599
     19 N2          2.4254   -2.5775   -6.0238 N.pl3     1 <0>        -0.5017
     20 H2          3.3067   -2.2423   -5.7964 H         1 <0>         0.4657
     21 C16         1.9386   -2.7813   -7.2697 C.cat     1 <0>         0.2965
     22 N3          0.7178   -3.2398   -7.1746 N.pl3     1 <0>        -0.4666
     23 C17         1.4715   -2.8938   -3.6442 C.3       1 <0>        -0.0479
     24 H3          1.0048    1.8381    0.0023 H         1 <0>         0.0810
     25 H4         -0.5450    1.8219   -0.8730 H         1 <0>         0.0907
     26 H5         -0.5280    1.8123    0.9069 H         1 <0>         0.0917
     27 H6         -0.0025   -0.3857   -2.1218 H         1 <0>         0.1782
     28 H7          0.0201    0.5214    2.8280 H         1 <0>         0.1240
     29 H8          0.0593   -1.3010    4.4702 H         1 <0>         0.1324
     30 H9          0.0866   -3.6469    3.7322 H         1 <0>         0.1305
     31 H10         0.0669   -4.1912    1.3344 H         1 <0>         0.1334
     32 H11        -0.0607   -5.0539   -3.7383 H         1 <0>         0.0892
     33 H12        -1.6382   -4.3395   -3.3276 H         1 <0>         0.0993
     34 H13        -1.2486   -4.7180   -5.8229 H         1 <0>         0.1063
     35 H14        -1.6676   -3.0435   -5.3782 H         1 <0>         0.1076
     36 H15         2.4705   -2.5953   -8.1911 H         1 <0>         0.2674
     37 H16         1.9200   -1.9586   -3.3090 H         1 <0>         0.1074
     38 H17         2.0513   -3.7358   -3.2660 H         1 <0>         0.1143
     39 H18         0.1432   -3.4684   -7.9219 H         1 <0>         0.4652
@<TRIPOS>BOND
     1    1    2 1
     2    1   24 1
     3    1   25 1
     4    1   26 1
     5    2    6 1
     6    2    3 1
     7    3    4 2
     8    3   27 1
     9    4    5 1
    10    4   11 1
    11    5   10 ar
    12    5    6 ar
    13    6    7 ar
    14    7    8 ar
    15    7   28 1
    16    8    9 ar
    17    8   29 1
    18    9   10 ar
    19    9   30 1
    20   10   31 1
    21   11   12 2
    22   11   13 1
    23   13   14 1
    24   13   23 1
    25   13   15 1
    26   15   16 1
    27   15   32 1
    28   15   33 1
    29   16   17 1
    30   16   34 1
    31   16   35 1
    32   17   22 1
    33   17   18 2
    34   18   19 1
    35   18   23 1
    36   19   20 1
    37   19   21 1
    38   21   22 2
    39   21   36 1
    40   22   39 1
    41   23   37 1
    42   23   38 1
@<TRIPOS>MOLECULE
ZINC03775140
   62    64     0     0     0
SMALL
USER_CHARGES

@<TRIPOS>ATOM
      1 C1         -0.0173    1.4248    0.0099 C.3       1 <0>         0.0171
      2 O1          0.0021   -0.0041    0.0020 O.3       1 <0>        -0.2760
      3 C2          0.6048   -0.6061   -1.0540 C.ar      1 <0>         0.2490
      4 C3          1.1714    0.1577   -2.0595 C.ar      1 <0>        -0.2968
      5 C4          1.7875   -0.4643   -3.1379 C.ar      1 <0>         0.3045
      6 C5          1.8368   -1.8562   -3.2112 C.ar      1 <0>        -0.1599
      7 C6          1.2804   -2.6188   -2.2247 C.ar      1 <0>         0.0104
      8 C7          0.6619   -2.0064   -1.1291 C.ar      1 <0>        -0.2378
      9 C8          0.0677   -2.8282   -0.0619 C.2       1 <0>         0.5777
     10 O2         -0.4739   -2.2937    0.8871 O.2       1 <0>        -0.5075
     11 N1          0.1238   -4.1727   -0.1363 N.am      1 <0>        -0.7330
     12 C9         -0.4675   -4.9905    0.9257 C.3       1 <0>         0.1404
     13 H1         -1.3642   -4.5012    1.3060 H         1 <0>         0.1248
     14 C10         0.5437   -5.1622    2.0629 C.3       1 <0>        -0.1546
     15 C11         1.7671   -5.9184    1.5404 C.3       1 <0>        -0.0167
     16 N2          1.3566   -7.2378    1.0453 N.4       1 <0>        -0.3759
     17 C12         0.4423   -7.0806   -0.0921 C.3       1 <0>        -0.0388
     18 C13        -0.8339   -6.3685    0.3670 C.3       1 <0>         0.0659
     19 H2         -1.3203   -6.9585    1.1438 H         1 <0>         0.1015
     20 O3         -1.7219   -6.2131   -0.7418 O.3       1 <0>        -0.3502
     21 C14        -2.6322   -7.3011   -0.9143 C.3       1 <0>         0.0179
     22 C15         2.5438   -7.9895    0.6171 C.3       1 <0>        -0.0062
     23 C16         3.4343   -8.2703    1.8292 C.3       1 <0>        -0.1507
     24 C17         4.6708   -9.0533    1.3832 C.3       1 <0>         0.0614
     25 O4          5.5024   -9.3155    2.5152 O.3       1 <0>        -0.3099
     26 C18         6.6507  -10.0076    2.2904 C.ar      1 <0>         0.1104
     27 C19         6.9722  -10.4203    1.0058 C.ar      1 <0>        -0.1786
     28 C20         8.1394  -11.1237    0.7787 C.ar      1 <0>        -0.1136
     29 C21         8.9878  -11.4170    1.8328 C.ar      1 <0>         0.0730
     30 C22         8.6679  -11.0061    3.1156 C.ar      1 <0>        -0.1109
     31 C23         7.5046  -10.2969    3.3445 C.ar      1 <0>        -0.1156
     32 F1         10.1287  -12.1053    1.6094 F         1 <0>        -0.1339
     33 Cl1         2.6089   -2.6229   -4.5639 Cl        1 <0>        -0.0623
     34 N3          2.3569    0.3038   -4.1485 N.pl3     1 <0>        -0.8495
     35 H3          1.0053    1.8021    0.0021 H         1 <0>         0.0609
     36 H4         -0.5445    1.7859   -0.8732 H         1 <0>         0.0614
     37 H5         -0.5275    1.7763    0.9067 H         1 <0>         0.1085
     38 H6          1.1342    1.2357   -2.0059 H         1 <0>         0.1464
     39 H7          1.3215   -3.6961   -2.2880 H         1 <0>         0.1333
     40 H8          0.5557   -4.5989   -0.8931 H         1 <0>         0.3942
     41 H9          0.8503   -4.1821    2.4284 H         1 <0>         0.1283
     42 H10         0.0859   -5.7273    2.8748 H         1 <0>         0.1026
     43 H11         2.2242   -5.3523    0.7288 H         1 <0>         0.1317
     44 H12         2.4891   -6.0421    2.3475 H         1 <0>         0.1399
     45 H13         0.9276   -6.4898   -0.8690 H         1 <0>         0.1341
     46 H14         0.1862   -8.0624   -0.4903 H         1 <0>         0.1380
     47 H15        -2.0715   -8.2215   -1.0778 H         1 <0>         0.0481
     48 H16        -3.2481   -7.4047   -0.0210 H         1 <0>         0.0566
     49 H17        -3.2712   -7.1071   -1.7758 H         1 <0>         0.1042
     50 H18         2.2339   -8.9329    0.1676 H         1 <0>         0.1368
     51 H19         3.1003   -7.4039   -0.1147 H         1 <0>         0.1356
     52 H20         3.7442   -7.3269    2.2786 H         1 <0>         0.1012
     53 H21         2.8778   -8.8559    2.5610 H         1 <0>         0.1013
     54 H22         4.3608   -9.9967    0.9337 H         1 <0>         0.0740
     55 H23         5.2272   -8.4676    0.6514 H         1 <0>         0.0740
     56 H24         6.3103  -10.1922    0.1835 H         1 <0>         0.1353
     57 H25         8.3900  -11.4451   -0.2214 H         1 <0>         0.1422
     58 H26         9.3304  -11.2359    3.9370 H         1 <0>         0.1482
     59 H27         7.2577   -9.9722    4.3445 H         1 <0>         0.1439
     60 H28         2.3233    1.2719   -4.0992 H         1 <0>         0.4097
     61 H29         2.7876   -0.1289   -4.9023 H         1 <0>         0.4089
     62 H30         0.8896   -7.7426    1.7837 H         1 <0>         0.4252
@<TRIPOS>BOND
     1    1    2 1
     2    1   35 1
     3    1   36 1
     4    1   37 1
     5    2    3 1
     6    3    8 ar
     7    3    4 ar
     8    4    5 ar
     9    4   38 1
    10    5    6 ar
    11    5   34 1
    12    6    7 ar
    13    6   33 1
    14    7    8 ar
    15    7   39 1
    16    8    9 1
    17    9   10 2
    18    9   11 am
    19   11   12 1
    20   11   40 1
    21   12   13 1
    22   12   18 1
    23   12   14 1
    24   14   15 1
    25   14   41 1
    26   14   42 1
    27   15   16 1
    28   15   43 1
    29   15   44 1
    30   16   17 1
    31   16   22 1
    32   16   62 1
    33   17   18 1
    34   17   45 1
    35   17   46 1
    36   18   19 1
    37   18   20 1
    38   20   21 1
    39   21   47 1
    40   21   48 1
    41   21   49 1
    42   22   23 1
    43   22   50 1
    44   22   51 1
    45   23   24 1
    46   23   52 1
    47   23   53 1
    48   24   25 1
    49   24   54 1
    50   24   55 1
    51   25   26 1
    52   26   31 ar
    53   26   27 ar
    54   27   28 ar
    55   27   56 1
    56   28   29 ar
    57   28   57 1
    58   29   30 ar
    59   29   32 1
    60   30   31 ar
    61   30   58 1
    62   31   59 1
    63   34   60 1
    64   34   61 1
@<TRIPOS>MOLECULE
ZINC03830564
   62    64     0     0     0
SMALL
USER_CHARGES

@<TRIPOS>ATOM
      1 C1         -0.0173    1.4248    0.0099 C.3       1 <0>         0.0173
      2 O1          0.0021   -0.0041    0.0020 O.3       1 <0>        -0.2768
      3 C2          0.6048   -0.6061   -1.0540 C.ar      1 <0>         0.2482
      4 C3          1.1714    0.1577   -2.0595 C.ar      1 <0>        -0.2974
      5 C4          1.7875   -0.4643   -3.1379 C.ar      1 <0>         0.3044
      6 C5          1.8368   -1.8562   -3.2112 C.ar      1 <0>        -0.1594
      7 C6          1.2804   -2.6188   -2.2247 C.ar      1 <0>         0.0124
      8 C7          0.6619   -2.0064   -1.1291 C.ar      1 <0>        -0.2376
      9 C8          0.0677   -2.8282   -0.0619 C.2       1 <0>         0.5803
     10 O2         -0.4739   -2.2937    0.8871 O.2       1 <0>        -0.5144
     11 N1          0.1238   -4.1727   -0.1363 N.am      1 <0>        -0.7279
     12 C9         -0.4675   -4.9905    0.9257 C.3       1 <0>         0.1426
     13 H1         -0.3382   -4.4904    1.8855 H         1 <0>         0.1147
     14 C10        -1.9606   -5.1884    0.6484 C.3       1 <0>        -0.1574
     15 C11        -2.5547   -6.1082    1.7173 C.3       1 <0>        -0.0121
     16 N2         -1.8729   -7.4076    1.6837 N.4       1 <0>        -0.3780
     17 C12        -0.4544   -7.2346    2.0193 C.3       1 <0>        -0.0308
     18 C13         0.2219   -6.3574    0.9634 C.3       1 <0>         0.0634
     19 H2          0.1375   -6.8346   -0.0130 H         1 <0>         0.0897
     20 O3          1.6015   -6.1871    1.2946 O.3       1 <0>        -0.3498
     21 C14         2.4612   -7.1803    0.7321 C.3       1 <0>         0.0175
     22 C15        -2.4981   -8.3123    2.6576 C.3       1 <0>        -0.0056
     23 C16        -3.9400   -8.5999    2.2341 C.3       1 <0>        -0.1510
     24 C17        -4.5912   -9.5422    3.2484 C.3       1 <0>         0.0612
     25 O4         -5.9378   -9.8107    2.8528 O.3       1 <0>        -0.3101
     26 C18        -6.6627  -10.6375    3.6523 C.ar      1 <0>         0.1103
     27 C19        -6.0908  -11.1740    4.7964 C.ar      1 <0>        -0.1786
     28 C20        -6.8286  -12.0140    5.6079 C.ar      1 <0>        -0.1136
     29 C21        -8.1381  -12.3209    5.2793 C.ar      1 <0>         0.0729
     30 C22        -8.7100  -11.7865    4.1373 C.ar      1 <0>        -0.1110
     31 C23        -7.9767  -10.9409    3.3276 C.ar      1 <0>        -0.1157
     32 F1         -8.8583  -13.1429    6.0736 F         1 <0>        -0.1339
     33 Cl1         2.6089   -2.6229   -4.5639 Cl        1 <0>        -0.0612
     34 N3          2.3569    0.3038   -4.1485 N.pl3     1 <0>        -0.8498
     35 H3          1.0053    1.8021    0.0021 H         1 <0>         0.0610
     36 H4         -0.5445    1.7859   -0.8732 H         1 <0>         0.0608
     37 H5         -0.5275    1.7763    0.9067 H         1 <0>         0.1075
     38 H6          1.1342    1.2357   -2.0059 H         1 <0>         0.1460
     39 H7          1.3215   -3.6961   -2.2880 H         1 <0>         0.1366
     40 H8          0.5557   -4.5989   -0.8931 H         1 <0>         0.4011
     41 H9         -2.4669   -4.2235    0.6762 H         1 <0>         0.1280
     42 H10        -2.0914   -5.6407   -0.3346 H         1 <0>         0.0936
     43 H11        -2.4236   -5.6548    2.6998 H         1 <0>         0.1373
     44 H12        -3.6177   -6.2510    1.5230 H         1 <0>         0.1408
     45 H13        -0.3681   -6.7573    2.9954 H         1 <0>         0.1434
     46 H14         0.0331   -8.2090    2.0480 H         1 <0>         0.1370
     47 H15         2.1631   -8.1650    1.0923 H         1 <0>         0.0484
     48 H16         2.3857   -7.1529   -0.3549 H         1 <0>         0.0550
     49 H17         3.4905   -6.9808    1.0300 H         1 <0>         0.1046
     50 H18        -1.9380   -9.2465    2.6975 H         1 <0>         0.1365
     51 H19        -2.4951   -7.8445    3.6421 H         1 <0>         0.1371
     52 H20        -4.5001   -7.6657    2.1942 H         1 <0>         0.1015
     53 H21        -3.9430   -9.0676    1.2495 H         1 <0>         0.1005
     54 H22        -4.0310  -10.4764    3.2882 H         1 <0>         0.0740
     55 H23        -4.5881   -9.0744    4.2329 H         1 <0>         0.0745
     56 H24        -5.0691  -10.9353    5.0526 H         1 <0>         0.1356
     57 H25        -6.3836  -12.4318    6.4989 H         1 <0>         0.1423
     58 H26        -9.7315  -12.0270    3.8820 H         1 <0>         0.1482
     59 H27        -8.4246  -10.5203    2.4394 H         1 <0>         0.1438
     60 H28         2.3233    1.2719   -4.0992 H         1 <0>         0.4092
     61 H29         2.7876   -0.1289   -4.9023 H         1 <0>         0.4089
     62 H30        -1.9528   -7.8044    0.7595 H         1 <0>         0.4239
@<TRIPOS>BOND
     1    1    2 1
     2    1   35 1
     3    1   36 1
     4    1   37 1
     5    2    3 1
     6    3    8 ar
     7    3    4 ar
     8    4    5 ar
     9    4   38 1
    10    5    6 ar
    11    5   34 1
    12    6    7 ar
    13    6   33 1
    14    7    8 ar
    15    7   39 1
    16    8    9 1
    17    9   10 2
    18    9   11 am
    19   11   12 1
    20   11   40 1
    21   12   13 1
    22   12   18 1
    23   12   14 1
    24   14   15 1
    25   14   41 1
    26   14   42 1
    27   15   16 1
    28   15   43 1
    29   15   44 1
    30   16   17 1
    31   16   22 1
    32   16   62 1
    33   17   18 1
    34   17   45 1
    35   17   46 1
    36   18   19 1
    37   18   20 1
    38   20   21 1
    39   21   47 1
    40   21   48 1
    41   21   49 1
    42   22   23 1
    43   22   50 1
    44   22   51 1
    45   23   24 1
    46   23   52 1
    47   23   53 1
    48   24   25 1
    49   24   54 1
    50   24   55 1
    51   25   26 1
    52   26   31 ar
    53   26   27 ar
    54   27   28 ar
    55   27   56 1
    56   28   29 ar
    57   28   57 1
    58   29   30 ar
    59   29   32 1
    60   30   31 ar
    61   30   58 1
    62   31   59 1
    63   34   60 1
    64   34   61 1
@<TRIPOS>MOLECULE
ZINC00404157
   42    43     0     0     0
SMALL
USER_CHARGES
4-amino-5-chloro-2-methoxy-N-(3-methoxy-4-piperidyl)-benzamide
@<TRIPOS>ATOM
      1 C1         -1.8054   -3.2486    6.1085 C.3       1 <0>         0.0171
      2 O1         -1.8977   -2.4931    4.8991 O.3       1 <0>        -0.2763
      3 C2         -1.9855   -3.1936    3.7404 C.ar      1 <0>         0.2489
      4 C3         -1.9899   -4.5774    3.7630 C.ar      1 <0>        -0.2967
      5 C4         -2.0738   -5.2891    2.5732 C.ar      1 <0>         0.3046
      6 C5         -2.1603   -4.6140    1.3559 C.ar      1 <0>        -0.1598
      7 C6         -2.1635   -3.2490    1.3231 C.ar      1 <0>         0.0105
      8 C7         -2.0791   -2.5184    2.5136 C.ar      1 <0>        -0.2384
      9 C8         -2.0825   -1.0467    2.4788 C.2       1 <0>         0.5777
     10 O2         -2.0091   -0.4137    3.5148 O.2       1 <0>        -0.5078
     11 N1         -2.1669   -0.4007    1.2990 N.am      1 <0>        -0.7337
     12 C9         -2.1703    1.0639    1.2644 C.3       1 <0>         0.1397
     13 H1         -2.6965    1.4486    2.1379 H         1 <0>         0.1237
     14 C10        -0.7286    1.5791    1.2674 C.3       1 <0>        -0.1569
     15 C11        -0.0127    1.0858    0.0080 C.3       1 <0>        -0.0065
     16 C12        -2.0949    1.0518   -1.2313 C.3       1 <0>        -0.0362
     17 C13        -2.8727    1.5441   -0.0087 C.3       1 <0>         0.0640
     18 H2         -2.9094    2.6334   -0.0152 H         1 <0>         0.1011
     19 O3         -4.2019    1.0209   -0.0465 O.3       1 <0>        -0.3518
     20 C14        -5.1359    1.8558   -0.7340 C.3       1 <0>         0.0180
     21 Cl1        -2.2653   -5.5137   -0.1251 Cl        1 <0>        -0.0617
     22 N2         -2.0718   -6.6802    2.5958 N.pl3     1 <0>        -0.8494
     23 H3         -2.6898   -3.8772    6.2126 H         1 <0>         0.0615
     24 H4         -0.9149   -3.8764    6.0776 H         1 <0>         0.0610
     25 H5         -1.7412   -2.5684    6.9578 H         1 <0>         0.1085
     26 H6         -1.9230   -5.1032    4.7041 H         1 <0>         0.1465
     27 H7         -2.2308   -2.7325    0.3771 H         1 <0>         0.1335
     28 H8         -2.2254   -0.9055    0.4727 H         1 <0>         0.3944
     29 H9         -0.2106    1.2051    2.1506 H         1 <0>         0.1267
     30 H10        -0.7316    2.6691    1.2810 H         1 <0>         0.1022
     31 H11         0.0021   -0.0041    0.0020 H         1 <0>         0.1310
     32 H12         1.0099    1.4629    0.0003 H         1 <0>         0.1395
     33 H13        -2.5844    1.4040   -2.1392 H         1 <0>         0.1384
     34 H14        -2.0703   -0.0380   -1.2313 H         1 <0>         0.1341
     35 H15        -5.1863    2.8268   -0.2414 H         1 <0>         0.0563
     36 H16        -4.8130    1.9885   -1.7665 H         1 <0>         0.0485
     37 H17        -6.1207    1.3889   -0.7184 H         1 <0>         0.1041
     38 H18        -2.1306   -7.1788    1.7659 H         1 <0>         0.4089
     39 H19        -2.0116   -7.1514    3.4415 H         1 <0>         0.4097
     40 N3         -0.7177    1.5794   -1.1903 N.4       1 <0>        -0.5092
     41 H20        -0.2128    1.2727   -2.0301 H         1 <0>         0.4406
     42 H21        -0.7491    2.6054   -1.1656 H         1 <0>         0.4339
@<TRIPOS>BOND
     1    1    2 1
     2    1   23 1
     3    1   24 1
     4    1   25 1
     5    2    3 1
     6    3    8 ar
     7    3    4 ar
     8    4    5 ar
     9    4   26 1
    10    5    6 ar
    11    5   22 1
    12    6    7 ar
    13    6   21 1
    14    7    8 ar
    15    7   27 1
    16    8    9 1
    17    9   10 2
    18    9   11 am
    19   11   12 1
    20   11   28 1
    21   12   13 1
    22   12   17 1
    23   12   14 1
    24   14   15 1
    25   14   29 1
    26   14   30 1
    27   15   31 1
    28   15   32 1
    29   15   40 1
    30   16   17 1
    31   16   33 1
    32   16   34 1
    33   16   40 1
    34   17   18 1
    35   17   19 1
    36   19   20 1
    37   20   35 1
    38   20   36 1
    39   20   37 1
    40   22   38 1
    41   22   39 1
    42   40   41 1
    43   40   42 1
@<TRIPOS>MOLECULE
ZINC00404160
   42    43     0     0     0
SMALL
USER_CHARGES
4-amino-5-chloro-2-methoxy-N-(3-methoxy-4-piperidyl)-benzamide
@<TRIPOS>ATOM
      1 C1         -4.9882    3.5348    0.0453 C.3       1 <0>         0.0171
      2 O1         -3.7033    2.9096    0.0358 O.3       1 <0>        -0.2762
      3 C2         -3.6783    1.5531    0.0279 C.ar      1 <0>         0.2489
      4 C3         -4.8620    0.8358    0.0297 C.ar      1 <0>        -0.2968
      5 C4         -4.8301   -0.5528    0.0220 C.ar      1 <0>         0.3046
      6 C5         -3.6093   -1.2270    0.0126 C.ar      1 <0>        -0.1598
      7 C6         -2.4360   -0.5287    0.0049 C.ar      1 <0>         0.0104
      8 C7         -2.4521    0.8704    0.0184 C.ar      1 <0>        -0.2385
      9 C8         -1.1873    1.6238    0.0165 C.2       1 <0>         0.5776
     10 O2         -1.2038    2.8400    0.0232 O.2       1 <0>        -0.5078
     11 N1         -0.0111    0.9658    0.0074 N.am      1 <0>        -0.7338
     12 C9          1.2475    1.7155   -0.0006 C.3       1 <0>         0.1397
     13 H1          1.1362    2.6206    0.5964 H         1 <0>         0.1235
     14 C10         1.6091    2.0932   -1.4398 C.3       1 <0>        -0.1571
     15 C11         1.8222    0.8179   -2.2585 C.3       1 <0>        -0.0065
     16 C12         2.5551   -0.3916   -0.2907 C.3       1 <0>        -0.0362
     17 C13         2.3639    0.8476    0.5867 C.3       1 <0>         0.0641
     18 H2          3.2916    1.4190    0.6166 H         1 <0>         0.1012
     19 O3          2.0082    0.4444    1.9107 O.3       1 <0>        -0.3518
     20 C14         3.1263    0.2474    2.7785 C.3       1 <0>         0.0180
     21 Cl1        -3.5813   -2.9628    0.0025 Cl        1 <0>        -0.0617
     22 N2         -6.0201   -1.2735    0.0234 N.pl3     1 <0>        -0.8494
     23 H3         -4.8653    4.6179    0.0509 H         1 <0>         0.1085
     24 H4         -5.5438    3.2369   -0.8439 H         1 <0>         0.0610
     25 H5         -5.5357    3.2266    0.9360 H         1 <0>         0.0615
     26 H6         -5.8090    1.3550    0.0367 H         1 <0>         0.1465
     27 H7         -1.4941   -1.0570   -0.0069 H         1 <0>         0.1335
     28 H8          0.0021   -0.0041    0.0020 H         1 <0>         0.3945
     29 H9          0.7985    2.6756   -1.8778 H         1 <0>         0.1267
     30 H10         2.5245    2.6848   -1.4418 H         1 <0>         0.1023
     31 H11         0.9017    0.2340   -2.2675 H         1 <0>         0.1309
     32 H12         2.0939    1.0833   -3.2802 H         1 <0>         0.1395
     33 H13         1.6312   -0.9698   -0.3089 H         1 <0>         0.1341
     34 H14         3.3590   -1.0046    0.1168 H         1 <0>         0.1384
     35 H15         3.7721   -0.5291    2.3684 H         1 <0>         0.0485
     36 H16         3.6871    1.1780    2.8654 H         1 <0>         0.0563
     37 H17         2.7726   -0.0570    3.7635 H         1 <0>         0.1041
     38 H18        -6.8701   -0.8062    0.0296 H         1 <0>         0.4097
     39 H19        -5.9998   -2.2433    0.0180 H         1 <0>         0.4090
     40 N3          2.9105    0.0199   -1.6622 N.4       1 <0>        -0.5092
     41 H20         3.7677    0.5844   -1.6345 H         1 <0>         0.4339
     42 H21         3.0699   -0.8167   -2.2357 H         1 <0>         0.4406
@<TRIPOS>BOND
     1    1    2 1
     2    1   23 1
     3    1   24 1
     4    1   25 1
     5    2    3 1
     6    3    8 ar
     7    3    4 ar
     8    4    5 ar
     9    4   26 1
    10    5    6 ar
    11    5   22 1
    12    6    7 ar
    13    6   21 1
    14    7    8 ar
    15    7   27 1
    16    8    9 1
    17    9   10 2
    18    9   11 am
    19   11   12 1
    20   11   28 1
    21   12   13 1
    22   12   17 1
    23   12   14 1
    24   14   15 1
    25   14   29 1
    26   14   30 1
    27   15   31 1
    28   15   32 1
    29   15   40 1
    30   16   17 1
    31   16   33 1
    32   16   34 1
    33   16   40 1
    34   17   18 1
    35   17   19 1
    36   19   20 1
    37   20   35 1
    38   20   36 1
    39   20   37 1
    40   22   38 1
    41   22   39 1
    42   40   41 1
    43   40   42 1
@<TRIPOS>MOLECULE
ZINC05019451
   42    43     0     0     0
SMALL
USER_CHARGES
4-amino-5-chloro-2-methoxy-N-(3-methoxy-4-piperidyl)-benzamide
@<TRIPOS>ATOM
      1 C1         -0.1280   -4.2564   -0.0191 C.3       1 <0>         0.0173
      2 O1         -0.0657   -2.8288   -0.0120 O.3       1 <0>        -0.2770
      3 C2         -1.2465   -2.1608    0.0024 C.ar      1 <0>         0.2483
      4 C3         -2.4409   -2.8599    0.0100 C.ar      1 <0>        -0.2975
      5 C4         -3.6467   -2.1706    0.0251 C.ar      1 <0>         0.3046
      6 C5         -3.6580   -0.7759    0.0323 C.ar      1 <0>        -0.1596
      7 C6         -2.4851   -0.0768    0.0312 C.ar      1 <0>         0.0125
      8 C7         -1.2627   -0.7574    0.0100 C.ar      1 <0>        -0.2381
      9 C8          0.0021   -0.0041    0.0020 C.2       1 <0>         0.5802
     10 O2          1.0635   -0.5978   -0.0113 O.2       1 <0>        -0.5146
     11 N1         -0.0162    1.3436    0.0094 N.am      1 <0>        -0.7282
     12 C9          1.2424    2.0932    0.0014 C.3       1 <0>         0.1417
     13 H1          1.9916    1.5535    0.5807 H         1 <0>         0.1138
     14 C10         1.7310    2.2575   -1.4404 C.3       1 <0>        -0.1603
     15 C11         3.0131    3.0931   -1.4473 C.3       1 <0>        -0.0014
     16 C12         2.3203    4.2775    0.5501 C.3       1 <0>        -0.0281
     17 C13         1.0179    3.4767    0.6181 C.3       1 <0>         0.0616
     18 H2          0.2401    4.0008    0.0627 H         1 <0>         0.0895
     19 O3          0.6161    3.3317    1.9817 O.3       1 <0>        -0.3512
     20 C14        -0.2359    4.3785    2.4511 C.3       1 <0>         0.0177
     21 Cl1        -5.1709    0.0753    0.0506 Cl        1 <0>        -0.0610
     22 N2         -4.8471   -2.8736    0.0328 N.pl3     1 <0>        -0.8497
     23 H3         -0.6653   -4.5923   -0.9060 H         1 <0>         0.0608
     24 H4          0.8828   -4.6642   -0.0305 H         1 <0>         0.1076
     25 H5         -0.6490   -4.6018    0.8738 H         1 <0>         0.0611
     26 H6         -2.4355   -3.9399    0.0045 H         1 <0>         0.1461
     27 H7         -2.5010    1.0030    0.0420 H         1 <0>         0.1366
     28 H8         -0.8627    1.8171    0.0160 H         1 <0>         0.4010
     29 H9          1.9338    1.2764   -1.8699 H         1 <0>         0.1264
     30 H10         0.9645    2.7612   -2.0292 H         1 <0>         0.0931
     31 H11         3.7832    2.5815   -0.8699 H         1 <0>         0.1367
     32 H12         3.3558    3.2240   -2.4737 H         1 <0>         0.1402
     33 H13         3.0936    3.7604    1.1181 H         1 <0>         0.1434
     34 H14         2.1596    5.2686    0.9743 H         1 <0>         0.1370
     35 H15        -0.4960    4.1954    3.4936 H         1 <0>         0.1045
     36 H16         0.2827    5.3337    2.3684 H         1 <0>         0.0489
     37 H17        -1.1443    4.4050    1.8492 H         1 <0>         0.0547
     38 H18        -4.8411   -3.8436    0.0275 H         1 <0>         0.4093
     39 H19        -5.6901   -2.3939    0.0434 H         1 <0>         0.4089
     40 N3          2.7466    4.4179   -0.8553 N.4       1 <0>        -0.5111
     41 H20         2.0035    4.8837   -1.3893 H         1 <0>         0.4324
     42 H21         3.6023    4.9841   -0.8943 H         1 <0>         0.4417
@<TRIPOS>BOND
     1    1    2 1
     2    1   23 1
     3    1   24 1
     4    1   25 1
     5    2    3 1
     6    3    8 ar
     7    3    4 ar
     8    4    5 ar
     9    4   26 1
    10    5    6 ar
    11    5   22 1
    12    6    7 ar
    13    6   21 1
    14    7    8 ar
    15    7   27 1
    16    8    9 1
    17    9   10 2
    18    9   11 am
    19   11   12 1
    20   11   28 1
    21   12   13 1
    22   12   17 1
    23   12   14 1
    24   14   15 1
    25   14   29 1
    26   14   30 1
    27   15   31 1
    28   15   32 1
    29   15   40 1
    30   16   17 1
    31   16   33 1
    32   16   34 1
    33   16   40 1
    34   17   18 1
    35   17   19 1
    36   19   20 1
    37   20   35 1
    38   20   36 1
    39   20   37 1
    40   22   38 1
    41   22   39 1
    42   40   41 1
    43   40   42 1
@<TRIPOS>MOLECULE
ZINC05019457
   42    43     0     0     0
SMALL
USER_CHARGES
4-amino-5-chloro-2-methoxy-N-(3-methoxy-4-piperidyl)-benzamide
@<TRIPOS>ATOM
      1 C1         -1.3883    6.4971    0.0489 C.3       1 <0>         0.0173
      2 O1         -0.1050    5.8687    0.0332 O.3       1 <0>        -0.2770
      3 C2         -0.0835    4.5121    0.0266 C.ar      1 <0>         0.2482
      4 C3         -1.2689    3.7977    0.0346 C.ar      1 <0>        -0.2974
      5 C4         -1.2406    2.4091    0.0210 C.ar      1 <0>         0.3045
      6 C5         -0.0215    1.7317    0.0116 C.ar      1 <0>        -0.1595
      7 C6          1.1536    2.4271    0.0041 C.ar      1 <0>         0.0124
      8 C7          1.1409    3.8263    0.0112 C.ar      1 <0>        -0.2380
      9 C8          2.4076    4.5765    0.0032 C.2       1 <0>         0.5802
     10 O2          2.3942    5.7927    0.0094 O.2       1 <0>        -0.5147
     11 N1          3.5821    3.9156   -0.0111 N.am      1 <0>        -0.7282
     12 C9          4.8427    4.6621   -0.0192 C.3       1 <0>         0.1417
     13 H1          4.7321    5.5699    0.5739 H         1 <0>         0.1139
     14 C10         5.2094    5.0314   -1.4592 C.3       1 <0>        -0.1600
     15 C11         6.5566    5.7574   -1.4670 C.3       1 <0>        -0.0015
     16 C12         7.2806    4.5562    0.5091 C.3       1 <0>        -0.0279
     17 C13         5.9550    3.7944    0.5760 C.3       1 <0>         0.0613
     18 H2          6.0383    2.8685    0.0068 H         1 <0>         0.0896
     19 O3          5.6464    3.4910    1.9379 O.3       1 <0>        -0.3513
     20 C14         6.1619    2.2354    2.3849 C.3       1 <0>         0.0177
     21 Cl1         0.0021   -0.0041    0.0020 Cl        1 <0>        -0.0610
     22 N2         -2.4324    1.6914    0.0228 N.pl3     1 <0>        -0.8498
     23 H3         -1.9317    6.1912    0.9429 H         1 <0>         0.0611
     24 H4         -1.2627    7.5798    0.0528 H         1 <0>         0.1076
     25 H5         -1.9494    6.1995   -0.8370 H         1 <0>         0.0608
     26 H6         -2.2145    4.3193    0.0464 H         1 <0>         0.1461
     27 H7          2.0941    1.8964   -0.0078 H         1 <0>         0.1366
     28 H8          3.5929    2.9456   -0.0161 H         1 <0>         0.4010
     29 H9          5.2810    4.1251   -2.0604 H         1 <0>         0.0931
     30 H10         4.4417    5.6845   -1.8742 H         1 <0>         0.1264
     31 H11         6.4805    6.6708   -0.8770 H         1 <0>         0.1367
     32 H12         6.8274    6.0090   -2.4925 H         1 <0>         0.1402
     33 H13         7.2010    5.4752    1.0899 H         1 <0>         0.1435
     34 H14         8.0773    3.9355    0.9191 H         1 <0>         0.1371
     35 H15         5.8850    2.0793    3.4275 H         1 <0>         0.1045
     36 H16         5.7458    1.4338    1.7746 H         1 <0>         0.0547
     37 H17         7.2480    2.2352    2.2935 H         1 <0>         0.0489
     38 H18        -2.4145    0.7215    0.0175 H         1 <0>         0.4089
     39 H19        -3.2812    2.1608    0.0294 H         1 <0>         0.4093
     40 N3          7.5969    4.8819   -0.8947 N.4       1 <0>        -0.5111
     41 H20         8.5032    5.3628   -0.9343 H         1 <0>         0.4416
     42 H21         7.6461    4.0136   -1.4405 H         1 <0>         0.4324
@<TRIPOS>BOND
     1    1    2 1
     2    1   23 1
     3    1   24 1
     4    1   25 1
     5    2    3 1
     6    3    8 ar
     7    3    4 ar
     8    4    5 ar
     9    4   26 1
    10    5    6 ar
    11    5   22 1
    12    6    7 ar
    13    6   21 1
    14    7    8 ar
    15    7   27 1
    16    8    9 1
    17    9   10 2
    18    9   11 am
    19   11   12 1
    20   11   28 1
    21   12   13 1
    22   12   17 1
    23   12   14 1
    24   14   15 1
    25   14   29 1
    26   14   30 1
    27   15   31 1
    28   15   32 1
    29   15   40 1
    30   16   17 1
    31   16   33 1
    32   16   34 1
    33   16   40 1
    34   17   18 1
    35   17   19 1
    36   19   20 1
    37   20   35 1
    38   20   36 1
    39   20   37 1
    40   22   38 1
    41   22   39 1
    42   40   41 1
    43   40   42 1
@<TRIPOS>MOLECULE
ZINC03990028
   36    38     0     0     0
SMALL
USER_CHARGES

@<TRIPOS>ATOM
      1 C1         -0.0169    1.3919    0.0097 C.ar      1 <0>        -0.0399
      2 C2          1.1695    2.0948    0.0021 C.ar      1 <0>        -0.1145
      3 C3          2.3782    1.4186   -0.0130 C.ar      1 <0>        -0.0027
      4 C4          2.4034    0.0338   -0.0212 C.ar      1 <0>        -0.1172
      5 C5          1.2236   -0.6800   -0.0137 C.ar      1 <0>        -0.0734
      6 C6          0.0021   -0.0041    0.0020 C.ar      1 <0>        -0.1487
      7 C7         -1.2659   -0.7632    0.0100 C.2       1 <0>         0.5690
      8 O1         -2.3281   -0.1722    0.0234 O.2       1 <0>        -0.5168
      9 N1         -1.2445   -2.1108    0.0026 N.am      1 <0>        -0.7311
     10 C8         -2.5014   -2.8634    0.0106 C.3       1 <0>         0.1375
     11 H1         -3.2413   -2.3324    0.6096 H         1 <0>         0.1274
     12 C9         -3.0163   -3.0169   -1.4224 C.3       1 <0>        -0.0229
     13 N2         -3.1160   -4.4364   -1.7700 N.4       1 <0>        -0.3746
     14 C10        -1.8001   -5.0767   -1.7057 C.3       1 <0>        -0.0089
     15 C11        -1.2448   -4.9915   -0.2822 C.3       1 <0>        -0.1415
     16 C12        -2.2624   -4.2572    0.6057 C.3       1 <0>        -0.1095
     17 C13        -3.5854   -5.0334    0.5667 C.3       1 <0>        -0.1335
     18 C14        -4.0653   -5.1181   -0.8869 C.3       1 <0>        -0.0096
     19 Cl1         3.8676    2.3104   -0.0225 Cl        1 <0>        -0.0448
     20 H2         -0.9587    1.9202    0.0260 H         1 <0>         0.1488
     21 H3          1.1561    3.1747    0.0077 H         1 <0>         0.1477
     22 H4          3.3489   -0.4880   -0.0337 H         1 <0>         0.1449
     23 H5          1.2444   -1.7598   -0.0205 H         1 <0>         0.1311
     24 H6         -0.3969   -2.5824   -0.0080 H         1 <0>         0.4058
     25 H7         -3.9998   -2.5544   -1.5048 H         1 <0>         0.1406
     26 H8         -2.3279   -2.5240   -2.1088 H         1 <0>         0.1336
     27 H9         -1.8926   -6.1234   -1.9957 H         1 <0>         0.1342
     28 H10        -1.1186   -4.5723   -2.3906 H         1 <0>         0.1296
     29 H11        -1.0800   -5.9964    0.1064 H         1 <0>         0.1089
     30 H12        -0.3037   -4.4416   -0.2896 H         1 <0>         0.0953
     31 H13        -1.8871   -4.1731    1.6256 H         1 <0>         0.1262
     32 H14        -3.4314   -6.0378    0.9610 H         1 <0>         0.1082
     33 H15        -4.3318   -4.5135    1.1672 H         1 <0>         0.1052
     34 H16        -5.0430   -4.6439   -0.9719 H         1 <0>         0.1330
     35 H17        -4.1459   -6.1645   -1.1814 H         1 <0>         0.1335
     36 H18        -3.4528   -4.5100   -2.7183 H         1 <0>         0.4288
@<TRIPOS>BOND
     1    1    6 ar
     2    1    2 ar
     3    1   20 1
     4    2    3 ar
     5    2   21 1
     6    3    4 ar
     7    3   19 1
     8    4    5 ar
     9    4   22 1
    10    5    6 ar
    11    5   23 1
    12    6    7 1
    13    7    8 2
    14    7    9 am
    15    9   10 1
    16    9   24 1
    17   10   11 1
    18   10   16 1
    19   10   12 1
    20   12   13 1
    21   12   25 1
    22   12   26 1
    23   13   18 1
    24   13   14 1
    25   13   36 1
    26   14   15 1
    27   14   27 1
    28   14   28 1
    29   15   16 1
    30   15   29 1
    31   15   30 1
    32   16   17 1
    33   16   31 1
    34   17   18 1
    35   17   32 1
    36   17   33 1
    37   18   34 1
    38   18   35 1
@<TRIPOS>MOLECULE
ZINC00000848
   42    44     0     0     0
SMALL
USER_CHARGES
4-amino-5-chloro-2-methoxy-N-quinuclidin-3-yl-benzamide
@<TRIPOS>ATOM
      1 C1         -3.6215    3.3204    0.0535 C.3       1 <0>         0.0170
      2 O1         -2.4317    4.1119    0.0464 O.3       1 <0>        -0.2774
      3 C2         -1.2494    3.4465    0.0316 C.ar      1 <0>         0.2496
      4 C3         -1.2303    2.0627    0.0191 C.ar      1 <0>        -0.2975
      5 C4         -0.0168    1.3870    0.0097 C.ar      1 <0>         0.3064
      6 C5          1.1828    2.0983    0.0020 C.ar      1 <0>        -0.1593
      7 C6          1.1749    3.4637    0.0090 C.ar      1 <0>         0.0113
      8 C7         -0.0398    4.1582    0.0239 C.ar      1 <0>        -0.2423
      9 C8         -0.0489    5.6303    0.0318 C.2       1 <0>         0.5767
     10 O2         -1.1059    6.2319    0.0448 O.2       1 <0>        -0.5095
     11 N1          1.1141    6.3114    0.0248 N.am      1 <0>        -0.7377
     12 C9          1.1051    7.7764    0.0328 C.3       1 <0>         0.1419
     13 H1          0.2535    8.1395   -0.5427 H         1 <0>         0.1262
     14 C10         1.0059    8.2811    1.4752 C.3       1 <0>        -0.0171
     15 C11         2.2521   10.2826    0.9188 C.3       1 <0>        -0.0029
     16 C12         2.3863    9.8348   -0.5394 C.3       1 <0>        -0.1335
     17 C13         2.4060    8.3018   -0.5871 C.3       1 <0>        -0.1103
     18 C14         3.5863    7.8012    0.2551 C.3       1 <0>        -0.1391
     19 C15         3.4186    8.3060    1.6910 C.3       1 <0>        -0.0021
     20 Cl1         2.6937    1.2435   -0.0158 Cl        1 <0>        -0.0590
     21 N2          0.0021   -0.0041    0.0020 N.pl3     1 <0>        -0.8484
     22 H2         -3.6480    2.6961   -0.8396 H         1 <0>         0.0619
     23 H3         -3.6310    2.6866    0.9402 H         1 <0>         0.0613
     24 H4         -4.4932    3.9748    0.0653 H         1 <0>         0.1085
     25 H5         -2.1576    1.5090    0.0208 H         1 <0>         0.1468
     26 H6          2.1074    4.0084    0.0034 H         1 <0>         0.1363
     27 H7          1.9571    5.8317    0.0145 H         1 <0>         0.4018
     28 H8          0.1049    8.8841    1.5884 H         1 <0>         0.1370
     29 H9          0.9626    7.4309    2.1559 H         1 <0>         0.1317
     30 H10         3.1157   10.8879    1.1943 H         1 <0>         0.1301
     31 H11         1.3426   10.8719    1.0360 H         1 <0>         0.1303
     32 H12         3.3143   10.2251   -0.9574 H         1 <0>         0.1066
     33 H13         1.5404   10.2074   -1.1172 H         1 <0>         0.1047
     34 H14         2.4946    7.9599   -1.6183 H         1 <0>         0.1242
     35 H15         3.6018    6.7113    0.2506 H         1 <0>         0.0960
     36 H16         4.5190    8.1833   -0.1598 H         1 <0>         0.1076
     37 H17         4.2727    8.9274    1.9601 H         1 <0>         0.1308
     38 H18         3.3583    7.4560    2.3706 H         1 <0>         0.1276
     39 H19         0.8486   -0.4776   -0.0086 H         1 <0>         0.4095
     40 H20        -0.8313   -0.5005    0.0073 H         1 <0>         0.4100
     41 N3          2.1833    9.1087    1.8150 N.4       1 <0>        -0.3901
     42 H21         2.0932    9.4343    2.7846 H         1 <0>         0.4343
@<TRIPOS>BOND
     1    1    2 1
     2    1   22 1
     3    1   23 1
     4    1   24 1
     5    2    3 1
     6    3    8 ar
     7    3    4 ar
     8    4    5 ar
     9    4   25 1
    10    5    6 ar
    11    5   21 1
    12    6    7 ar
    13    6   20 1
    14    7    8 ar
    15    7   26 1
    16    8    9 1
    17    9   10 2
    18    9   11 am
    19   11   12 1
    20   11   27 1
    21   12   13 1
    22   12   17 1
    23   12   14 1
    24   14   28 1
    25   14   29 1
    26   14   41 1
    27   15   16 1
    28   15   30 1
    29   15   31 1
    30   15   41 1
    31   16   17 1
    32   16   32 1
    33   16   33 1
    34   17   18 1
    35   17   34 1
    36   18   19 1
    37   18   35 1
    38   18   36 1
    39   19   37 1
    40   19   38 1
    41   19   41 1
    42   21   39 1
    43   21   40 1
    44   41   42 1
@<TRIPOS>MOLECULE
ZINC00003961
   42    44     0     0     0
SMALL
USER_CHARGES

@<TRIPOS>ATOM
      1 C1         -0.0173    1.4248    0.0099 C.3       1 <0>         0.0170
      2 O1          0.0021   -0.0041    0.0020 O.3       1 <0>        -0.2774
      3 C2         -1.1983   -0.6364    0.0101 C.ar      1 <0>         0.2497
      4 C3         -2.3712    0.0982    0.0194 C.ar      1 <0>        -0.2976
      5 C4         -3.5971   -0.5547    0.0272 C.ar      1 <0>         0.3065
      6 C5         -3.6504   -1.9484    0.0260 C.ar      1 <0>        -0.1594
      7 C6         -2.4991   -2.6824    0.0173 C.ar      1 <0>         0.0113
      8 C7         -1.2567   -2.0387    0.0031 C.ar      1 <0>        -0.2425
      9 C8         -0.0151   -2.8296   -0.0130 C.2       1 <0>         0.5766
     10 O2          1.0637   -2.2679   -0.0202 O.2       1 <0>        -0.5096
     11 N1         -0.0739   -4.1760   -0.0196 N.am      1 <0>        -0.7377
     12 C9          1.1616   -4.9631   -0.0357 C.3       1 <0>         0.1404
     13 H1          1.9273   -4.4530    0.5489 H         1 <0>         0.1257
     14 C10         1.6444   -5.1305   -1.4782 C.3       1 <0>        -0.0230
     15 N2          1.6981   -6.5521   -1.8273 N.4       1 <0>        -0.3745
     16 C11         0.3665   -7.1558   -1.7375 C.3       1 <0>        -0.0085
     17 C12        -0.1588   -7.0555   -0.3036 C.3       1 <0>        -0.1412
     18 C13         0.8956   -6.3500    0.5644 C.3       1 <0>        -0.1094
     19 C14         2.1956   -7.1625    0.5001 C.3       1 <0>        -0.1333
     20 C15         2.6449   -7.2601   -0.9624 C.3       1 <0>        -0.0090
     21 Cl1        -5.1881   -2.7540    0.0363 Cl        1 <0>        -0.0589
     22 N3         -4.7760    0.1840    0.0366 N.pl3     1 <0>        -0.8483
     23 H2          1.0053    1.8021    0.0021 H         1 <0>         0.1085
     24 H3         -0.5445    1.7859   -0.8732 H         1 <0>         0.0613
     25 H4         -0.5275    1.7763    0.9067 H         1 <0>         0.0620
     26 H5         -2.3333    1.1775    0.0211 H         1 <0>         0.1468
     27 H6         -2.5474   -3.7613    0.0172 H         1 <0>         0.1363
     28 H7         -0.9342   -4.6240   -0.0138 H         1 <0>         0.4019
     29 H8          0.9568   -4.6185   -2.1514 H         1 <0>         0.1336
     30 H9          2.6386   -4.6953   -1.5796 H         1 <0>         0.1391
     31 H10        -0.3139   -6.6324   -2.4093 H         1 <0>         0.1295
     32 H11         0.4244   -8.2045   -2.0290 H         1 <0>         0.1328
     33 H12        -1.0843   -6.4799   -0.2931 H         1 <0>         0.0959
     34 H13        -0.3439   -8.0556    0.0883 H         1 <0>         0.1074
     35 H14         0.5425   -6.2558    1.5913 H         1 <0>         0.1255
     36 H15         2.9675   -6.6636    1.0860 H         1 <0>         0.1045
     37 H16         2.0215   -8.1623    0.8976 H         1 <0>         0.1068
     38 H17         2.6909   -8.3082   -1.2582 H         1 <0>         0.1321
     39 H18         3.6336   -6.8130   -1.0663 H         1 <0>         0.1322
     40 H19        -4.7409    1.1534    0.0377 H         1 <0>         0.4100
     41 H20        -5.6330   -0.2703    0.0420 H         1 <0>         0.4095
     42 H21         2.0144   -6.6347   -2.7818 H         1 <0>         0.4276
@<TRIPOS>BOND
     1    1    2 1
     2    1   23 1
     3    1   24 1
     4    1   25 1
     5    2    3 1
     6    3    8 ar
     7    3    4 ar
     8    4    5 ar
     9    4   26 1
    10    5    6 ar
    11    5   22 1
    12    6    7 ar
    13    6   21 1
    14    7    8 ar
    15    7   27 1
    16    8    9 1
    17    9   10 2
    18    9   11 am
    19   11   12 1
    20   11   28 1
    21   12   13 1
    22   12   18 1
    23   12   14 1
    24   14   15 1
    25   14   29 1
    26   14   30 1
    27   15   20 1
    28   15   16 1
    29   15   42 1
    30   16   17 1
    31   16   31 1
    32   16   32 1
    33   17   18 1
    34   17   33 1
    35   17   34 1
    36   18   19 1
    37   18   35 1
    38   19   20 1
    39   19   36 1
    40   19   37 1
    41   20   38 1
    42   20   39 1
    43   22   40 1
    44   22   41 1
@<TRIPOS>MOLECULE
ZINC19376338
   32    34     0     0     0
SMALL
USER_CHARGES

@<TRIPOS>ATOM
      1 C1         -0.0239    1.3370    0.2441 C.ar      1 <0>        -0.1256
      2 C2          1.1550    2.0478    0.4568 C.ar      1 <0>        -0.0782
      3 C3          2.3643    1.4231    0.4379 C.ar      1 <0>        -0.1141
      4 C4          2.4311    0.0393    0.2011 C.ar      1 <0>         0.1744
      5 C5          1.2312   -0.6814   -0.0144 C.ar      1 <0>        -0.1375
      6 C6          0.0018   -0.0048    0.0116 C.ar      1 <0>        -0.0809
      7 C7          1.2976   -2.0694   -0.2519 C.ar      1 <0>        -0.0096
      8 C8          2.5231   -2.6645   -0.2643 C.ar      1 <0>        -0.2222
      9 C9          3.6751   -1.8960   -0.0441 C.ar      1 <0>         0.4150
     10 N1          3.6064   -0.5993    0.1777 N.ar      1 <0>        -0.5363
     11 N2          4.9157   -2.5156   -0.0597 N.pl3     1 <0>        -0.6266
     12 C10         6.1561   -1.7247   -0.0617 C.3       1 <0>         0.1015
     13 C11         7.0719   -2.2550    1.0465 C.3       1 <0>        -0.0225
     14 N3          7.2730   -3.6982    0.8653 N.4       1 <0>        -0.5046
     15 C12         5.9976   -4.4059    1.0344 C.3       1 <0>        -0.0221
     16 C13         5.0286   -3.9823   -0.0687 C.3       1 <0>         0.0992
     17 H1         -0.9708    1.8557    0.2683 H         1 <0>         0.1324
     18 H2          1.1089    3.1113    0.6392 H         1 <0>         0.1343
     19 H3          3.2692    1.9888    0.6039 H         1 <0>         0.1349
     20 H4         -0.9189   -0.5453   -0.1515 H         1 <0>         0.1333
     21 H5          0.4000   -2.6463   -0.4193 H         1 <0>         0.1464
     22 H6          2.6072   -3.7262   -0.4432 H         1 <0>         0.1365
     23 H7          6.6530   -1.8250   -1.0266 H         1 <0>         0.0880
     24 H8          5.9227   -0.6768    0.1263 H         1 <0>         0.1390
     25 H9          8.0340   -1.7450    0.9980 H         1 <0>         0.1449
     26 H10         6.6116   -2.0712    2.0173 H         1 <0>         0.1341
     27 H11         7.6328   -3.8727   -0.0611 H         1 <0>         0.4286
     28 H12         6.1681   -5.4809    0.9769 H         1 <0>         0.1469
     29 H13         5.5698   -4.1571    2.0056 H         1 <0>         0.1344
     30 H14         4.0501   -4.4261    0.1146 H         1 <0>         0.1284
     31 H15         5.4097   -4.3144   -1.0344 H         1 <0>         0.0943
     32 H16         7.9351   -4.0327    1.5492 H         1 <0>         0.4339
@<TRIPOS>BOND
     1    1    6 ar
     2    1    2 ar
     3    1   17 1
     4    2    3 ar
     5    2   18 1
     6    3    4 ar
     7    3   19 1
     8    4   10 ar
     9    4    5 ar
    10    5    6 ar
    11    5    7 ar
    12    6   20 1
    13    7    8 ar
    14    7   21 1
    15    8    9 ar
    16    8   22 1
    17    9   10 ar
    18    9   11 1
    19   11   16 1
    20   11   12 1
    21   12   13 1
    22   12   23 1
    23   12   24 1
    24   13   14 1
    25   13   25 1
    26   13   26 1
    27   14   15 1
    28   14   27 1
    29   14   32 1
    30   15   16 1
    31   15   28 1
    32   15   29 1
    33   16   30 1
    34   16   31 1
@<TRIPOS>MOLECULE
ZINC34034921
   38    41     0     0     0
SMALL
USER_CHARGES
N-[(3R)-quinuclidin-3-yl]furo[2,3-c]pyridine-5-carboxamide
@<TRIPOS>ATOM
      1 C1          7.5561   -0.1338   -4.0292 C.2       1 <0>        -0.2079
      2 C2          7.5019   -0.5593   -5.3008 C.2       1 <0>         0.0370
      3 O1          6.2252   -0.6150   -5.7171 O.3       1 <0>        -0.1764
      4 C3          5.3834   -0.2296   -4.7409 C.ar      1 <0>         0.0214
      5 C4          6.1704    0.0969   -3.6184 C.ar      1 <0>        -0.1044
      6 C5          5.5382    0.5318   -2.4544 C.ar      1 <0>        -0.0450
      7 C6          4.1510    0.6258   -2.4489 C.ar      1 <0>         0.0289
      8 N1          3.4415    0.3028   -3.5286 N.ar      1 <0>        -0.4404
      9 C7          4.0012   -0.1047   -4.6451 C.ar      1 <0>         0.1439
     10 C8          3.4544    1.0845   -1.2269 C.2       1 <0>         0.5899
     11 O2          4.0945    1.3764   -0.2358 O.2       1 <0>        -0.5244
     12 N2          2.1100    1.1786   -1.2127 N.am      1 <0>        -0.7322
     13 C9          1.4202    1.6328   -0.0027 C.3       1 <0>         0.1362
     14 H1          1.9978    1.2499    0.8516 H         1 <0>         0.1247
     15 C10         1.3652    3.1631    0.0161 C.3       1 <0>        -0.0176
     16 N3         -0.0373    3.6000    0.0381 N.4       1 <0>        -0.3924
     17 C11        -0.7182    3.1280    1.2517 C.3       1 <0>        -0.0054
     18 C12        -0.7220    1.5968    1.2685 C.3       1 <0>        -0.1375
     19 C13        -0.0127    1.0858    0.0080 C.3       1 <0>        -0.1094
     20 C14        -0.7459    1.6102   -1.2331 C.3       1 <0>        -0.1389
     21 C15        -0.7474    3.1567   -1.1695 C.3       1 <0>        -0.0064
     22 H2          8.4431    0.0101   -3.4302 H         1 <0>         0.1716
     23 H3          8.3601   -0.8191   -5.9027 H         1 <0>         0.2225
     24 H4          6.1128    0.7900   -1.5771 H         1 <0>         0.1548
     25 H5          3.3819   -0.3500   -5.4952 H         1 <0>         0.1791
     26 H6          1.5307    0.9144   -2.1097 H         1 <0>         0.4385
     27 H7          1.8810    3.5375    0.9126 H         1 <0>         0.1390
     28 H8          1.8595    3.5589   -0.8834 H         1 <0>         0.1335
     29 H9         -0.1883    3.5042    2.1392 H         1 <0>         0.1319
     30 H10        -1.7539    3.4984    1.2586 H         1 <0>         0.1326
     31 H11        -0.1935    1.2386    2.1643 H         1 <0>         0.1037
     32 H12        -1.7599    1.2328    1.2851 H         1 <0>         0.1063
     33 H13        -0.0060   -0.0142    0.0020 H         1 <0>         0.1227
     34 H14        -0.2244    1.2677   -2.1390 H         1 <0>         0.0991
     35 H15        -1.7778    1.2291   -1.2378 H         1 <0>         0.1080
     36 H16        -1.7850    3.5207   -1.1391 H         1 <0>         0.1330
     37 H17        -0.2433    3.5600   -2.0601 H         1 <0>         0.1299
     38 H18        -0.0467    4.6999    0.0511 H         1 <0>         0.4499
@<TRIPOS>BOND
     1    1    5 1
     2    1    2 2
     3    1   22 1
     4    2    3 1
     5    2   23 1
     6    3    4 1
     7    4    9 ar
     8    4    5 ar
     9    5    6 ar
    10    6    7 ar
    11    6   24 1
    12    7    8 ar
    13    7   10 1
    14    8    9 ar
    15    9   25 1
    16   10   11 2
    17   10   12 am
    18   12   13 1
    19   12   26 1
    20   13   14 1
    21   13   19 1
    22   13   15 1
    23   15   16 1
    24   15   27 1
    25   15   28 1
    26   16   21 1
    27   16   17 1
    28   16   38 1
    29   17   18 1
    30   17   29 1
    31   17   30 1
    32   18   19 1
    33   18   31 1
    34   18   32 1
    35   19   20 1
    36   19   33 1
    37   20   21 1
    38   20   34 1
    39   20   35 1
    40   21   36 1
    41   21   37 1
@<TRIPOS>MOLECULE
ZINC00021067
   48    51     0     0     0
SMALL
USER_CHARGES
1-[(2R)-chroman-2-yl]-N-[[5-(4-fluorophenyl)-3-pyridyl]methyl]methanamine
@<TRIPOS>ATOM
      1 C1          3.5639    3.4783    0.0042 C.ar      1 <0>        -0.1336
      2 C2          2.3910    4.1148    0.3668 C.ar      1 <0>        -0.0843
      3 C3          1.2003    3.4179    0.3664 C.ar      1 <0>        -0.1398
      4 C4          1.1748    2.0753    0.0020 C.ar      1 <0>         0.1165
      5 C5          2.3505    1.4402   -0.3575 C.ar      1 <0>        -0.1544
      6 C6          3.5427    2.1453   -0.3564 C.ar      1 <0>        -0.0836
      7 C7          2.3684   -0.0144   -0.7537 C.3       1 <0>        -0.0809
      8 C8          0.9508   -0.4688   -1.1103 C.3       1 <0>        -0.1491
      9 C9          0.0021   -0.0041    0.0020 C.3       1 <0>         0.0624
     10 H1          0.3565   -0.3717    0.9650 H         1 <0>         0.0960
     11 O1         -0.0173    1.4240    0.0099 O.3       1 <0>        -0.3294
     12 C10        -1.4068   -0.5371   -0.2662 C.3       1 <0>         0.0068
     13 C11        -3.6818   -0.5615    0.5623 C.3       1 <0>         0.0557
     14 C12        -4.5843   -0.0612    1.6605 C.ar      1 <0>        -0.2156
     15 C13        -4.7622   -0.8061    2.8140 C.ar      1 <0>        -0.0461
     16 C14        -5.6053   -0.2997    3.8065 C.ar      1 <0>        -0.0760
     17 C15        -6.2382    0.9233    3.5936 C.ar      1 <0>         0.1438
     18 N1         -6.0421    1.5943    2.4772 N.ar      1 <0>        -0.4665
     19 C16        -5.2482    1.1441    1.5247 C.ar      1 <0>         0.1293
     20 C17        -5.8279   -1.0549    5.0642 C.ar      1 <0>        -0.0777
     21 C18        -5.1947   -2.2799    5.2650 C.ar      1 <0>        -0.0756
     22 C19        -5.4007   -2.9766    6.4380 C.ar      1 <0>        -0.1504
     23 C20        -6.2440   -2.4648    7.4110 C.ar      1 <0>         0.1203
     24 C21        -6.8796   -1.2498    7.2133 C.ar      1 <0>        -0.1463
     25 C22        -6.6751   -0.5440    6.0455 C.ar      1 <0>        -0.0709
     26 F1         -6.4466   -3.1525    8.5562 F         1 <0>        -0.1287
     27 H2          4.4963    4.0233    0.0033 H         1 <0>         0.1322
     28 H3          2.4072    5.1568    0.6506 H         1 <0>         0.1358
     29 H4          0.2849    3.9163    0.6494 H         1 <0>         0.1316
     30 H5          4.4601    1.6502   -0.6386 H         1 <0>         0.1309
     31 H6          2.7425   -0.6121    0.0775 H         1 <0>         0.0846
     32 H7          3.0198   -0.1464   -1.6176 H         1 <0>         0.0951
     33 H8          0.9219   -1.5557   -1.1876 H         1 <0>         0.0966
     34 H9          0.6498   -0.0249   -2.0593 H         1 <0>         0.0905
     35 H10        -1.7541   -0.1750   -1.2338 H         1 <0>         0.1439
     36 H11        -1.3880   -1.6269   -0.2714 H         1 <0>         0.1518
     37 H12        -4.0449   -0.1996   -0.3996 H         1 <0>         0.1443
     38 H13        -3.6788   -1.6515    0.5628 H         1 <0>         0.1413
     39 H14        -4.2592   -1.7528    2.9448 H         1 <0>         0.1471
     40 H15        -6.8958    1.3246    4.3506 H         1 <0>         0.1716
     41 H16        -5.1150    1.7258    0.6246 H         1 <0>         0.1653
     42 H17        -4.5405   -2.6815    4.5053 H         1 <0>         0.1326
     43 H18        -4.9072   -3.9241    6.5962 H         1 <0>         0.1440
     44 H19        -7.5364   -0.8546    7.9742 H         1 <0>         0.1468
     45 H20        -7.1713    0.4030    5.8920 H         1 <0>         0.1400
     46 N2         -2.3137   -0.0619    0.7957 N.4       1 <0>        -0.5196
     47 H21        -2.3238    0.9648    0.7981 H         1 <0>         0.4405
     48 H22        -1.9790   -0.4029    1.7046 H         1 <0>         0.4312
@<TRIPOS>BOND
     1    1    6 ar
     2    1    2 ar
     3    1   27 1
     4    2    3 ar
     5    2   28 1
     6    3    4 ar
     7    3   29 1
     8    4   11 1
     9    4    5 ar
    10    5    6 ar
    11    5    7 1
    12    6   30 1
    13    7    8 1
    14    7   31 1
    15    7   32 1
    16    8    9 1
    17    8   33 1
    18    8   34 1
    19    9   10 1
    20    9   11 1
    21    9   12 1
    22   12   35 1
    23   12   36 1
    24   12   46 1
    25   13   14 1
    26   13   37 1
    27   13   38 1
    28   13   46 1
    29   14   19 ar
    30   14   15 ar
    31   15   16 ar
    32   15   39 1
    33   16   17 ar
    34   16   20 1
    35   17   18 ar
    36   17   40 1
    37   18   19 ar
    38   19   41 1
    39   20   25 ar
    40   20   21 ar
    41   21   22 ar
    42   21   42 1
    43   22   23 ar
    44   22   43 1
    45   23   24 ar
    46   23   26 1
    47   24   25 ar
    48   24   44 1
    49   25   45 1
    50   46   47 1
    51   46   48 1
@<TRIPOS>MOLECULE
ZINC02572146
   29    30     0     0     0
SMALL
USER_CHARGES

@<TRIPOS>ATOM
      1 C1         -0.0184    1.5028    0.0103 C.3       1 <0>        -0.1071
      2 C2          0.0021   -0.0041    0.0020 C.2       1 <0>         0.1199
      3 C3          0.0074   -0.7686   -1.1014 C.2       1 <0>        -0.2092
      4 C4          0.0293   -2.1641   -0.6562 C.ar      1 <0>        -0.0803
      5 C5          0.0430   -3.3930   -1.3197 C.ar      1 <0>        -0.1146
      6 C6          0.0627   -4.5631   -0.5876 C.ar      1 <0>         0.0953
      7 C7          0.0685   -4.5202    0.8044 C.ar      1 <0>        -0.1188
      8 C8          0.0552   -3.3144    1.4689 C.ar      1 <0>        -0.1023
      9 C9          0.0357   -2.1241    0.7494 C.ar      1 <0>         0.0880
     10 N1          0.0239   -0.7953    1.1178 N.pl3     1 <0>        -0.5848
     11 H1          0.0285   -0.4701    2.0317 H         1 <0>         0.4225
     12 O1          0.0761   -5.7626   -1.2282 O.3       1 <0>        -0.4959
     13 C10        -0.0070   -0.2832   -2.5281 C.3       1 <0>        -0.0613
     14 C11         1.4305   -0.0988   -3.0185 C.3       1 <0>        -0.0084
     15 N2          1.4165    0.3744   -4.4092 N.4       1 <0>        -0.6388
     16 H2          1.0042    1.8801    0.0026 H         1 <0>         0.0837
     17 H3         -0.5455    1.8639   -0.8728 H         1 <0>         0.0866
     18 H4         -0.5286    1.8543    0.9071 H         1 <0>         0.0796
     19 H5          0.0378   -3.4277   -2.3992 H         1 <0>         0.1258
     20 H6          0.0832   -5.4414    1.3679 H         1 <0>         0.1387
     21 H7          0.0598   -3.2928    2.5486 H         1 <0>         0.1311
     22 H8          0.9632   -6.0974   -1.4178 H         1 <0>         0.3920
     23 H9         -0.5139   -1.0159   -3.1560 H         1 <0>         0.0928
     24 H10        -0.5345    0.6690   -2.5826 H         1 <0>         0.0917
     25 H11         1.9375    0.6339   -2.3905 H         1 <0>         0.1322
     26 H12         1.9580   -1.0511   -2.9640 H         1 <0>         0.1338
     27 H13         0.9472   -0.3038   -4.9905 H         1 <0>         0.4354
     28 H14         0.9282    1.2559   -4.4596 H         1 <0>         0.4345
     29 H15         2.3645    0.4960   -4.7326 H         1 <0>         0.4379
@<TRIPOS>BOND
     1    1    2 1
     2    1   16 1
     3    1   17 1
     4    1   18 1
     5    2   10 1
     6    2    3 2
     7    3    4 1
     8    3   13 1
     9    4    9 ar
    10    4    5 ar
    11    5    6 ar
    12    5   19 1
    13    6    7 ar
    14    6   12 1
    15    7    8 ar
    16    7   20 1
    17    8    9 ar
    18    8   21 1
    19    9   10 1
    20   10   11 1
    21   12   22 1
    22   13   14 1
    23   13   23 1
    24   13   24 1
    25   14   15 1
    26   14   25 1
    27   14   26 1
    28   15   27 1
    29   15   28 1
    30   15   29 1
@<TRIPOS>MOLECULE
ZINC05425419
   17    18     0     0     0
SMALL
USER_CHARGES
5-chloro-1H-benzimidazol-2-amine
@<TRIPOS>ATOM
      1 C1         -5.4428    3.2906    0.0453 C.ar      1 <0>        -0.1131
      2 C2         -4.7750    2.0830    0.0360 C.ar      1 <0>        -0.0892
      3 C3         -3.3891    2.0606    0.0293 C.ar      1 <0>         0.0308
      4 C4         -2.6676    3.2659    0.0324 C.ar      1 <0>         0.0948
      5 C5         -3.3574    4.4804    0.0423 C.ar      1 <0>        -0.0770
      6 C6         -4.7356    4.4845    0.0489 C.ar      1 <0>        -0.0332
      7 Cl1        -5.5929    5.9940    0.0612 Cl        1 <0>        -0.0677
      8 N1         -1.3477    2.9419    0.0301 N.2       1 <0>        -0.5571
      9 C7         -1.2145    1.6390    0.0167 C.2       1 <0>         0.5722
     10 N2         -2.4447    1.0465    0.0193 N.pl3     1 <0>        -0.6395
     11 H1         -2.7670   -0.0052    0.0151 H         1 <0>         0.4472
     12 N3         -0.0111    0.9658    0.0074 N.pl3     1 <0>        -0.8560
     13 H2         -6.5227    3.3066    0.0502 H         1 <0>         0.1384
     14 H3         -5.3312    1.1572    0.0333 H         1 <0>         0.1298
     15 H4         -2.8127    5.4130    0.0444 H         1 <0>         0.1372
     16 H5          0.0038   -0.1340   -0.0037 H         1 <0>         0.4316
     17 H6          0.9340    1.5286    0.0111 H         1 <0>         0.4507
@<TRIPOS>BOND
     1    1    6 ar
     2    1    2 ar
     3    1   13 1
     4    2    3 ar
     5    2   14 1
     6    3   10 1
     7    3    4 ar
     8    4    5 ar
     9    4    8 1
    10    5    6 ar
    11    5   15 1
    12    6    7 1
    13    8    9 2
    14    9   10 1
    15    9   12 1
    16   10   11 1
    17   12   16 1
    18   12   17 1
@<TRIPOS>MOLECULE
ZINC02516018
   42    45     0     0     0
SMALL
USER_CHARGES

@<TRIPOS>ATOM
      1 C1         -0.1860    1.3185   -0.8853 C.3       1 <0>        -0.0470
      2 N1         -0.0797   -0.0752   -0.4333 N.4       1 <0>        -0.3855
      3 C2          0.1907   -0.9426   -1.5868 C.3       1 <0>        -0.0219
      4 C3          0.1880   -2.4068   -1.1352 C.3       1 <0>         0.1040
      5 N2          1.1441   -2.5548   -0.0269 N.pl3     1 <0>        -0.6096
      6 C4          1.0479   -1.6159    1.1015 C.3       1 <0>         0.0886
      7 C5          1.0100   -0.1890    0.5444 C.3       1 <0>        -0.0219
      8 C6          2.1048   -3.5477   -0.0452 C.2       1 <0>         0.4845
      9 C7          2.7058   -4.0075    1.2067 C.2       1 <0>        -0.0476
     10 C8          2.5234   -3.6518    2.5251 C.2       1 <0>        -0.1441
     11 C9          3.3872   -4.4452    3.2875 C.2       1 <0>        -0.1659
     12 C10         4.0677   -5.2545    2.4395 C.2       1 <0>         0.0202
     13 N3          3.6637   -4.9997    1.1696 N.pl3     1 <0>        -0.3550
     14 C11         4.0278   -5.5327   -0.0637 C.ar      1 <0>         0.0977
     15 C12         4.9878   -6.5325   -0.1372 C.ar      1 <0>        -0.1121
     16 C13         5.3451   -7.0580   -1.3623 C.ar      1 <0>        -0.0561
     17 C14         4.7502   -6.5931   -2.5249 C.ar      1 <0>        -0.1673
     18 C15         3.7965   -5.6017   -2.4718 C.ar      1 <0>        -0.0269
     19 C16         3.4219   -5.0578   -1.2370 C.ar      1 <0>         0.1239
     20 N4          2.4755   -4.0835   -1.1873 N.2       1 <0>        -0.5424
     21 C17         5.1504   -7.1764   -3.8556 C.3       1 <0>         0.5116
     22 F1          6.1269   -8.1588   -3.6594 F         1 <0>        -0.1706
     23 F2          4.0309   -7.7478   -4.4699 F         1 <0>        -0.1713
     24 F3          5.6649   -6.1641   -4.6727 F         1 <0>        -0.1719
     25 H1          0.7524    1.6227   -1.3490 H         1 <0>         0.1220
     26 H2         -0.9946    1.4044   -1.6111 H         1 <0>         0.1262
     27 H3         -0.3946    1.9626   -0.0310 H         1 <0>         0.1260
     28 H4         -0.5809   -0.7939   -2.3422 H         1 <0>         0.1448
     29 H5          1.1648   -0.6940   -2.0081 H         1 <0>         0.1348
     30 H6         -0.8104   -2.6840   -0.7971 H         1 <0>         0.0940
     31 H7          0.4876   -3.0467   -1.9652 H         1 <0>         0.1392
     32 H8          0.1362   -1.8132    1.6655 H         1 <0>         0.0999
     33 H9          1.9160   -1.7328    1.7503 H         1 <0>         0.1385
     34 H10         1.9592    0.0368    0.0586 H         1 <0>         0.1339
     35 H11         0.8421    0.5150    1.3593 H         1 <0>         0.1467
     36 H12         1.8423   -2.9018    2.8993 H         1 <0>         0.1549
     37 H13         3.4934   -4.4176    4.3619 H         1 <0>         0.1612
     38 H14         4.8108   -5.9833    2.7278 H         1 <0>         0.1810
     39 H15         5.4555   -6.8990    0.7646 H         1 <0>         0.1481
     40 H16         6.0927   -7.8356   -1.4155 H         1 <0>         0.1560
     41 H17         3.3377   -5.2438   -3.3817 H         1 <0>         0.1538
     42 H18        -0.9478   -0.3546   -0.0016 H         1 <0>         0.4256
@<TRIPOS>BOND
     1    1    2 1
     2    1   25 1
     3    1   26 1
     4    1   27 1
     5    2    7 1
     6    2    3 1
     7    2   42 1
     8    3    4 1
     9    3   28 1
    10    3   29 1
    11    4    5 1
    12    4   30 1
    13    4   31 1
    14    5    6 1
    15    5    8 1
    16    6    7 1
    17    6   32 1
    18    6   33 1
    19    7   34 1
    20    7   35 1
    21    8   20 2
    22    8    9 1
    23    9   13 1
    24    9   10 2
    25   10   11 1
    26   10   36 1
    27   11   12 2
    28   11   37 1
    29   12   13 1
    30   12   38 1
    31   13   14 1
    32   14   19 ar
    33   14   15 ar
    34   15   16 ar
    35   15   39 1
    36   16   17 ar
    37   16   40 1
    38   17   18 ar
    39   17   21 1
    40   18   19 ar
    41   18   41 1
    42   19   20 1
    43   21   22 1
    44   21   23 1
    45   21   24 1
@<TRIPOS>MOLECULE
ZINC02516018
   41    44     0     0     0
SMALL
USER_CHARGES

@<TRIPOS>ATOM
      1 C1         -0.1164    1.3382    0.8434 C.3       1 <0>         0.0241
      2 N1         -0.0480   -0.0683    0.4251 N.3       1 <0>        -0.5421
      3 C2          0.9240   -0.2477   -0.6616 C.3       1 <0>         0.0380
      4 C3          0.8354   -1.6834   -1.1900 C.3       1 <0>         0.1350
      5 N2          0.9912   -2.6085   -0.0572 N.pl3     1 <0>        -0.5914
      6 C4          0.1441   -2.4063    1.1280 C.3       1 <0>         0.1130
      7 C5          0.2600   -0.9422    1.5651 C.3       1 <0>         0.0374
      8 C6          1.9088   -3.6406   -0.1055 C.2       1 <0>         0.4952
      9 C7          2.5321   -4.1237    1.1264 C.2       1 <0>        -0.0389
     10 C8          2.4093   -3.7594    2.4494 C.2       1 <0>        -0.1413
     11 C9          3.2648   -4.5872    3.1841 C.2       1 <0>        -0.1716
     12 C10         3.8820   -5.4249    2.3156 C.2       1 <0>         0.0082
     13 N3          3.4463   -5.1549    1.0594 N.pl3     1 <0>        -0.3564
     14 C11         3.7460   -5.7037   -0.1842 C.ar      1 <0>         0.0844
     15 C12         4.6606   -6.7426   -0.2876 C.ar      1 <0>        -0.1096
     16 C13         4.9541   -7.2838   -1.5228 C.ar      1 <0>        -0.0739
     17 C14         4.3400   -6.7958   -2.6658 C.ar      1 <0>        -0.1692
     18 C15         3.4307   -5.7656   -2.5829 C.ar      1 <0>        -0.0360
     19 C16         3.1210   -5.2053   -1.3374 C.ar      1 <0>         0.1422
     20 N4          2.2180   -4.1925   -1.2582 N.2       1 <0>        -0.5575
     21 C17         4.6704   -7.3966   -4.0078 C.3       1 <0>         0.5124
     22 F1          5.6114   -8.4185   -3.8423 F         1 <0>        -0.1745
     23 F2          3.5080   -7.9216   -4.5826 F         1 <0>        -0.1732
     24 F3          5.1985   -6.4074   -4.8443 F         1 <0>        -0.1734
     25 H1          0.8426    1.6389    1.2652 H         1 <0>         0.0270
     26 H2         -0.3457    1.9632   -0.0197 H         1 <0>         0.0715
     27 H3         -0.8969    1.4561    1.5951 H         1 <0>         0.0720
     28 H4          0.7011    0.4511   -1.4679 H         1 <0>         0.0913
     29 H5          1.9295   -0.0602   -0.2849 H         1 <0>         0.0392
     30 H6         -0.1350   -1.8410   -1.6607 H         1 <0>         0.0775
     31 H7          1.6300   -1.8561   -1.9158 H         1 <0>         0.0931
     32 H8         -0.8927   -2.6335    0.8801 H         1 <0>         0.0813
     33 H9          0.4817   -3.0571    1.9346 H         1 <0>         0.1005
     34 H10         1.2747   -0.7450    1.9108 H         1 <0>         0.0425
     35 H11        -0.4445   -0.7471    2.3736 H         1 <0>         0.0918
     36 H12         1.7731   -2.9813    2.8446 H         1 <0>         0.1559
     37 H13         3.4083   -4.5629    4.2543 H         1 <0>         0.1563
     38 H14         4.6036   -6.1837    2.5804 H         1 <0>         0.1758
     39 H15         5.1430   -7.1274    0.5988 H         1 <0>         0.1424
     40 H16         5.6666   -8.0919   -1.5994 H         1 <0>         0.1495
     41 H17         2.9566   -5.3898   -3.4776 H         1 <0>         0.1515
@<TRIPOS>BOND
     1    1    2 1
     2    1   25 1
     3    1   26 1
     4    1   27 1
     5    2    7 1
     6    2    3 1
     7    3    4 1
     8    3   28 1
     9    3   29 1
    10    4    5 1
    11    4   30 1
    12    4   31 1
    13    5    6 1
    14    5    8 1
    15    6    7 1
    16    6   32 1
    17    6   33 1
    18    7   34 1
    19    7   35 1
    20    8   20 2
    21    8    9 1
    22    9   13 1
    23    9   10 2
    24   10   11 1
    25   10   36 1
    26   11   12 2
    27   11   37 1
    28   12   13 1
    29   12   38 1
    30   13   14 1
    31   14   19 ar
    32   14   15 ar
    33   15   16 ar
    34   15   39 1
    35   16   17 ar
    36   16   40 1
    37   17   18 ar
    38   17   21 1
    39   18   19 ar
    40   18   41 1
    41   19   20 1
    42   21   22 1
    43   21   23 1
    44   21   24 1
@<TRIPOS>MOLECULE
ZINC00056464
   30    31     0     0     0
SMALL
USER_CHARGES

@<TRIPOS>ATOM
      1 C1          2.3803    1.4154    0.0012 C.ar      1 <0>        -0.0679
      2 C2          1.1706    2.0859    0.0021 C.ar      1 <0>        -0.1090
      3 C3         -0.0163    1.3769   -0.0041 C.ar      1 <0>        -0.1302
      4 C4          0.0024   -0.0042   -0.0117 C.ar      1 <0>        -0.1396
      5 C5          1.2154   -0.6807   -0.0131 C.ar      1 <0>         0.1972
      6 C6          2.4063    0.0349   -0.0064 C.ar      1 <0>        -0.1554
      7 N1          1.2380   -2.0772   -0.0208 N.pl3     1 <0>        -0.6444
      8 C7          2.5064   -2.8125   -0.1411 C.3       1 <0>         0.0969
      9 C8          2.5675   -3.8614    0.9742 C.3       1 <0>        -0.0235
     10 N2          1.3686   -4.7073    0.9155 N.4       1 <0>        -0.5041
     11 C9          0.1737   -3.9014    1.1960 C.3       1 <0>        -0.0226
     12 C10        -0.0054   -2.8545    0.0974 C.3       1 <0>         0.0946
     13 C11        -1.3320    2.1118   -0.0021 C.3       1 <0>         0.5058
     14 F1         -1.0960    3.4907    0.0064 F         1 <0>        -0.1705
     15 F2         -2.0588    1.7701   -1.1476 F         1 <0>        -0.1737
     16 F3         -2.0627    1.7568    1.1369 F         1 <0>        -0.1752
     17 H1          3.3057    1.9723    0.0018 H         1 <0>         0.1434
     18 H2          1.1532    3.1658    0.0080 H         1 <0>         0.1444
     19 H3         -0.9251   -0.5574   -0.0162 H         1 <0>         0.1345
     20 H4          3.3512   -0.4881   -0.0074 H         1 <0>         0.1338
     21 H5          2.5527   -3.3067   -1.1115 H         1 <0>         0.0922
     22 H6          3.3422   -2.1203   -0.0390 H         1 <0>         0.1279
     23 H7          3.4554   -4.4799    0.8433 H         1 <0>         0.1458
     24 H8          2.6122   -3.3612    1.9416 H         1 <0>         0.1353
     25 H9          1.2902   -5.1139   -0.0047 H         1 <0>         0.4291
     26 H10        -0.7022   -4.5493    1.2286 H         1 <0>         0.1464
     27 H11         0.2909   -3.3999    2.1567 H         1 <0>         0.1354
     28 H12        -0.8295   -2.1900    0.3570 H         1 <0>         0.1263
     29 H13        -0.2170   -3.3529   -0.8486 H         1 <0>         0.0922
     30 H14         1.4444   -5.4441    1.6007 H         1 <0>         0.4350
@<TRIPOS>BOND
     1    1    6 ar
     2    1    2 ar
     3    1   17 1
     4    2    3 ar
     5    2   18 1
     6    3    4 ar
     7    3   13 1
     8    4    5 ar
     9    4   19 1
    10    5    6 ar
    11    5    7 1
    12    6   20 1
    13    7   12 1
    14    7    8 1
    15    8    9 1
    16    8   21 1
    17    8   22 1
    18    9   10 1
    19    9   23 1
    20    9   24 1
    21   10   11 1
    22   10   25 1
    23   10   30 1
    24   11   12 1
    25   11   26 1
    26   11   27 1
    27   12   28 1
    28   12   29 1
    29   13   14 1
    30   13   15 1
    31   13   16 1
@<TRIPOS>MOLECULE
ZINC02516045
   33    35     0     0     0
SMALL
USER_CHARGES

@<TRIPOS>ATOM
      1 C1         -0.0164    1.3568    0.0095 C.ar      1 <0>        -0.1126
      2 C2          1.1685    2.0902    0.0021 C.ar      1 <0>        -0.1056
      3 C3          2.3785    1.4660   -0.0127 C.ar      1 <0>        -0.1107
      4 C4          2.4369    0.0637   -0.0208 C.ar      1 <0>        -0.0518
      5 C5          1.2329   -0.6830   -0.0133 C.ar      1 <0>        -0.0490
      6 C6          0.0021   -0.0041    0.0020 C.ar      1 <0>        -0.1001
      7 C7          1.2897   -2.0870   -0.0204 C.ar      1 <0>        -0.0877
      8 C8          2.4960   -2.7188   -0.0343 C.ar      1 <0>        -0.1184
      9 C9          3.6853   -1.9966   -0.0413 C.ar      1 <0>        -0.1083
     10 C10         3.6728   -0.6178   -0.0357 C.ar      1 <0>         0.1496
     11 N1          4.8691    0.0961   -0.0437 N.pl3     1 <0>        -0.6725
     12 C11         5.5338    0.4724    1.2136 C.3       1 <0>         0.1164
     13 C12         7.0032    0.0457    1.1328 C.3       1 <0>        -0.0236
     14 N2          7.6138    0.6222   -0.0717 N.4       1 <0>        -0.5026
     15 C13         6.9746    0.0667   -1.2713 C.3       1 <0>        -0.0233
     16 C14         5.5067    0.4896   -1.3097 C.3       1 <0>         0.1159
     17 H1         -0.9633    1.8759    0.0259 H         1 <0>         0.1287
     18 H2          1.1264    3.1693    0.0079 H         1 <0>         0.1252
     19 H3          3.2888    2.0471   -0.0187 H         1 <0>         0.1205
     20 H4         -0.9241   -0.5595    0.0082 H         1 <0>         0.1330
     21 H5          0.3773   -2.6647   -0.0144 H         1 <0>         0.1332
     22 H6          2.5301   -3.7982   -0.0396 H         1 <0>         0.1296
     23 H7          4.6289   -2.5219   -0.0517 H         1 <0>         0.1206
     24 H8          5.4729    1.5520    1.3511 H         1 <0>         0.0790
     25 H9          5.0507   -0.0340    2.0491 H         1 <0>         0.1164
     26 H10         7.5342    0.4020    2.0155 H         1 <0>         0.1398
     27 H11         7.0639   -1.0416    1.0862 H         1 <0>         0.1321
     28 H12         7.4939    1.6240   -0.0616 H         1 <0>         0.4274
     29 H13         7.4845    0.4385   -2.1601 H         1 <0>         0.1402
     30 H14         7.0361   -1.0212   -1.2452 H         1 <0>         0.1320
     31 H15         5.0057   -0.0055   -2.1415 H         1 <0>         0.1165
     32 H16         5.4430    1.5709   -1.4312 H         1 <0>         0.0785
     33 H17         8.5988    0.4040   -0.0854 H         1 <0>         0.4316
@<TRIPOS>BOND
     1    1    6 ar
     2    1    2 ar
     3    1   17 1
     4    2    3 ar
     5    2   18 1
     6    3    4 ar
     7    3   19 1
     8    4   10 ar
     9    4    5 ar
    10    5    6 ar
    11    5    7 ar
    12    6   20 1
    13    7    8 ar
    14    7   21 1
    15    8    9 ar
    16    8   22 1
    17    9   10 ar
    18    9   23 1
    19   10   11 1
    20   11   16 1
    21   11   12 1
    22   12   13 1
    23   12   24 1
    24   12   25 1
    25   13   14 1
    26   13   26 1
    27   13   27 1
    28   14   15 1
    29   14   28 1
    30   14   33 1
    31   15   16 1
    32   15   29 1
    33   15   30 1
    34   16   31 1
    35   16   32 1
@<TRIPOS>MOLECULE
ZINC03716177
   33    35     0     0     0
SMALL
USER_CHARGES
1-(2-naphthyl)piperazine
@<TRIPOS>ATOM
      1 C1         -0.0126    1.0758    0.0080 C.ar      1 <0>        -0.1119
      2 C2         -1.2348    1.7455    0.0175 C.ar      1 <0>        -0.0997
      3 C3         -1.2880    3.1053    0.0310 C.ar      1 <0>        -0.1149
      4 C4         -0.0946    3.8484    0.0236 C.ar      1 <0>        -0.0318
      5 C5         -0.1122    5.2526    0.0308 C.ar      1 <0>        -0.1143
      6 C6          1.0780    5.9460    0.0227 C.ar      1 <0>         0.0845
      7 C7          2.3015    5.2649    0.0079 C.ar      1 <0>        -0.1631
      8 C8          2.3444    3.9066    0.0002 C.ar      1 <0>        -0.0683
      9 C9          1.1485    3.1673    0.0081 C.ar      1 <0>        -0.0637
     10 C10         1.1628    1.7621    0.0004 C.ar      1 <0>        -0.1017
     11 N1          1.0644    7.3421    0.0298 N.pl3     1 <0>        -0.4868
     12 C11         0.3072    7.8555    1.1799 C.3       1 <0>         0.0231
     13 C12         0.2487    9.3832    1.1078 C.3       1 <0>         0.0009
     14 C13         2.3726    9.4098   -0.0529 C.3       1 <0>         0.0010
     15 C14         2.4311    7.8821    0.0192 C.3       1 <0>         0.0188
     16 H1          0.0021   -0.0041    0.0020 H         1 <0>         0.1295
     17 H2         -2.1530    1.1770    0.0188 H         1 <0>         0.1295
     18 H3         -2.2422    3.6111    0.0429 H         1 <0>         0.1298
     19 H4         -1.0519    5.7849    0.0430 H         1 <0>         0.1314
     20 H5          3.2237    5.8268    0.0024 H         1 <0>         0.1274
     21 H6          3.2959    3.3957   -0.0113 H         1 <0>         0.1341
     22 H7          2.1021    1.2291   -0.0118 H         1 <0>         0.1315
     23 H8         -0.7049    7.4514    1.1587 H         1 <0>         0.1276
     24 H9          0.8003    7.5537    2.1040 H         1 <0>         0.0697
     25 H10        -0.2876    9.7679    1.9753 H         1 <0>         0.1412
     26 H11        -0.2685    9.6847    0.1970 H         1 <0>         0.1406
     27 H12         3.3847    9.8139   -0.0316 H         1 <0>         0.1413
     28 H13         1.8798    9.7116   -0.9771 H         1 <0>         0.1404
     29 H14         2.9483    7.5806    0.9301 H         1 <0>         0.0716
     30 H15         2.9675    7.4971   -0.8480 H         1 <0>         0.1296
     31 N2          1.6190    9.9295    1.1040 N.4       1 <0>        -0.5189
     32 H16         2.0960    9.6543    1.9705 H         1 <0>         0.4313
     33 H17         1.5754   10.9537    1.0477 H         1 <0>         0.4401
@<TRIPOS>BOND
     1    1   10 ar
     2    1    2 ar
     3    1   16 1
     4    2    3 ar
     5    2   17 1
     6    3    4 ar
     7    3   18 1
     8    4    9 ar
     9    4    5 ar
    10    5    6 ar
    11    5   19 1
    12    6    7 ar
    13    6   11 1
    14    7    8 ar
    15    7   20 1
    16    8    9 ar
    17    8   21 1
    18    9   10 ar
    19   10   22 1
    20   11   15 1
    21   11   12 1
    22   12   13 1
    23   12   23 1
    24   12   24 1
    25   13   25 1
    26   13   26 1
    27   13   31 1
    28   14   15 1
    29   14   27 1
    30   14   28 1
    31   14   31 1
    32   15   29 1
    33   15   30 1
    34   31   32 1
    35   31   33 1
@<TRIPOS>MOLECULE
ZINC01544798
   42    42     0     0     0
SMALL
USER_CHARGES

@<TRIPOS>ATOM
      1 C1         -0.2640    1.4459    0.0391 C.3       1 <0>        -0.1867
      2 C2         -0.0334   -0.0661   -0.0010 C.3       1 <0>        -0.0190
      3 N1          0.8227   -0.4609    1.1256 N.4       1 <0>        -0.3884
      4 C3          0.1113   -0.2220    2.3885 C.3       1 <0>        -0.0150
      5 C4          1.0526   -0.4946    3.5635 C.3       1 <0>        -0.1889
      6 C5          1.1539   -1.8876    1.0125 C.3       1 <0>        -0.0058
      7 C6          2.0022   -2.1165   -0.2401 C.3       1 <0>         0.0346
      8 O1          3.2566   -1.4476   -0.0947 O.3       1 <0>        -0.3722
      9 C7          4.1273   -1.5504   -1.1186 C.2       1 <0>         0.5252
     10 O2          3.8292   -2.1908   -2.1079 O.2       1 <0>        -0.4762
     11 C8          5.4378   -0.8879   -1.0388 C.ar      1 <0>        -0.2290
     12 C9          5.7859   -0.1546    0.1018 C.ar      1 <0>         0.0314
     13 C10         7.0028    0.4597    0.1754 C.ar      1 <0>        -0.1644
     14 C11         7.9064    0.3622   -0.8828 C.ar      1 <0>         0.3146
     15 C12         7.5753   -0.3618   -2.0210 C.ar      1 <0>        -0.2999
     16 C13         6.3467   -0.9934   -2.1039 C.ar      1 <0>         0.2550
     17 O3          6.0200   -1.7066   -3.2107 O.3       1 <0>        -0.2803
     18 C14         6.9953   -1.7693   -4.2533 C.3       1 <0>         0.0168
     19 N2          9.1433    0.9927   -0.7981 N.pl3     1 <0>        -0.8444
     20 Cl1         7.4276    1.3674    1.5929 Cl        1 <0>        -0.0562
     21 H1          0.6968    1.9590    0.0785 H         1 <0>         0.0802
     22 H2         -0.8045    1.7548   -0.8556 H         1 <0>         0.1064
     23 H3         -0.8486    1.7009    0.9230 H         1 <0>         0.0817
     24 H4         -0.9909   -0.5818    0.0722 H         1 <0>         0.1321
     25 H5          0.4532   -0.3347   -0.9386 H         1 <0>         0.1290
     26 H6         -0.2254    0.8140    2.4254 H         1 <0>         0.1329
     27 H7         -0.7503   -0.8866    2.4514 H         1 <0>         0.1303
     28 H8          1.3017   -1.5554    3.5909 H         1 <0>         0.0809
     29 H9          1.9645    0.0898    3.4417 H         1 <0>         0.0812
     30 H10         0.5619   -0.2124    4.4950 H         1 <0>         0.1062
     31 H11         1.7144   -2.2015    1.8931 H         1 <0>         0.1446
     32 H12         0.2350   -2.4693    0.9403 H         1 <0>         0.1502
     33 H13         2.1733   -3.1847   -0.3728 H         1 <0>         0.1146
     34 H14         1.4785   -1.7215   -1.1107 H         1 <0>         0.0920
     35 H15         5.0908   -0.0745    0.9244 H         1 <0>         0.1481
     36 H16         8.2771   -0.4350   -2.8386 H         1 <0>         0.1503
     37 H17         7.2134   -0.7619   -4.6078 H         1 <0>         0.0636
     38 H18         7.9082   -2.2252   -3.8700 H         1 <0>         0.0641
     39 H19         6.6082   -2.3686   -5.0774 H         1 <0>         0.1105
     40 H20         9.3762    1.4991   -0.0042 H         1 <0>         0.4107
     41 H21         9.7730    0.9261   -1.5329 H         1 <0>         0.4113
     42 H22         1.6719    0.0838    1.1097 H         1 <0>         0.4278
@<TRIPOS>BOND
     1    1    2 1
     2    1   21 1
     3    1   22 1
     4    1   23 1
     5    2    3 1
     6    2   24 1
     7    2   25 1
     8    3    4 1
     9    3    6 1
    10    3   42 1
    11    4    5 1
    12    4   26 1
    13    4   27 1
    14    5   28 1
    15    5   29 1
    16    5   30 1
    17    6    7 1
    18    6   31 1
    19    6   32 1
    20    7    8 1
    21    7   33 1
    22    7   34 1
    23    8    9 1
    24    9   10 2
    25    9   11 1
    26   11   16 ar
    27   11   12 ar
    28   12   13 ar
    29   12   35 1
    30   13   14 ar
    31   13   20 1
    32   14   15 ar
    33   14   19 1
    34   15   16 ar
    35   15   36 1
    36   16   17 1
    37   17   18 1
    38   18   37 1
    39   18   38 1
    40   18   39 1
    41   19   40 1
    42   19   41 1
@<TRIPOS>MOLECULE
ZINC13858911
   19    19     0     0     0
SMALL
USER_CHARGES

@<TRIPOS>ATOM
      1 C1         -0.1021    1.4194   -0.2531 C.ar      1 <0>        -0.1759
      2 C2          1.1093    2.0864   -0.0625 C.ar      1 <0>         0.1880
      3 C3          2.2882    1.3529    0.0826 C.ar      1 <0>        -0.1286
      4 C4          2.2495   -0.0266    0.0368 C.ar      1 <0>         0.0020
      5 C5          1.0449   -0.6824   -0.1529 C.ar      1 <0>        -0.1395
      6 C6         -0.1277    0.0396   -0.2970 C.ar      1 <0>         0.0026
      7 Cl1        -1.6333   -0.7917   -0.5334 Cl        1 <0>        -0.0611
      8 Cl2         3.7144   -0.9406    0.2170 Cl        1 <0>        -0.0574
      9 N1          1.1413    3.4552   -0.0185 N.2       1 <0>        -0.6400
     10 C7          0.3701    4.1031    0.8239 C.2       1 <0>         0.6631
     11 N2         -0.3808    3.4096    1.7394 N.pl3     1 <0>        -0.8822
     12 N3          0.3150    5.4738    0.7887 N.pl3     1 <0>        -0.8356
     13 H1         -1.0180    1.9814   -0.3615 H         1 <0>         0.1343
     14 H2          3.2285    1.8633    0.2299 H         1 <0>         0.1402
     15 H3          1.0198   -1.7615   -0.1884 H         1 <0>         0.1415
     16 H4         -0.2659    2.4511    1.8345 H         1 <0>         0.4160
     17 H5          0.8458    5.9641    0.1415 H         1 <0>         0.4235
     18 H6         -0.2547    5.9525    1.4109 H         1 <0>         0.4095
     19 H7         -1.0265    3.8778    2.2915 H         1 <0>         0.3995
@<TRIPOS>BOND
     1    1    6 ar
     2    1    2 ar
     3    1   13 1
     4    2    3 ar
     5    2    9 1
     6    3    4 ar
     7    3   14 1
     8    4    5 ar
     9    4    8 1
    10    5    6 ar
    11    5   15 1
    12    6    7 1
    13    9   10 2
    14   10   11 1
    15   10   12 1
    16   11   16 1
    17   11   19 1
    18   12   17 1
    19   12   18 1
@<TRIPOS>MOLECULE
ZINC23382757
   35    37     0     0     0
SMALL
USER_CHARGES

@<TRIPOS>ATOM
      1 C1         -0.0375    1.4390    0.3754 C.3       1 <0>        -0.0468
      2 N1         -0.0075   -0.0166    0.1797 N.4       1 <0>        -0.3849
      3 C2          0.8298   -0.3351   -0.9837 C.3       1 <0>        -0.0221
      4 C3          0.7698   -1.8414   -1.2579 C.3       1 <0>         0.1012
      5 N2          1.1441   -2.5548   -0.0269 N.pl3     1 <0>        -0.6262
      6 C4          0.4661   -2.1813    1.2241 C.3       1 <0>         0.1030
      7 C5          0.5404   -0.6589    1.3811 C.3       1 <0>        -0.0218
      8 C6          2.1090   -3.5507   -0.0452 C.ar      1 <0>         0.4162
      9 C7          2.5691   -4.0358   -1.2781 C.ar      1 <0>        -0.2219
     10 C8          3.5169   -5.0135   -1.3115 C.ar      1 <0>        -0.0099
     11 C9          4.0085   -5.5099   -0.0866 C.ar      1 <0>        -0.1379
     12 C10         4.9857   -6.5165   -0.0485 C.ar      1 <0>        -0.0808
     13 C11         5.4376   -6.9716    1.1531 C.ar      1 <0>        -0.1261
     14 C12         4.9422   -6.4507    2.3462 C.ar      1 <0>        -0.0785
     15 C13         3.9938   -5.4740    2.3453 C.ar      1 <0>        -0.1141
     16 C14         3.5035   -4.9787    1.1249 C.ar      1 <0>         0.1745
     17 N3          2.5757   -4.0150    1.0955 N.ar      1 <0>        -0.5367
     18 H1          0.9745    1.8027    0.5531 H         1 <0>         0.1214
     19 H2         -0.4441    1.9171   -0.5158 H         1 <0>         0.1252
     20 H3         -0.6653    1.6773    1.2340 H         1 <0>         0.1256
     21 H4          0.4632    0.2078   -1.8549 H         1 <0>         0.1437
     22 H5          1.8602   -0.0434   -0.7807 H         1 <0>         0.1325
     23 H6         -0.2427   -2.1206   -1.5496 H         1 <0>         0.0941
     24 H7          1.4674   -2.0966   -2.0556 H         1 <0>         0.1282
     25 H8         -0.5771   -2.4948    1.1830 H         1 <0>         0.0873
     26 H9          0.9629   -2.6612    2.0673 H         1 <0>         0.1390
     27 H10         1.5796   -0.3574    1.5126 H         1 <0>         0.1321
     28 H11        -0.0394   -0.3547    2.2524 H         1 <0>         0.1419
     29 H12         2.1725   -3.6352   -2.1993 H         1 <0>         0.1365
     30 H13         3.8823   -5.3989   -2.2519 H         1 <0>         0.1463
     31 H14         5.3770   -6.9282   -0.9671 H         1 <0>         0.1331
     32 H15         6.1893   -7.7465    1.1812 H         1 <0>         0.1322
     33 H16         5.3161   -6.8277    3.2866 H         1 <0>         0.1340
     34 H17         3.6195   -5.0812    3.2791 H         1 <0>         0.1347
     35 H18        -0.9452   -0.3524    0.0182 H         1 <0>         0.4250
@<TRIPOS>BOND
     1    1    2 1
     2    1   18 1
     3    1   19 1
     4    1   20 1
     5    2    7 1
     6    2    3 1
     7    2   35 1
     8    3    4 1
     9    3   21 1
    10    3   22 1
    11    4    5 1
    12    4   23 1
    13    4   24 1
    14    5    6 1
    15    5    8 1
    16    6    7 1
    17    6   25 1
    18    6   26 1
    19    7   27 1
    20    7   28 1
    21    8   17 ar
    22    8    9 ar
    23    9   10 ar
    24    9   29 1
    25   10   11 ar
    26   10   30 1
    27   11   16 ar
    28   11   12 ar
    29   12   13 ar
    30   12   31 1
    31   13   14 ar
    32   13   32 1
    33   14   15 ar
    34   14   33 1
    35   15   16 ar
    36   15   34 1
    37   16   17 ar
@<TRIPOS>MOLECULE
ZINC23382757
   35    37     0     0     0
SMALL
USER_CHARGES

@<TRIPOS>ATOM
      1 C1         -0.0163    1.4643    0.0496 C.3       1 <0>         0.0217
      2 N1          0.0029   -0.0043    0.0221 N.3       1 <0>        -0.5426
      3 C2          0.6113   -0.4996   -1.2198 C.3       1 <0>         0.0375
      4 C3          0.4494   -2.0217   -1.2923 C.3       1 <0>         0.0969
      5 N2          0.9912   -2.6085   -0.0572 N.pl3     1 <0>        -0.5767
      6 C4          0.5300   -2.0680    1.2305 C.3       1 <0>         0.1091
      7 C5          0.6887   -0.5441    1.2037 C.3       1 <0>         0.0334
      8 C6          1.9121   -3.6443   -0.1057 C.ar      1 <0>         0.4970
      9 C7          2.4997   -4.0945    1.0856 C.ar      1 <0>        -0.2205
     10 C8          3.4055   -5.1113    1.0534 C.ar      1 <0>         0.0641
     11 C9          3.7242   -5.6831   -0.1955 C.ar      1 <0>        -0.1211
     12 C10         4.6484   -6.7339   -0.3006 C.ar      1 <0>        -0.0488
     13 C11         4.9317   -7.2622   -1.5237 C.ar      1 <0>        -0.1164
     14 C12         4.3156   -6.7728   -2.6730 C.ar      1 <0>        -0.0327
     15 C13         3.4148   -5.7542   -2.6070 C.ar      1 <0>        -0.1504
     16 C14         3.0966   -5.1840   -1.3626 C.ar      1 <0>         0.1617
     17 N3          2.2103   -4.1859   -1.2686 N.ar      1 <0>        -0.5290
     18 H1          1.0065    1.8408    0.0625 H         1 <0>         0.0338
     19 H2         -0.5298    1.8377   -0.8363 H         1 <0>         0.0787
     20 H3         -0.5398    1.8042    0.9433 H         1 <0>         0.0808
     21 H4          0.1167   -0.0401   -2.0756 H         1 <0>         0.1073
     22 H5          1.6712   -0.2456   -1.2322 H         1 <0>         0.0477
     23 H6         -0.6071   -2.2736   -1.3846 H         1 <0>         0.1118
     24 H7          0.9972   -2.4077   -2.1520 H         1 <0>         0.0842
     25 H8         -0.5187   -2.3243    1.3808 H         1 <0>         0.1080
     26 H9          1.1311   -2.4846    2.0388 H         1 <0>         0.1084
     27 H10         1.7476   -0.2894    1.1576 H         1 <0>         0.0489
     28 H11         0.2504   -0.1168    2.1055 H         1 <0>         0.1086
     29 H12         2.2348   -3.6355    2.0267 H         1 <0>         0.1802
     30 H13         3.8678   -5.4701    1.9611 H         1 <0>         0.1772
     31 H14         5.1327   -7.1214    0.5836 H         1 <0>         0.1558
     32 H15         5.6434   -8.0706   -1.6033 H         1 <0>         0.1498
     33 H16         4.5566   -7.2080   -3.6316 H         1 <0>         0.1521
     34 H17         2.9464   -5.3857   -3.5076 H         1 <0>         0.1496
     35 H18         1.7823   -3.8523   -2.0727 H         1 <0>         0.4338
@<TRIPOS>BOND
     1    1    2 1
     2    1   18 1
     3    1   19 1
     4    1   20 1
     5    2    7 1
     6    2    3 1
     7    3    4 1
     8    3   21 1
     9    3   22 1
    10    4    5 1
    11    4   23 1
    12    4   24 1
    13    5    6 1
    14    5    8 1
    15    6    7 1
    16    6   25 1
    17    6   26 1
    18    7   27 1
    19    7   28 1
    20    8   17 ar
    21    8    9 ar
    22    9   10 ar
    23    9   29 1
    24   10   11 ar
    25   10   30 1
    26   11   16 ar
    27   11   12 ar
    28   12   13 ar
    29   12   31 1
    30   13   14 ar
    31   13   32 1
    32   14   15 ar
    33   14   33 1
    34   15   16 ar
    35   15   34 1
    36   16   17 ar
    37   17   35 1
@<TRIPOS>MOLECULE
ZINC05782223
   28    28     0     0     0
SMALL
USER_CHARGES

@<TRIPOS>ATOM
      1 C1         -2.1176   -1.8491   -1.1852 C.3       1 <0>        -0.1240
      2 C2         -0.8300   -1.5940   -0.4449 C.ar      1 <0>        -0.0468
      3 C3         -0.0024   -0.5571   -0.8355 C.ar      1 <0>        -0.1239
      4 C4          1.1799   -0.3197   -0.1590 C.ar      1 <0>        -0.0739
      5 C5          1.5383   -1.1184    0.9095 C.ar      1 <0>        -0.1380
      6 C6          0.7096   -2.1604    1.3042 C.ar      1 <0>         0.1295
      7 C7         -0.4804   -2.3924    0.6262 C.ar      1 <0>        -0.1844
      8 N1          1.0698   -2.9713    2.3854 N.pl3     1 <0>        -0.6796
      9 C8          0.8233   -4.3245    2.3427 C.2       1 <0>         0.6344
     10 N2          1.0458   -5.0603    3.3937 N.2       1 <0>        -0.7789
     11 N3          0.3402   -4.9020    1.1854 N.pl3     1 <0>        -0.6349
     12 C9         -0.0169   -6.2277    1.1770 C.cat     1 <0>         0.7641
     13 N4         -0.2759   -6.8399    0.0238 N.pl3     1 <0>        -0.7817
     14 N5         -0.1042   -6.9007    2.3222 N.pl3     1 <0>        -0.7551
     15 H1         -2.9207   -1.2719   -0.7269 H         1 <0>         0.0819
     16 H2         -2.0034   -1.5492   -2.2269 H         1 <0>         0.0781
     17 H3         -2.3601   -2.9107   -1.1372 H         1 <0>         0.0658
     18 H4         -0.2800    0.0684   -1.6711 H         1 <0>         0.1353
     19 H5          1.8239    0.4909   -0.4665 H         1 <0>         0.1386
     20 H6          2.4622   -0.9329    1.4370 H         1 <0>         0.1344
     21 H7         -1.1294   -3.1990    0.9337 H         1 <0>         0.1241
     22 H8          1.4933   -2.5799    3.1653 H         1 <0>         0.4350
     23 H9          1.3153   -4.6454    4.2280 H         1 <0>         0.3781
     24 H10         0.2530   -4.3711    0.3783 H         1 <0>         0.4482
     25 H11        -0.5281   -7.7765    0.0179 H         1 <0>         0.4470
     26 H12        -0.2523   -6.4248    3.1543 H         1 <0>         0.4504
     27 H13        -0.0197   -7.8670    2.3245 H         1 <0>         0.4359
     28 H14        -0.2122   -6.3495   -0.8107 H         1 <0>         0.4405
@<TRIPOS>BOND
     1    1    2 1
     2    1   15 1
     3    1   16 1
     4    1   17 1
     5    2    7 ar
     6    2    3 ar
     7    3    4 ar
     8    3   18 1
     9    4    5 ar
    10    4   19 1
    11    5    6 ar
    12    5   20 1
    13    6    7 ar
    14    6    8 1
    15    7   21 1
    16    8    9 1
    17    8   22 1
    18    9   10 2
    19    9   11 1
    20   10   23 1
    21   11   12 1
    22   11   24 1
    23   12   13 2
    24   12   14 1
    25   13   25 1
    26   13   28 1
    27   14   26 1
    28   14   27 1
@<TRIPOS>MOLECULE
ZINC05782223
   28    28     0     0     0
SMALL
USER_CHARGES

@<TRIPOS>ATOM
      1 C1         -1.9493    1.0744   -0.5148 C.3       1 <0>        -0.1207
      2 C2         -2.3830   -0.2674    0.0167 C.ar      1 <0>        -0.0619
      3 C3         -3.5276   -0.8681   -0.4753 C.ar      1 <0>        -0.1208
      4 C4         -3.9290   -2.0992    0.0096 C.ar      1 <0>        -0.0970
      5 C5         -3.1875   -2.7332    0.9875 C.ar      1 <0>        -0.1095
      6 C6         -2.0378   -2.1328    1.4836 C.ar      1 <0>         0.1474
      7 C7         -1.6342   -0.8985    0.9902 C.ar      1 <0>        -0.1379
      8 N1         -1.2851   -2.7717    2.4739 N.pl3     1 <0>        -0.6379
      9 C8         -1.1738   -4.1489    2.4762 C.2       1 <0>         0.6088
     10 N2         -1.6870   -4.8492    1.4952 N.2       1 <0>        -0.7508
     11 N3         -0.5369   -4.7721    3.4883 N.pl3     1 <0>        -0.6336
     12 C9         -0.2915   -6.0666    3.4158 C.cat     1 <0>         0.7594
     13 N4         -0.3771   -6.7122    2.2141 N.pl3     1 <0>        -0.8107
     14 N5          0.0482   -6.7619    4.5425 N.pl3     1 <0>        -0.7796
     15 H1         -1.2913    0.9304   -1.3717 H         1 <0>         0.0758
     16 H2         -2.8263    1.6443   -0.8218 H         1 <0>         0.0731
     17 H3         -1.4167    1.6191    0.2648 H         1 <0>         0.0690
     18 H4         -4.1093   -0.3743   -1.2396 H         1 <0>         0.1288
     19 H5         -4.8234   -2.5654   -0.3764 H         1 <0>         0.1300
     20 H6         -3.5018   -3.6946    1.3661 H         1 <0>         0.1342
     21 H7         -0.7381   -0.4309    1.3708 H         1 <0>         0.1267
     22 H8         -0.8411   -2.2481    3.1591 H         1 <0>         0.4223
     23 H9         -1.7121   -5.8173    1.5517 H         1 <0>         0.3592
     24 H10        -0.2295   -6.2233    1.3893 H         1 <0>         0.4509
     25 H11        -0.5854   -7.6591    2.1860 H         1 <0>         0.4442
     26 H12         0.1089   -6.3038    5.3953 H         1 <0>         0.4433
     27 H13         0.2286   -7.7135    4.4892 H         1 <0>         0.4469
     28 H14        -0.2592   -4.2688    4.2696 H         1 <0>         0.4406
@<TRIPOS>BOND
     1    1    2 1
     2    1   15 1
     3    1   16 1
     4    1   17 1
     5    2    7 ar
     6    2    3 ar
     7    3    4 ar
     8    3   18 1
     9    4    5 ar
    10    4   19 1
    11    5    6 ar
    12    5   20 1
    13    6    7 ar
    14    6    8 1
    15    7   21 1
    16    8    9 1
    17    8   22 1
    18    9   10 2
    19    9   11 1
    20   10   23 1
    21   11   12 2
    22   11   28 1
    23   12   13 1
    24   12   14 1
    25   13   24 1
    26   13   25 1
    27   14   26 1
    28   14   27 1
@<TRIPOS>MOLECULE
ZINC05782223
   28    28     0     0     0
SMALL
USER_CHARGES

@<TRIPOS>ATOM
      1 C1         -0.7364   -1.8492   -2.0606 C.3       1 <0>        -0.1198
      2 C2         -0.2895   -1.5474   -0.6534 C.ar      1 <0>        -0.0660
      3 C3          0.3513   -0.3542   -0.3731 C.ar      1 <0>        -0.1101
      4 C4          0.7629   -0.0734    0.9167 C.ar      1 <0>        -0.0938
      5 C5          0.5351   -0.9844    1.9297 C.ar      1 <0>        -0.1298
      6 C6         -0.1081   -2.1833    1.6516 C.ar      1 <0>         0.1109
      7 C7         -0.5254   -2.4599    0.3558 C.ar      1 <0>        -0.1034
      8 N1         -0.3398   -3.1079    2.6748 N.pl3     1 <0>        -0.6094
      9 C8         -0.3256   -4.4617    2.3989 C.cat     1 <0>         0.7231
     10 N2         -0.6475   -5.3237    3.3314 N.pl3     1 <0>        -0.8040
     11 N3          0.0195   -4.8957    1.1697 N.2       1 <0>        -0.6482
     12 C9          0.8240   -5.9333    1.0381 C.2       1 <0>         0.7228
     13 N4          1.4012   -6.4949    2.1426 N.pl3     1 <0>        -0.8650
     14 N5          1.0801   -6.4465   -0.2026 N.pl3     1 <0>        -0.7878
     15 H1         -1.7498   -1.4758   -2.2080 H         1 <0>         0.0776
     16 H2         -0.0638   -1.3635   -2.7675 H         1 <0>         0.0735
     17 H3         -0.7189   -2.9267   -2.2241 H         1 <0>         0.0694
     18 H4          0.5309    0.3596   -1.1634 H         1 <0>         0.1329
     19 H5          1.2634    0.8590    1.1322 H         1 <0>         0.1369
     20 H6          0.8572   -0.7646    2.9369 H         1 <0>         0.1308
     21 H7         -1.0297   -3.3895    0.1371 H         1 <0>         0.1479
     22 H8         -0.6322   -6.2744    3.1393 H         1 <0>         0.4370
     23 H9          1.2155   -6.1338    3.0235 H         1 <0>         0.4191
     24 H10         1.9965   -7.2545    2.0454 H         1 <0>         0.4237
     25 H11         0.6705   -6.0479   -0.9863 H         1 <0>         0.4400
     26 H12         1.6715   -7.2092   -0.2993 H         1 <0>         0.4297
     27 H13        -0.9011   -5.0113    4.2140 H         1 <0>         0.4291
     28 H14        -0.5106   -2.7989    3.5783 H         1 <0>         0.4329
@<TRIPOS>BOND
     1    1    2 1
     2    1   15 1
     3    1   16 1
     4    1   17 1
     5    2    7 ar
     6    2    3 ar
     7    3    4 ar
     8    3   18 1
     9    4    5 ar
    10    4   19 1
    11    5    6 ar
    12    5   20 1
    13    6    7 ar
    14    6    8 1
    15    7   21 1
    16    8    9 1
    17    8   28 1
    18    9   10 2
    19    9   11 1
    20   10   22 1
    21   10   27 1
    22   11   12 2
    23   12   13 1
    24   12   14 1
    25   13   23 1
    26   13   24 1
    27   14   25 1
    28   14   26 1
@<TRIPOS>MOLECULE
ZINC05782223
   27    27     0     0     0
SMALL
USER_CHARGES

@<TRIPOS>ATOM
      1 C1          0.7630    1.1664   -0.1925 C.3       1 <0>        -0.1131
      2 C2          0.2459   -0.2475   -0.1248 C.ar      1 <0>        -0.0705
      3 C3         -0.2241   -0.8666   -1.2688 C.ar      1 <0>        -0.1470
      4 C4         -0.6998   -2.1635   -1.2109 C.ar      1 <0>        -0.0971
      5 C5         -0.7071   -2.8451   -0.0094 C.ar      1 <0>        -0.1607
      6 C6         -0.2355   -2.2265    1.1409 C.ar      1 <0>         0.1822
      7 C7          0.2470   -0.9254    1.0782 C.ar      1 <0>        -0.1149
      8 N1         -0.2419   -2.9136    2.3591 N.pl3     1 <0>        -0.6403
      9 C8         -0.4927   -2.2357    3.5303 C.2       1 <0>         0.6442
     10 N2         -0.8655   -0.9882    3.4936 N.2       1 <0>        -0.7870
     11 N3         -0.3493   -2.8774    4.7431 N.pl3     1 <0>        -0.6829
     12 C9          0.1710   -4.1539    4.7906 C.2       1 <0>         0.6399
     13 N4          0.6513   -4.7020    3.7111 N.2       1 <0>        -0.8149
     14 N5          0.1828   -4.8476    5.9774 N.pl3     1 <0>        -0.8854
     15 H1          1.8311    1.1526   -0.4096 H         1 <0>         0.0675
     16 H2          0.2391    1.7076   -0.9804 H         1 <0>         0.0648
     17 H3          0.5929    1.6617    0.7634 H         1 <0>         0.0659
     18 H4         -0.2198   -0.3358   -2.2093 H         1 <0>         0.1179
     19 H5         -1.0664   -2.6441   -2.1059 H         1 <0>         0.1216
     20 H6         -1.0794   -3.8579    0.0353 H         1 <0>         0.1186
     21 H7          0.6186   -0.4430    1.9702 H         1 <0>         0.1321
     22 H8         -0.0696   -3.8680    2.3786 H         1 <0>         0.4322
     23 H9         -0.9715   -0.4893    4.3187 H         1 <0>         0.3405
     24 H10         1.0173   -5.5997    3.7445 H         1 <0>         0.3537
     25 H11        -0.1749   -4.4394    6.7813 H         1 <0>         0.3970
     26 H12         0.5487   -5.7453    6.0108 H         1 <0>         0.4140
     27 H13        -0.6144   -2.4309    5.5624 H         1 <0>         0.4220
@<TRIPOS>BOND
     1    1    2 1
     2    1   15 1
     3    1   16 1
     4    1   17 1
     5    2    7 ar
     6    2    3 ar
     7    3    4 ar
     8    3   18 1
     9    4    5 ar
    10    4   19 1
    11    5    6 ar
    12    5   20 1
    13    6    7 ar
    14    6    8 1
    15    7   21 1
    16    8    9 1
    17    8   22 1
    18    9   10 2
    19    9   11 1
    20   10   23 1
    21   11   12 1
    22   11   27 1
    23   12   13 2
    24   12   14 1
    25   13   24 1
    26   14   25 1
    27   14   26 1
@<TRIPOS>MOLECULE
ZINC05782223
   27    27     0     0     0
SMALL
USER_CHARGES

@<TRIPOS>ATOM
      1 C1          0.0559    1.0480    0.4022 C.3       1 <0>        -0.1212
      2 C2          0.0036   -0.4403    0.1717 C.ar      1 <0>        -0.0490
      3 C3          0.2195   -0.9512   -1.0953 C.ar      1 <0>        -0.1396
      4 C4          0.1719   -2.3160   -1.3111 C.ar      1 <0>        -0.0809
      5 C5         -0.0915   -3.1740   -0.2611 C.ar      1 <0>        -0.1543
      6 C6         -0.3082   -2.6644    1.0124 C.ar      1 <0>         0.1555
      7 C7         -0.2542   -1.2930    1.2269 C.ar      1 <0>        -0.1776
      8 N1         -0.5757   -3.5303    2.0777 N.pl3     1 <0>        -0.7013
      9 C8         -1.4675   -3.1599    3.0584 C.2       1 <0>         0.6335
     10 N2         -1.6199   -3.9056    4.1154 N.2       1 <0>        -0.7875
     11 N3         -2.1999   -1.9989    2.9218 N.pl3     1 <0>        -0.6873
     12 C9         -3.0041   -1.5652    3.9552 C.2       1 <0>         0.6502
     13 N4         -3.8259   -0.5721    3.7682 N.2       1 <0>        -0.8018
     14 N5         -2.9383   -2.1812    5.1824 N.pl3     1 <0>        -0.8246
     15 H1          1.0757    1.3415    0.6511 H         1 <0>         0.0762
     16 H2         -0.2611    1.5671   -0.5023 H         1 <0>         0.0727
     17 H3         -0.6091    1.3119    1.2245 H         1 <0>         0.0688
     18 H4          0.4253   -0.2824   -1.9180 H         1 <0>         0.1274
     19 H5          0.3406   -2.7117   -2.3017 H         1 <0>         0.1300
     20 H6         -0.1292   -4.2400   -0.4304 H         1 <0>         0.1273
     21 H7         -0.4179   -0.8938    2.2169 H         1 <0>         0.1304
     22 H8         -0.1328   -4.3920    2.1253 H         1 <0>         0.4200
     23 H9         -1.0538   -4.6822    4.2467 H         1 <0>         0.3484
     24 H10        -2.1494   -1.4875    2.0992 H         1 <0>         0.4212
     25 H11        -2.1367   -2.6622    5.4412 H         1 <0>         0.4176
     26 H12        -3.6934   -2.1348    5.7894 H         1 <0>         0.4073
     27 H13        -3.8723   -0.1374    2.9023 H         1 <0>         0.3389
@<TRIPOS>BOND
     1    1    2 1
     2    1   15 1
     3    1   16 1
     4    1   17 1
     5    2    7 ar
     6    2    3 ar
     7    3    4 ar
     8    3   18 1
     9    4    5 ar
    10    4   19 1
    11    5    6 ar
    12    5   20 1
    13    6    7 ar
    14    6    8 1
    15    7   21 1
    16    8    9 1
    17    8   22 1
    18    9   10 2
    19    9   11 1
    20   10   23 1
    21   11   12 1
    22   11   24 1
    23   12   13 2
    24   12   14 1
    25   13   27 1
    26   14   25 1
    27   14   26 1
@<TRIPOS>MOLECULE
ZINC05782223
   27    27     0     0     0
SMALL
USER_CHARGES

@<TRIPOS>ATOM
      1 C1         -0.5612    1.4623    0.0216 C.3       1 <0>        -0.1196
      2 C2         -0.2470   -0.0116    0.0148 C.ar      1 <0>        -0.0523
      3 C3          0.0393   -0.6513   -1.1775 C.ar      1 <0>        -0.1427
      4 C4          0.3276   -2.0035   -1.1881 C.ar      1 <0>        -0.0824
      5 C5          0.3307   -2.7199   -0.0071 C.ar      1 <0>        -0.1552
      6 C6          0.0442   -2.0804    1.1918 C.ar      1 <0>         0.1610
      7 C7         -0.2396   -0.7206    1.1997 C.ar      1 <0>        -0.1767
      8 N1          0.0459   -2.8030    2.3894 N.pl3     1 <0>        -0.7095
      9 C8         -0.9252   -2.5684    3.3360 C.2       1 <0>         0.6155
     10 N2         -0.8580   -3.1548    4.4971 N.2       1 <0>        -0.7025
     11 N3         -1.9698   -1.7122    3.0551 N.pl3     1 <0>        -0.6428
     12 C9         -2.9431   -1.4772    4.0038 C.2       1 <0>         0.6113
     13 N4         -2.8758   -2.0636    5.1649 N.2       1 <0>        -0.7251
     14 N5         -3.9840   -0.6240    3.7239 N.pl3     1 <0>        -0.8990
     15 H1          0.3612    2.0299    0.1441 H         1 <0>         0.0750
     16 H2         -1.0346    1.7372   -0.9210 H         1 <0>         0.0711
     17 H3         -1.2376    1.6858    0.8466 H         1 <0>         0.0671
     18 H4          0.0372   -0.0936   -2.1023 H         1 <0>         0.1254
     19 H5          0.5504   -2.5002   -2.1209 H         1 <0>         0.1281
     20 H6          0.5553   -3.7762   -0.0162 H         1 <0>         0.1264
     21 H7         -0.4585   -0.2195    2.1310 H         1 <0>         0.1285
     22 H8          0.7315   -3.4694    2.5528 H         1 <0>         0.4190
     23 H9         -0.0848   -3.6949    4.7236 H         1 <0>         0.3331
     24 H10        -2.0199   -1.2755    2.1904 H         1 <0>         0.4176
     25 H11        -3.5603   -1.8982    5.8321 H         1 <0>         0.3306
     26 H12        -4.0340   -0.1873    2.8592 H         1 <0>         0.3870
     27 H13        -4.6684   -0.4587    4.3911 H         1 <0>         0.4110
@<TRIPOS>BOND
     1    1    2 1
     2    1   15 1
     3    1   16 1
     4    1   17 1
     5    2    7 ar
     6    2    3 ar
     7    3    4 ar
     8    3   18 1
     9    4    5 ar
    10    4   19 1
    11    5    6 ar
    12    5   20 1
    13    6    7 ar
    14    6    8 1
    15    7   21 1
    16    8    9 1
    17    8   22 1
    18    9   10 2
    19    9   11 1
    20   10   23 1
    21   11   12 1
    22   11   24 1
    23   12   13 2
    24   12   14 1
    25   13   25 1
    26   14   26 1
    27   14   27 1
@<TRIPOS>MOLECULE
ZINC05782223
   27    27     0     0     0
SMALL
USER_CHARGES

@<TRIPOS>ATOM
      1 C1         -2.1210    0.1164   -0.7306 C.3       1 <0>        -0.1146
      2 C2         -2.1543   -1.3393   -0.3419 C.ar      1 <0>        -0.0680
      3 C3         -2.6898   -2.2738   -1.2095 C.ar      1 <0>        -0.1425
      4 C4         -2.7227   -3.6102   -0.8566 C.ar      1 <0>        -0.0950
      5 C5         -2.2204   -4.0162    0.3645 C.ar      1 <0>        -0.1630
      6 C6         -1.6817   -3.0804    1.2377 C.ar      1 <0>         0.1696
      7 C7         -1.6451   -1.7393    0.8777 C.ar      1 <0>        -0.1194
      8 N1         -1.1728   -3.4881    2.4751 N.pl3     1 <0>        -0.6654
      9 C8         -1.1417   -2.6057    3.5309 C.2       1 <0>         0.6193
     10 N2         -1.6963   -1.4328    3.4159 N.2       1 <0>        -0.7731
     11 N3         -0.5232   -2.9636    4.7110 N.pl3     1 <0>        -0.7275
     12 C9          0.1714   -4.1524    4.7926 C.2       1 <0>         0.6201
     13 N4          0.3474   -4.7257    5.9489 N.2       1 <0>        -0.7791
     14 N5          0.6778   -4.7322    3.6538 N.pl3     1 <0>        -0.8505
     15 H1         -1.1897    0.3313   -1.2545 H         1 <0>         0.0693
     16 H2         -2.9649    0.3373   -1.3842 H         1 <0>         0.0659
     17 H3         -2.1845    0.7333    0.1658 H         1 <0>         0.0679
     18 H4         -3.0835   -1.9589   -2.1647 H         1 <0>         0.1203
     19 H5         -3.1418   -4.3375   -1.5362 H         1 <0>         0.1244
     20 H6         -2.2471   -5.0601    0.6399 H         1 <0>         0.1205
     21 H7         -1.2227   -1.0097    1.5527 H         1 <0>         0.1522
     22 H8         -0.8417   -4.3927    2.5891 H         1 <0>         0.4164
     23 H9         -1.6121   -0.7842    4.1322 H         1 <0>         0.3458
     24 H10        -0.0708   -4.3561    6.7422 H         1 <0>         0.3494
     25 H11         0.7361   -4.2188    2.8329 H         1 <0>         0.4090
     26 H12         0.9769   -5.6548    3.6710 H         1 <0>         0.4220
     27 H13        -0.5769   -2.3792    5.4833 H         1 <0>         0.4264
@<TRIPOS>BOND
     1    1    2 1
     2    1   15 1
     3    1   16 1
     4    1   17 1
     5    2    7 ar
     6    2    3 ar
     7    3    4 ar
     8    3   18 1
     9    4    5 ar
    10    4   19 1
    11    5    6 ar
    12    5   20 1
    13    6    7 ar
    14    6    8 1
    15    7   21 1
    16    8    9 1
    17    8   22 1
    18    9   10 2
    19    9   11 1
    20   10   23 1
    21   11   12 1
    22   11   27 1
    23   12   13 2
    24   12   14 1
    25   13   24 1
    26   14   25 1
    27   14   26 1
@<TRIPOS>MOLECULE
ZINC29341878
   23    23     0     0     0
SMALL
USER_CHARGES

@<TRIPOS>ATOM
      1 C1         -2.1405    1.2076   -1.4462 C.3       1 <0>         0.0511
      2 N1         -2.2204   -0.1639   -0.9374 N.pl3     1 <0>        -0.6938
      3 C2         -1.0872   -0.7949   -0.4807 C.cat     1 <0>         0.7341
      4 N2          0.0580   -0.1729   -0.5004 N.pl3     1 <0>        -0.7657
      5 N3         -1.1623   -2.0836   -0.0027 N.pl3     1 <0>        -0.6361
      6 C3         -2.3612   -2.7973   -0.1011 C.ar      1 <0>         0.1161
      7 C4         -3.1307   -2.7096   -1.2543 C.ar      1 <0>        -0.1557
      8 C5         -4.3138   -3.4155   -1.3491 C.ar      1 <0>        -0.0688
      9 C6         -4.7336   -4.2093   -0.2975 C.ar      1 <0>        -0.0957
     10 C7         -3.9698   -4.2992    0.8529 C.ar      1 <0>        -0.0078
     11 C8         -2.7817   -3.5993    0.9514 C.ar      1 <0>        -0.1092
     12 Cl1        -4.5009   -5.2964    2.1710 Cl        1 <0>        -0.0305
     13 H1         -3.1309    1.5368   -1.7604 H         1 <0>         0.1189
     14 H2         -1.7713    1.8659   -0.6597 H         1 <0>         0.0876
     15 H3         -1.4597    1.2405   -2.2968 H         1 <0>         0.0881
     16 H4         -3.0726   -0.6269   -0.9227 H         1 <0>         0.4388
     17 H5          0.8424   -0.5885   -0.1096 H         1 <0>         0.4437
     18 H6         -0.3837   -2.4968    0.4024 H         1 <0>         0.4442
     19 H7         -2.8042   -2.0894   -2.0759 H         1 <0>         0.1405
     20 H8         -4.9121   -3.3474   -2.2457 H         1 <0>         0.1534
     21 H9         -5.6596   -4.7598   -0.3740 H         1 <0>         0.1520
     22 H10        -2.1835   -3.6727    1.8477 H         1 <0>         0.1502
     23 H11         0.1257    0.7057   -0.9059 H         1 <0>         0.4447
@<TRIPOS>BOND
     1    1    2 1
     2    1   13 1
     3    1   14 1
     4    1   15 1
     5    2    3 1
     6    2   16 1
     7    3    4 2
     8    3    5 1
     9    4   17 1
    10    4   23 1
    11    5    6 1
    12    5   18 1
    13    6   11 ar
    14    6    7 ar
    15    7    8 ar
    16    7   19 1
    17    8    9 ar
    18    8   20 1
    19    9   10 ar
    20    9   21 1
    21   10   11 ar
    22   10   12 1
    23   11   22 1
@<TRIPOS>MOLECULE
ZINC29341878
   22    22     0     0     0
SMALL
USER_CHARGES
1-(3-chlorophenyl)-2-methyl-guanidine
@<TRIPOS>ATOM
      1 C1          2.1994    0.4388    1.6743 C.3       1 <0>         0.0591
      2 N1          2.1823    1.7795    1.0840 N.pl3     1 <0>        -0.7430
      3 C2          1.0820    2.2503    0.5678 C.2       1 <0>         0.6498
      4 N2         -0.0628    1.4885    0.5773 N.pl3     1 <0>        -0.8610
      5 N3          1.0658    3.5100    0.0131 N.2       1 <0>        -0.6639
      6 C3          2.2546    4.2377   -0.1044 C.ar      1 <0>         0.1931
      7 C4          2.2376    5.6219    0.0114 C.ar      1 <0>        -0.1427
      8 C5          3.4126    6.3381   -0.1051 C.ar      1 <0>        -0.0702
      9 C6          4.6060    5.6790   -0.3368 C.ar      1 <0>        -0.1644
     10 C7          4.6271    4.3002   -0.4522 C.ar      1 <0>         0.0064
     11 C8          3.4547    3.5775   -0.3313 C.ar      1 <0>        -0.2403
     12 Cl1         6.1277    3.4768   -0.7419 Cl        1 <0>        -0.0798
     13 H1          3.2077    0.2187    2.0551 H         1 <0>         0.0869
     14 H2          1.9266   -0.3024    0.9087 H         1 <0>         0.0661
     15 H3          1.4767    0.3935    2.5024 H         1 <0>         0.0631
     16 H4         -0.9914    1.8858    0.1417 H         1 <0>         0.4448
     17 H5         -0.0499    0.4818    1.0205 H         1 <0>         0.4264
     18 H6          1.3062    6.1376    0.1926 H         1 <0>         0.1282
     19 H7          3.3995    7.4142   -0.0148 H         1 <0>         0.1308
     20 H8          5.5235    6.2415   -0.4274 H         1 <0>         0.1284
     21 H9          3.4719    2.5010   -0.4169 H         1 <0>         0.1344
     22 H10         3.0981    2.3888    1.0764 H         1 <0>         0.4480
@<TRIPOS>BOND
     1    1    2 1
     2    1   13 1
     3    1   14 1
     4    1   15 1
     5    2    3 1
     6    2   22 1
     7    3    4 1
     8    3    5 2
     9    4   16 1
    10    4   17 1
    11    5    6 1
    12    6   11 ar
    13    6    7 ar
    14    7    8 ar
    15    7   18 1
    16    8    9 ar
    17    8   19 1
    18    9   10 ar
    19    9   20 1
    20   10   11 ar
    21   10   12 1
    22   11   21 1
@<TRIPOS>MOLECULE
ZINC15924299
   28    28     0     0     0
SMALL
NO_CHARGES

@<TRIPOS>ATOM
      1 C1         -3.5788    0.5899    0.1969 C.3       1 <0>        -0.1104
      2 C2         -2.9621   -0.7850    0.1760 C.ar      1 <0>        -0.1189
      3 C3         -1.8748   -1.0658    0.9828 C.ar      1 <0>        -0.1024
      4 C4         -1.3073   -2.3248    0.9660 C.ar      1 <0>        -0.1190
      5 C5         -1.8299   -3.3094    0.1375 C.ar      1 <0>         0.1678
      6 C6         -2.9221   -3.0241   -0.6716 C.ar      1 <0>        -0.1632
      7 C7         -3.4884   -1.7647   -0.6459 C.ar      1 <0>        -0.0998
      8 N1         -1.2573   -4.5854    0.1178 N.pl3     1 <0>        -0.6609
      9 C8         -0.5775   -5.0516    1.2197 C.2       1 <0>         0.5714
     10 N2         -0.5692   -4.3575    2.3214 N.2       1 <0>        -0.8073
     11 N3          0.0958   -6.2553    1.1571 N.pl3     1 <0>        -0.6352
     12 C9          0.1992   -6.9227   -0.0383 C.cat     1 <0>         0.2519
     13 N4          0.4143   -8.2363   -0.0508 N.pl3     1 <0>        -0.8198
     14 N5          0.0843   -6.2562   -1.1848 N.pl3     1 <0>        -0.8252
     15 H1         -4.3587    0.6267    0.9574 H         1 <0>         0.0655
     16 H2         -2.8113    1.3288    0.4274 H         1 <0>         0.0628
     17 H3         -4.0122    0.8086   -0.7790 H         1 <0>         0.0619
     18 H4         -1.4686   -0.2996    1.6266 H         1 <0>         0.1189
     19 H5         -0.4579   -2.5434    1.5962 H         1 <0>         0.1545
     20 H6         -3.3306   -3.7875   -1.3172 H         1 <0>         0.1163
     21 H7         -4.3404   -1.5435   -1.2716 H         1 <0>         0.1196
     22 H8         -1.3394   -5.1416   -0.6726 H         1 <0>         0.4111
     23 H9         -0.0315   -4.6490    3.0742 H         1 <0>         0.3347
     24 H10         0.4958   -6.6295    1.9576 H         1 <0>         0.4176
     25 H11         0.4981   -8.7219    0.7847 H         1 <0>         0.4012
     26 H12         0.1439   -5.2880   -1.1911 H         1 <0>         0.4038
     27 H13        -0.0591   -6.7386   -2.0140 H         1 <0>         0.4005
     28 H14         0.4874   -8.7078   -0.8953 H         1 <0>         0.4025
@<TRIPOS>BOND
     1    1    2 1
     2    1   15 1
     3    1   16 1
     4    1   17 1
     5    2    7 ar
     6    2    3 ar
     7    3    4 ar
     8    3   18 1
     9    4    5 ar
    10    4   19 1
    11    5    6 ar
    12    5    8 1
    13    6    7 ar
    14    6   20 1
    15    7   21 1
    16    8    9 1
    17    8   22 1
    18    9   10 2
    19    9   11 1
    20   10   23 1
    21   11   12 1
    22   11   24 1
    23   12   13 2
    24   12   14 1
    25   13   25 1
    26   13   28 1
    27   14   26 1
    28   14   27 1
@<TRIPOS>MOLECULE
ZINC15924299
   28    28     0     0     0
SMALL
USER_CHARGES

@<TRIPOS>ATOM
      1 C1         -0.6327    0.8972   -0.9958 C.3       1 <0>        -0.1253
      2 C2         -0.3422   -0.5529   -0.7064 C.ar      1 <0>        -0.0685
      3 C3          0.3254   -0.9049    0.4523 C.ar      1 <0>        -0.1058
      4 C4          0.5932   -2.2330    0.7205 C.ar      1 <0>        -0.0951
      5 C5          0.1908   -3.2155   -0.1749 C.ar      1 <0>         0.0980
      6 C6         -0.4800   -2.8586   -1.3376 C.ar      1 <0>        -0.1169
      7 C7         -0.7489   -1.5291   -1.5975 C.ar      1 <0>        -0.1022
      8 N1          0.4607   -4.5611    0.0933 N.pl3     1 <0>        -0.6083
      9 C8          0.4768   -5.0157    1.3980 C.cat     1 <0>         0.7223
     10 N2          0.8340   -6.2491    1.6575 N.pl3     1 <0>        -0.8044
     11 N3          0.1249   -4.1899    2.4041 N.2       1 <0>        -0.6487
     12 C9         -0.6548   -4.6272    3.3746 C.2       1 <0>         0.7229
     13 N4         -1.2014   -5.8779    3.3010 N.pl3     1 <0>        -0.8652
     14 N5         -0.9160   -3.8296    4.4535 N.pl3     1 <0>        -0.7880
     15 H1         -1.5987    1.1665   -0.5687 H         1 <0>         0.0781
     16 H2          0.1459    1.5189   -0.5540 H         1 <0>         0.0733
     17 H3         -0.6555    1.0551   -2.0741 H         1 <0>         0.0732
     18 H4          0.6380   -0.1404    1.1482 H         1 <0>         0.1343
     19 H5          1.1152   -2.5072    1.6253 H         1 <0>         0.1480
     20 H6         -0.7942   -3.6202   -2.0359 H         1 <0>         0.1313
     21 H7         -1.2740   -1.2513   -2.4994 H         1 <0>         0.1361
     22 H8          0.8403   -6.5698    2.5730 H         1 <0>         0.4369
     23 H9         -1.0119   -6.4459    2.5379 H         1 <0>         0.4191
     24 H10        -1.7788   -6.1975    4.0120 H         1 <0>         0.4237
     25 H11        -0.5281   -2.9421    4.5057 H         1 <0>         0.4402
     26 H12        -1.4892   -4.1511    5.1669 H         1 <0>         0.4296
     27 H13         1.0922   -6.8417    0.9343 H         1 <0>         0.4289
     28 H14         0.6367   -5.1754   -0.6365 H         1 <0>         0.4325
@<TRIPOS>BOND
     1    1    2 1
     2    1   15 1
     3    1   16 1
     4    1   17 1
     5    2    7 ar
     6    2    3 ar
     7    3    4 ar
     8    3   18 1
     9    4    5 ar
    10    4   19 1
    11    5    6 ar
    12    5    8 1
    13    6    7 ar
    14    6   20 1
    15    7   21 1
    16    8    9 1
    17    8   28 1
    18    9   10 2
    19    9   11 1
    20   10   22 1
    21   10   27 1
    22   11   12 2
    23   12   13 1
    24   12   14 1
    25   13   23 1
    26   13   24 1
    27   14   25 1
    28   14   26 1
@<TRIPOS>MOLECULE
ZINC15924299
   27    27     0     0     0
SMALL
USER_CHARGES

@<TRIPOS>ATOM
      1 C1          3.2550    0.6408    1.6316 C.3       1 <0>        -0.1134
      2 C2          2.7352   -0.7422    1.3347 C.ar      1 <0>        -0.1073
      3 C3          2.1884   -1.0224    0.0959 C.ar      1 <0>        -0.1021
      4 C4          1.7111   -2.2889   -0.1794 C.ar      1 <0>        -0.1143
      5 C5          1.7808   -3.2814    0.7896 C.ar      1 <0>         0.1602
      6 C6          2.3305   -2.9966    2.0328 C.ar      1 <0>        -0.1523
      7 C7          2.8112   -1.7297    2.2998 C.ar      1 <0>        -0.0999
      8 N1          1.2979   -4.5649    0.5142 N.pl3     1 <0>        -0.6652
      9 C8          1.2604   -5.0223   -0.7833 C.2       1 <0>         0.6195
     10 N2          1.7861   -4.3115   -1.7398 N.2       1 <0>        -0.7740
     11 N3          0.6660   -6.2336   -1.0708 N.pl3     1 <0>        -0.7276
     12 C9          0.0007   -6.9273   -0.0816 C.2       1 <0>         0.6201
     13 N4         -0.1464   -8.2180   -0.1776 N.2       1 <0>        -0.7792
     14 N5         -0.5072   -6.2566    1.0055 N.pl3     1 <0>        -0.8505
     15 H1          4.3066    0.7017    1.3513 H         1 <0>         0.0682
     16 H2          2.6841    1.3737    1.0615 H         1 <0>         0.0649
     17 H3          3.1503    0.8474    2.6967 H         1 <0>         0.0644
     18 H4          2.1343   -0.2501   -0.6571 H         1 <0>         0.1226
     19 H5          1.2839   -2.5071   -1.1470 H         1 <0>         0.1524
     20 H6          2.3858   -3.7661    2.7886 H         1 <0>         0.1211
     21 H7          3.2428   -1.5087    3.2648 H         1 <0>         0.1238
     22 H8          0.9894   -5.1326    1.2377 H         1 <0>         0.4161
     23 H9          1.6964   -4.5978   -2.6623 H         1 <0>         0.3459
     24 H10         0.2736   -8.7011   -0.9063 H         1 <0>         0.3494
     25 H11        -0.5885   -5.2903    0.9846 H         1 <0>         0.4090
     26 H12        -0.7842   -6.7497    1.7936 H         1 <0>         0.4219
     27 H13         0.7160   -6.5974   -1.9686 H         1 <0>         0.4264
@<TRIPOS>BOND
     1    1    2 1
     2    1   15 1
     3    1   16 1
     4    1   17 1
     5    2    7 ar
     6    2    3 ar
     7    3    4 ar
     8    3   18 1
     9    4    5 ar
    10    4   19 1
    11    5    6 ar
    12    5    8 1
    13    6    7 ar
    14    6   20 1
    15    7   21 1
    16    8    9 1
    17    8   22 1
    18    9   10 2
    19    9   11 1
    20   10   23 1
    21   11   12 1
    22   11   27 1
    23   12   13 2
    24   12   14 1
    25   13   24 1
    26   14   25 1
    27   14   26 1
@<TRIPOS>MOLECULE
ZINC15924299
   27    27     0     0     0
SMALL
USER_CHARGES

@<TRIPOS>ATOM
      1 C1          0.1959    1.4753    0.2231 C.3       1 <0>        -0.1108
      2 C2          0.2376   -0.0307    0.1880 C.ar      1 <0>        -0.1133
      3 C3         -0.2335   -0.7082   -0.9216 C.ar      1 <0>        -0.1030
      4 C4         -0.1966   -2.0884   -0.9570 C.ar      1 <0>        -0.1108
      5 C5          0.3143   -2.7958    0.1235 C.ar      1 <0>         0.1736
      6 C6          0.7867   -2.1123    1.2364 C.ar      1 <0>        -0.1507
      7 C7          0.7522   -0.7319    1.2631 C.ar      1 <0>        -0.1011
      8 N1          0.3527   -4.1936    0.0911 N.pl3     1 <0>        -0.6401
      9 C8          0.5999   -4.8479   -1.0942 C.2       1 <0>         0.6442
     10 N2          0.9398   -4.1705   -2.1534 N.2       1 <0>        -0.7880
     11 N3          0.4877   -6.2213   -1.1604 N.pl3     1 <0>        -0.6829
     12 C9          0.0010   -6.9264   -0.0794 C.2       1 <0>         0.6399
     13 N4         -0.4780   -6.2899    0.9511 N.2       1 <0>        -0.8147
     14 N5          0.0215   -8.3009   -0.0897 N.pl3     1 <0>        -0.8859
     15 H1          1.1211    1.8743   -0.1927 H         1 <0>         0.0663
     16 H2         -0.6498    1.8292   -0.3666 H         1 <0>         0.0631
     17 H3          0.0860    1.8118    1.2540 H         1 <0>         0.0628
     18 H4         -0.6310   -0.1576   -1.7614 H         1 <0>         0.1195
     19 H5         -0.5650   -2.6170   -1.8237 H         1 <0>         0.1325
     20 H6          1.1843   -2.6595    2.0784 H         1 <0>         0.1193
     21 H7          1.1234   -0.1996    2.1264 H         1 <0>         0.1210
     22 H8          0.2050   -4.7018    0.9040 H         1 <0>         0.4320
     23 H9          1.0428   -4.6222   -3.0057 H         1 <0>         0.3406
     24 H10         0.7511   -6.6911   -1.9671 H         1 <0>         0.4220
     25 H11        -0.8203   -6.7857    1.7113 H         1 <0>         0.3537
     26 H12         0.4454   -8.7741   -0.8226 H         1 <0>         0.3971
     27 H13        -0.3878   -8.7975    0.6361 H         1 <0>         0.4139
@<TRIPOS>BOND
     1    1    2 1
     2    1   15 1
     3    1   16 1
     4    1   17 1
     5    2    7 ar
     6    2    3 ar
     7    3    4 ar
     8    3   18 1
     9    4    5 ar
    10    4   19 1
    11    5    6 ar
    12    5    8 1
    13    6    7 ar
    14    6   20 1
    15    7   21 1
    16    8    9 1
    17    8   22 1
    18    9   10 2
    19    9   11 1
    20   10   23 1
    21   11   12 1
    22   11   24 1
    23   12   13 2
    24   12   14 1
    25   13   25 1
    26   14   26 1
    27   14   27 1
@<TRIPOS>MOLECULE
ZINC11735100
   30    32     0     0     0
SMALL
USER_CHARGES
2-piperazin-1-yl-1H-benzimidazole
@<TRIPOS>ATOM
      1 C1          1.1718    1.7834    0.0004 C.ar      1 <0>        -0.0896
      2 C2          1.1617    3.1703    0.0080 C.ar      1 <0>        -0.1165
      3 C3         -0.0298    3.8603    0.0227 C.ar      1 <0>        -0.0662
      4 C4         -1.2378    3.1587    0.0305 C.ar      1 <0>         0.0568
      5 C5         -1.2218    1.7543    0.0174 C.ar      1 <0>         0.0593
      6 C6         -0.0126    1.0758    0.0080 C.ar      1 <0>        -0.1118
      7 N1         -2.5480    1.3539    0.0210 N.pl3     1 <0>        -0.5998
      8 H1         -2.8831    0.4117    0.0173 H         1 <0>         0.4302
      9 C7         -3.3125    2.4852    0.0306 C.2       1 <0>         0.4363
     10 N2         -2.5411    3.5437    0.0446 N.2       1 <0>        -0.5045
     11 N3         -4.6913    2.5096    0.0372 N.pl3     1 <0>        -0.4598
     12 C8         -5.2260    1.7499    1.1758 C.3       1 <0>         0.0221
     13 C9         -6.7547    1.7345    1.1026 C.3       1 <0>         0.0051
     14 C10        -6.7222    3.8753   -0.0264 C.3       1 <0>         0.0000
     15 C11        -5.1935    3.8907    0.0468 C.3       1 <0>         0.0435
     16 H2          2.1130    1.2538   -0.0118 H         1 <0>         0.1380
     17 H3          2.0953    3.7132    0.0020 H         1 <0>         0.1374
     18 H4         -0.0304    4.9403    0.0278 H         1 <0>         0.1338
     19 H5          0.0021   -0.0041    0.0020 H         1 <0>         0.1279
     20 H6         -4.8499    0.7275    1.1396 H         1 <0>         0.1236
     21 H7         -4.9112    2.2207    2.1071 H         1 <0>         0.0781
     22 H8         -7.1545    1.1961    1.9619 H         1 <0>         0.1459
     23 H9         -7.0698    1.2393    0.1841 H         1 <0>         0.1434
     24 H10        -7.0983    4.8977    0.0098 H         1 <0>         0.1477
     25 H11        -7.0369    3.4048   -0.9579 H         1 <0>         0.1422
     26 H12        -4.8784    4.3858    0.9653 H         1 <0>         0.0829
     27 H13        -4.7937    4.4290   -0.8125 H         1 <0>         0.1382
     28 N4         -7.2631    3.1192    1.1190 N.4       1 <0>        -0.5199
     29 H14        -6.9754    3.5755    1.9926 H         1 <0>         0.4335
     30 H15        -8.2881    3.1046    1.0619 H         1 <0>         0.4424
@<TRIPOS>BOND
     1    1    6 ar
     2    1    2 ar
     3    1   16 1
     4    2    3 ar
     5    2   17 1
     6    3    4 ar
     7    3   18 1
     8    4   10 1
     9    4    5 ar
    10    5    6 ar
    11    5    7 1
    12    6   19 1
    13    7    8 1
    14    7    9 1
    15    9   10 2
    16    9   11 1
    17   11   15 1
    18   11   12 1
    19   12   13 1
    20   12   20 1
    21   12   21 1
    22   13   22 1
    23   13   23 1
    24   13   28 1
    25   14   15 1
    26   14   24 1
    27   14   25 1
    28   14   28 1
    29   15   26 1
    30   15   27 1
    31   28   29 1
    32   28   30 1
@<TRIPOS>MOLECULE
ZINC01571103
   23    23     0     0     0
SMALL
USER_CHARGES
1-(m-tolyl)guanidine
@<TRIPOS>ATOM
      1 C1         -1.2208    2.0414   -3.5997 C.3       1 <0>        -0.1279
      2 C2         -0.2570    2.7298   -2.6680 C.ar      1 <0>        -0.0461
      3 C3          0.9882    2.1768   -2.4301 C.ar      1 <0>        -0.1062
      4 C4          1.8777    2.8085   -1.5808 C.ar      1 <0>        -0.0804
      5 C5          1.5229    3.9917   -0.9626 C.ar      1 <0>        -0.1624
      6 C6          0.2714    4.5467   -1.1949 C.ar      1 <0>         0.1000
      7 C7         -0.6199    3.9095   -2.0488 C.ar      1 <0>        -0.1185
      8 N1         -0.0911    5.7446   -0.5702 N.pl3     1 <0>        -0.6344
      9 C8          0.2825    5.9814    0.7333 C.cat     1 <0>         0.7427
     10 N2          0.9060    4.9945    1.4600 N.pl3     1 <0>        -0.8056
     11 H1         -1.8397    1.3457   -3.0330 H         1 <0>         0.0832
     12 H2         -1.8566    2.7854   -4.0795 H         1 <0>         0.0751
     13 H3         -0.6633    1.4949   -4.3604 H         1 <0>         0.0793
     14 H4          1.2679    1.2517   -2.9122 H         1 <0>         0.1399
     15 H5          2.8511    2.3765   -1.4008 H         1 <0>         0.1425
     16 H6          2.2184    4.4850   -0.2996 H         1 <0>         0.1348
     17 H7         -1.5941    4.3384   -2.2313 H         1 <0>         0.1381
     18 H8         -0.6057    6.4082   -1.0555 H         1 <0>         0.4417
     19 H9          0.2707    7.4043    2.1905 H         1 <0>         0.4551
     20 H10         0.9358    4.0869    1.1194 H         1 <0>         0.4425
     21 H11         1.3159    5.2061    2.3133 H         1 <0>         0.4382
     22 N3          0.0133    7.1804    1.2292 N.pl3     1 <0>        -0.7898
     23 H12        -0.4543    7.8841    0.6458 H         1 <0>         0.4582
@<TRIPOS>BOND
     1    1    2 1
     2    1   11 1
     3    1   12 1
     4    1   13 1
     5    2    7 ar
     6    2    3 ar
     7    3    4 ar
     8    3   14 1
     9    4    5 ar
    10    4   15 1
    11    5    6 ar
    12    5   16 1
    13    6    7 ar
    14    6    8 1
    15    7   17 1
    16    8    9 1
    17    8   18 1
    18    9   10 1
    19    9   22 2
    20   10   20 1
    21   10   21 1
    22   19   22 1
    23   22   23 1
@<TRIPOS>MOLECULE
ZINC04772989
   24    24     0     0     0
SMALL
USER_CHARGES
1-(4-methoxyphenyl)guanidine
@<TRIPOS>ATOM
      1 C1         -6.6669    3.1489   -0.4814 C.3       1 <0>         0.0194
      2 O1         -6.1791    1.8316   -0.2195 O.3       1 <0>        -0.3051
      3 C2         -4.8296    1.6716   -0.1692 C.ar      1 <0>         0.1490
      4 C3         -4.2889    0.4189    0.0810 C.ar      1 <0>        -0.1146
      5 C4         -2.9186    0.2557    0.1323 C.ar      1 <0>        -0.1316
      6 C5         -2.0820    1.3459   -0.0667 C.ar      1 <0>         0.0589
      7 C6         -2.6241    2.6005   -0.3118 C.ar      1 <0>        -0.0681
      8 C7         -3.9945    2.7611   -0.3685 C.ar      1 <0>        -0.1750
      9 N1         -0.6918    1.1812   -0.0143 N.pl3     1 <0>        -0.6323
     10 C8         -0.1152    0.0361   -0.5146 C.cat     1 <0>         0.7384
     11 N2          1.2339   -0.1794   -0.3579 N.pl3     1 <0>        -0.8019
     12 H1         -6.2955    3.4884   -1.4484 H         1 <0>         0.0635
     13 H2         -7.7568    3.1368   -0.4948 H         1 <0>         0.1127
     14 H3         -6.3206    3.8265    0.2990 H         1 <0>         0.0638
     15 H4         -4.9397   -0.4288    0.2361 H         1 <0>         0.1529
     16 H5         -2.4977   -0.7197    0.3268 H         1 <0>         0.1467
     17 H6         -1.9740    3.4496   -0.4627 H         1 <0>         0.1438
     18 H7         -4.4162    3.7360   -0.5636 H         1 <0>         0.1494
     19 H8         -0.1359    1.8725    0.3781 H         1 <0>         0.4405
     20 H9         -0.5338   -1.6822   -1.5250 H         1 <0>         0.4486
     21 H10         1.7791    0.4757    0.1053 H         1 <0>         0.4408
     22 H11         1.6403   -0.9865   -0.7106 H         1 <0>         0.4409
     23 N3         -0.9140   -0.8189   -1.1368 N.pl3     1 <0>        -0.7985
     24 H12        -1.9156   -0.6123   -1.2282 H         1 <0>         0.4577
@<TRIPOS>BOND
     1    1    2 1
     2    1   12 1
     3    1   13 1
     4    1   14 1
     5    2    3 1
     6    3    8 ar
     7    3    4 ar
     8    4    5 ar
     9    4   15 1
    10    5    6 ar
    11    5   16 1
    12    6    7 ar
    13    6    9 1
    14    7    8 ar
    15    7   17 1
    16    8   18 1
    17    9   10 1
    18    9   19 1
    19   10   11 1
    20   10   23 2
    21   11   21 1
    22   11   22 1
    23   20   23 1
    24   23   24 1
@<TRIPOS>MOLECULE
ZINC00007944
   43    46     0     0     0
SMALL
USER_CHARGES
1-[(4-fluorophenyl)methyl]-2-piperazin-1-yl-benzimidazole
@<TRIPOS>ATOM
      1 C1          1.0484    1.6910    0.3953 C.ar      1 <0>        -0.1188
      2 C2         -0.1549    1.0346    0.1822 C.ar      1 <0>        -0.0865
      3 C3         -1.3155    1.7520   -0.0222 C.ar      1 <0>        -0.1128
      4 C4         -1.2824    3.1381   -0.0035 C.ar      1 <0>         0.0648
      5 C5         -0.0668    3.8078    0.2119 C.ar      1 <0>         0.0530
      6 C6          1.1006    3.0667    0.4115 C.ar      1 <0>        -0.0633
      7 N1         -0.3319    5.1401    0.1733 N.2       1 <0>        -0.5010
      8 C7         -1.6091    5.3282   -0.0479 C.2       1 <0>         0.4260
      9 N2         -2.2421    4.1241   -0.1649 N.pl3     1 <0>        -0.4671
     10 C8         -3.6703    3.9139   -0.4146 C.3       1 <0>         0.1608
     11 C9         -3.9184    3.8630   -1.9001 C.ar      1 <0>        -0.1342
     12 C10        -4.2100    5.0238   -2.5919 C.ar      1 <0>        -0.0642
     13 C11        -4.4329    4.9790   -3.9550 C.ar      1 <0>        -0.1592
     14 C12        -4.3745    3.7694   -4.6261 C.ar      1 <0>         0.1173
     15 C13        -4.0875    2.6066   -3.9314 C.ar      1 <0>        -0.1515
     16 C14        -3.8597    2.6546   -2.5691 C.ar      1 <0>        -0.0655
     17 F1         -4.5969    3.7237   -5.9579 F         1 <0>        -0.1318
     18 N3         -2.2230    6.5589   -0.1478 N.pl3     1 <0>        -0.4667
     19 C15        -2.6484    7.0439    1.1726 C.3       1 <0>         0.0276
     20 C16        -3.3936    8.3708    1.0099 C.3       1 <0>         0.0044
     21 C17        -2.0880    8.8616   -0.9682 C.3       1 <0>         0.0016
     22 C18        -1.3428    7.5347   -0.8055 C.3       1 <0>         0.0401
     23 H1          1.9511    1.1185    0.5493 H         1 <0>         0.1366
     24 H2         -0.1826   -0.0449    0.1718 H         1 <0>         0.1372
     25 H3         -2.2484    1.2351   -0.1920 H         1 <0>         0.1248
     26 H4          2.0408    3.5713    0.5783 H         1 <0>         0.1324
     27 H5         -3.9838    2.9734    0.0386 H         1 <0>         0.1025
     28 H6         -4.2399    4.7348    0.0210 H         1 <0>         0.1022
     29 H7         -4.2596    5.9667   -2.0675 H         1 <0>         0.1318
     30 H8         -4.6567    5.8867   -4.4959 H         1 <0>         0.1384
     31 H9         -4.0413    1.6625   -4.4539 H         1 <0>         0.1425
     32 H10        -3.6355    1.7478   -2.0271 H         1 <0>         0.1334
     33 H11        -3.3091    6.3100    1.6341 H         1 <0>         0.1235
     34 H12        -1.7729    7.1937    1.8044 H         1 <0>         0.0795
     35 H13        -3.6849    8.7470    1.9907 H         1 <0>         0.1447
     36 H14        -4.2840    8.2155    0.4006 H         1 <0>         0.1412
     37 H15        -1.4273    9.5955   -1.4297 H         1 <0>         0.1455
     38 H16        -2.9633    8.7120   -1.6004 H         1 <0>         0.1401
     39 H17        -0.4524    7.6900   -0.1962 H         1 <0>         0.0871
     40 H18        -1.0515    7.1586   -1.7863 H         1 <0>         0.1272
     41 N4         -2.5107    9.3552    0.3561 N.4       1 <0>        -0.5194
     42 H19        -1.6812    9.5080    0.9416 H         1 <0>         0.4343
     43 H20        -3.0169   10.2412    0.2419 H         1 <0>         0.4414
@<TRIPOS>BOND
     1    1    6 ar
     2    1    2 ar
     3    1   23 1
     4    2    3 ar
     5    2   24 1
     6    3    4 ar
     7    3   25 1
     8    4    9 1
     9    4    5 ar
    10    5    6 ar
    11    5    7 1
    12    6   26 1
    13    7    8 2
    14    8    9 1
    15    8   18 1
    16    9   10 1
    17   10   11 1
    18   10   27 1
    19   10   28 1
    20   11   16 ar
    21   11   12 ar
    22   12   13 ar
    23   12   29 1
    24   13   14 ar
    25   13   30 1
    26   14   15 ar
    27   14   17 1
    28   15   16 ar
    29   15   31 1
    30   16   32 1
    31   18   22 1
    32   18   19 1
    33   19   20 1
    34   19   33 1
    35   19   34 1
    36   20   35 1
    37   20   36 1
    38   20   41 1
    39   21   22 1
    40   21   37 1
    41   21   38 1
    42   21   41 1
    43   22   39 1
    44   22   40 1
    45   41   42 1
    46   41   43 1
@<TRIPOS>MOLECULE
ZINC03873275
   38    41     0     0     0
SMALL
USER_CHARGES

@<TRIPOS>ATOM
      1 C1         -0.0178    1.4608    0.0101 C.3       1 <0>         0.0668
      2 N1          0.0021   -0.0041    0.0020 N.pl3     1 <0>        -0.4615
      3 C2          0.0077   -0.7635   -1.1101 C.2       1 <0>         0.1349
      4 C3          0.0281   -2.0968   -0.7603 C.2       1 <0>        -0.2728
      5 C4          0.0354   -2.1349    0.7154 C.ar      1 <0>        -0.0581
      6 C5          0.0236   -0.7947    1.1332 C.ar      1 <0>         0.0743
      7 C6          0.0312   -0.5055    2.4937 C.ar      1 <0>        -0.1211
      8 C7          0.0534   -1.5304    3.4148 C.ar      1 <0>        -0.1016
      9 C8          0.0688   -2.8535    2.9997 C.ar      1 <0>        -0.1331
     10 C9          0.0542   -3.1603    1.6558 C.ar      1 <0>        -0.0709
     11 C10         0.0391   -3.2077   -1.6404 C.2       1 <0>         0.4305
     12 O1          0.0567   -4.3362   -1.1933 O.2       1 <0>        -0.4610
     13 C11         0.0289   -2.9879   -3.1312 C.3       1 <0>        -0.1227
     14 H1          0.6050   -2.0941   -3.3708 H         1 <0>         0.0967
     15 C12         0.6521   -4.1995   -3.8301 C.3       1 <0>        -0.1034
     16 C13         0.8718   -3.8786   -5.3135 C.3       1 <0>        -0.0352
     17 C14        -0.4119   -3.3198   -5.8754 C.2       1 <0>         0.0095
     18 C15        -1.4251   -2.8478   -5.1179 C.2       1 <0>        -0.0299
     19 N2         -2.4030   -2.4347   -5.9698 N.pl3     1 <0>        -0.5610
     20 H2         -3.2575   -2.0475   -5.7230 H         1 <0>         0.4200
     21 C16        -1.9569   -2.6658   -7.2262 C.2       1 <0>         0.1807
     22 N3         -0.7636   -3.1958   -7.1581 N.2       1 <0>        -0.4854
     23 C17        -1.4167   -2.8086   -3.6119 C.3       1 <0>        -0.0259
     24 H3          1.0048    1.8381    0.0023 H         1 <0>         0.0789
     25 H4         -0.5450    1.8219   -0.8730 H         1 <0>         0.0894
     26 H5         -0.5280    1.8123    0.9069 H         1 <0>         0.0878
     27 H6         -0.0025   -0.3857   -2.1218 H         1 <0>         0.1815
     28 H7          0.0201    0.5214    2.8280 H         1 <0>         0.1210
     29 H8          0.0593   -1.3010    4.4702 H         1 <0>         0.1285
     30 H9          0.0866   -3.6469    3.7322 H         1 <0>         0.1273
     31 H10         0.0669   -4.1912    1.3344 H         1 <0>         0.1332
     32 H11         1.6087   -4.4353   -3.3639 H         1 <0>         0.0773
     33 H12        -0.0169   -5.0552   -3.7388 H         1 <0>         0.0757
     34 H13         1.6686   -3.1418   -5.4155 H         1 <0>         0.0771
     35 H14         1.1418   -4.7884   -5.8497 H         1 <0>         0.0823
     36 H15        -2.4978   -2.4488   -8.1355 H         1 <0>         0.2093
     37 H16        -2.0365   -3.6152   -3.2203 H         1 <0>         0.0838
     38 H17        -1.8018   -1.8488   -3.2674 H         1 <0>         0.0771
@<TRIPOS>BOND
     1    1    2 1
     2    1   24 1
     3    1   25 1
     4    1   26 1
     5    2    6 1
     6    2    3 1
     7    3    4 2
     8    3   27 1
     9    4    5 1
    10    4   11 1
    11    5   10 ar
    12    5    6 ar
    13    6    7 ar
    14    7    8 ar
    15    7   28 1
    16    8    9 ar
    17    8   29 1
    18    9   10 ar
    19    9   30 1
    20   10   31 1
    21   11   12 2
    22   11   13 1
    23   13   14 1
    24   13   23 1
    25   13   15 1
    26   15   16 1
    27   15   32 1
    28   15   33 1
    29   16   17 1
    30   16   34 1
    31   16   35 1
    32   17   22 1
    33   17   18 2
    34   18   19 1
    35   18   23 1
    36   19   20 1
    37   19   21 1
    38   21   22 2
    39   21   36 1
    40   23   37 1
    41   23   38 1
@<TRIPOS>MOLECULE
ZINC03873275
   39    42     0     0     0
SMALL
USER_CHARGES

@<TRIPOS>ATOM
      1 C1         -0.0178    1.4608    0.0101 C.3       1 <0>         0.0636
      2 N1          0.0021   -0.0041    0.0020 N.pl3     1 <0>        -0.4554
      3 C2          0.0077   -0.7635   -1.1101 C.2       1 <0>         0.1337
      4 C3          0.0281   -2.0968   -0.7603 C.2       1 <0>        -0.2819
      5 C4          0.0354   -2.1349    0.7154 C.ar      1 <0>        -0.0573
      6 C5          0.0236   -0.7947    1.1332 C.ar      1 <0>         0.0726
      7 C6          0.0312   -0.5055    2.4937 C.ar      1 <0>        -0.1181
      8 C7          0.0534   -1.5304    3.4148 C.ar      1 <0>        -0.0971
      9 C8          0.0688   -2.8535    2.9997 C.ar      1 <0>        -0.1258
     10 C9          0.0542   -3.1603    1.6558 C.ar      1 <0>        -0.0748
     11 C10         0.0391   -3.2077   -1.6404 C.2       1 <0>         0.4311
     12 O1          0.0567   -4.3362   -1.1933 O.2       1 <0>        -0.4526
     13 C11         0.0289   -2.9879   -3.1312 C.3       1 <0>        -0.1309
     14 H1          0.6051   -2.0941   -3.3705 H         1 <0>         0.1059
     15 C12         0.6529   -4.1992   -3.8297 C.3       1 <0>        -0.1103
     16 C13         0.8726   -3.8762   -5.3131 C.3       1 <0>        -0.0605
     17 C14        -0.4075   -3.3106   -5.8708 C.2       1 <0>         0.0637
     18 C15        -1.4249   -2.8376   -5.1195 C.2       1 <0>         0.0286
     19 N2         -2.3888   -2.4220   -5.9455 N.pl3     1 <0>        -0.4661
     20 C16        -2.0087   -2.6177   -7.1812 C.cat     1 <0>         0.2964
     21 N3         -0.7742   -3.1717   -7.1743 N.pl3     1 <0>        -0.5023
     22 H2         -0.2499   -3.4222   -7.9510 H         1 <0>         0.4660
     23 C17        -1.4164   -2.8079   -3.6112 C.3       1 <0>        -0.0460
     24 H3          1.0048    1.8381    0.0023 H         1 <0>         0.0820
     25 H4         -0.5450    1.8219   -0.8730 H         1 <0>         0.0896
     26 H5         -0.5280    1.8123    0.9069 H         1 <0>         0.0914
     27 H6         -0.0025   -0.3857   -2.1218 H         1 <0>         0.1777
     28 H7          0.0201    0.5214    2.8280 H         1 <0>         0.1239
     29 H8          0.0593   -1.3010    4.4702 H         1 <0>         0.1324
     30 H9          0.0866   -3.6469    3.7322 H         1 <0>         0.1305
     31 H10         0.0669   -4.1912    1.3344 H         1 <0>         0.1334
     32 H11         1.6096   -4.4346   -3.3635 H         1 <0>         0.1002
     33 H12        -0.0158   -5.0552   -3.7393 H         1 <0>         0.0889
     34 H13         1.6728   -3.1430   -5.4146 H         1 <0>         0.1095
     35 H14         1.1373   -4.7861   -5.8517 H         1 <0>         0.1077
     36 H15        -2.5852   -2.3772   -8.0622 H         1 <0>         0.2674
     37 H16        -2.0351   -3.6176   -3.2245 H         1 <0>         0.1123
     38 H17        -1.8028   -1.8507   -3.2611 H         1 <0>         0.1056
     39 H18        -3.2359   -2.0365   -5.6723 H         1 <0>         0.4648
@<TRIPOS>BOND
     1    1    2 1
     2    1   24 1
     3    1   25 1
     4    1   26 1
     5    2    6 1
     6    2    3 1
     7    3    4 2
     8    3   27 1
     9    4    5 1
    10    4   11 1
    11    5   10 ar
    12    5    6 ar
    13    6    7 ar
    14    7    8 ar
    15    7   28 1
    16    8    9 ar
    17    8   29 1
    18    9   10 ar
    19    9   30 1
    20   10   31 1
    21   11   12 2
    22   11   13 1
    23   13   14 1
    24   13   23 1
    25   13   15 1
    26   15   16 1
    27   15   32 1
    28   15   33 1
    29   16   17 1
    30   16   34 1
    31   16   35 1
    32   17   21 1
    33   17   18 2
    34   18   19 1
    35   18   23 1
    36   19   20 2
    37   19   39 1
    38   20   21 1
    39   20   36 1
    40   21   22 1
    41   23   37 1
    42   23   38 1
@<TRIPOS>MOLECULE
ZINC03873275
   39    42     0     0     0
SMALL
USER_CHARGES

@<TRIPOS>ATOM
      1 C1         -0.0178    1.4608    0.0101 C.3       1 <0>         0.0636
      2 N1          0.0021   -0.0041    0.0020 N.pl3     1 <0>        -0.4553
      3 C2          0.0077   -0.7635   -1.1101 C.2       1 <0>         0.1338
      4 C3          0.0281   -2.0968   -0.7603 C.2       1 <0>        -0.2820
      5 C4          0.0354   -2.1349    0.7154 C.ar      1 <0>        -0.0573
      6 C5          0.0236   -0.7947    1.1332 C.ar      1 <0>         0.0726
      7 C6          0.0312   -0.5055    2.4937 C.ar      1 <0>        -0.1181
      8 C7          0.0534   -1.5304    3.4148 C.ar      1 <0>        -0.0971
      9 C8          0.0688   -2.8535    2.9997 C.ar      1 <0>        -0.1258
     10 C9          0.0542   -3.1603    1.6558 C.ar      1 <0>        -0.0748
     11 C10         0.0391   -3.2077   -1.6404 C.2       1 <0>         0.4312
     12 O1          0.0567   -4.3362   -1.1933 O.2       1 <0>        -0.4525
     13 C11         0.0289   -2.9879   -3.1312 C.3       1 <0>        -0.1306
     14 H1          0.6050   -2.0941   -3.3708 H         1 <0>         0.1061
     15 C12         0.6521   -4.1995   -3.8301 C.3       1 <0>        -0.1107
     16 C13         0.8718   -3.8786   -5.3135 C.3       1 <0>        -0.0588
     17 C14        -0.4119   -3.3198   -5.8754 C.2       1 <0>         0.0328
     18 C15        -1.4251   -2.8478   -5.1179 C.2       1 <0>         0.0594
     19 N2         -2.4030   -2.4347   -5.9698 N.pl3     1 <0>        -0.5018
     20 H2         -3.2575   -2.0475   -5.7230 H         1 <0>         0.4656
     21 C16        -1.9569   -2.6658   -7.2262 C.cat     1 <0>         0.2965
     22 N3         -0.7636   -3.1958   -7.1581 N.pl3     1 <0>        -0.4666
     23 C17        -1.4167   -2.8086   -3.6119 C.3       1 <0>        -0.0476
     24 H3          1.0048    1.8381    0.0023 H         1 <0>         0.0821
     25 H4         -0.5450    1.8219   -0.8730 H         1 <0>         0.0896
     26 H5         -0.5280    1.8123    0.9069 H         1 <0>         0.0914
     27 H6         -0.0025   -0.3857   -2.1218 H         1 <0>         0.1777
     28 H7          0.0201    0.5214    2.8280 H         1 <0>         0.1239
     29 H8          0.0593   -1.3010    4.4702 H         1 <0>         0.1324
     30 H9          0.0866   -3.6469    3.7322 H         1 <0>         0.1305
     31 H10         0.0669   -4.1912    1.3344 H         1 <0>         0.1334
     32 H11         1.6087   -4.4353   -3.3639 H         1 <0>         0.0999
     33 H12        -0.0169   -5.0552   -3.7388 H         1 <0>         0.0886
     34 H13         1.6686   -3.1418   -5.4155 H         1 <0>         0.1077
     35 H14         1.1418   -4.7884   -5.8497 H         1 <0>         0.1062
     36 H15        -2.4978   -2.4488   -8.1355 H         1 <0>         0.2674
     37 H16        -2.0365   -3.6152   -3.2203 H         1 <0>         0.1139
     38 H17        -1.8018   -1.8488   -3.2674 H         1 <0>         0.1071
     39 H18        -0.2201   -3.4569   -7.9179 H         1 <0>         0.4653
@<TRIPOS>BOND
     1    1    2 1
     2    1   24 1
     3    1   25 1
     4    1   26 1
     5    2    6 1
     6    2    3 1
     7    3    4 2
     8    3   27 1
     9    4    5 1
    10    4   11 1
    11    5   10 ar
    12    5    6 ar
    13    6    7 ar
    14    7    8 ar
    15    7   28 1
    16    8    9 ar
    17    8   29 1
    18    9   10 ar
    19    9   30 1
    20   10   31 1
    21   11   12 2
    22   11   13 1
    23   13   14 1
    24   13   23 1
    25   13   15 1
    26   15   16 1
    27   15   32 1
    28   15   33 1
    29   16   17 1
    30   16   34 1
    31   16   35 1
    32   17   22 1
    33   17   18 2
    34   18   19 1
    35   18   23 1
    36   19   20 1
    37   19   21 1
    38   21   22 2
    39   21   36 1
    40   22   39 1
    41   23   37 1
    42   23   38 1
@<TRIPOS>MOLECULE
ZINC20324905
   29    29     0     0     0
SMALL
NO_CHARGES

@<TRIPOS>ATOM
      1 C1         -3.2451    1.1395   -0.0608 C.3       1 <0>         0.0285
      2 O1         -2.5854   -0.1275   -0.0201 O.3       1 <0>        -0.3210
      3 C2         -1.8875   -0.4242    1.1090 C.ar      1 <0>         0.0832
      4 C3         -1.8439    0.4816    2.1561 C.ar      1 <0>        -0.1749
      5 C4         -1.1342    0.1791    3.3035 C.ar      1 <0>        -0.1065
      6 C5         -0.4663   -1.0280    3.4100 C.ar      1 <0>        -0.0469
      7 C6         -0.5053   -1.9374    2.3687 C.ar      1 <0>        -0.0870
      8 C7         -1.2200   -1.6420    1.2171 C.ar      1 <0>         0.1607
      9 N1         -1.2659   -2.5639    0.1631 N.pl3     1 <0>        -0.6495
     10 C8         -1.0615   -3.9017    0.4101 C.2       1 <0>         0.5671
     11 N2         -0.9482   -4.3277    1.6356 N.2       1 <0>        -0.8101
     12 N3         -0.9765   -4.7927   -0.6412 N.pl3     1 <0>        -0.6331
     13 C9         -0.9608   -4.3299   -1.9337 C.cat     1 <0>         0.2631
     14 N4         -1.3354   -5.1280   -2.9310 N.pl3     1 <0>        -0.8193
     15 N5         -0.5710   -3.0831   -2.1896 N.pl3     1 <0>        -0.8233
     16 Cl1         0.4229   -1.4016    4.8534 Cl        1 <0>        -0.0725
     17 H1         -2.5089    1.9361    0.0462 H         1 <0>         0.0565
     18 H2         -3.7629    1.2490   -1.0137 H         1 <0>         0.0994
     19 H3         -3.9667    1.1998    0.7538 H         1 <0>         0.0565
     20 H4         -2.3641    1.4247    2.0761 H         1 <0>         0.1363
     21 H5         -1.1008    0.8870    4.1185 H         1 <0>         0.1317
     22 H6          0.0173   -2.8787    2.4537 H         1 <0>         0.1770
     23 H7         -1.4418   -2.2589   -0.7407 H         1 <0>         0.4177
     24 H8         -0.7321   -5.2575    1.8078 H         1 <0>         0.3366
     25 H9         -0.9278   -5.7456   -0.4666 H         1 <0>         0.4189
     26 H10        -1.6195   -6.0366   -2.7445 H         1 <0>         0.4020
     27 H11        -0.1001   -2.5735   -1.5118 H         1 <0>         0.4046
     28 H12        -0.7580   -2.6842   -3.0538 H         1 <0>         0.4012
     29 H13        -1.3244   -4.8011   -3.8441 H         1 <0>         0.4031
@<TRIPOS>BOND
     1    1    2 1
     2    1   17 1
     3    1   18 1
     4    1   19 1
     5    2    3 1
     6    3    8 ar
     7    3    4 ar
     8    4    5 ar
     9    4   20 1
    10    5    6 ar
    11    5   21 1
    12    6    7 ar
    13    6   16 1
    14    7    8 ar
    15    7   22 1
    16    8    9 1
    17    9   10 1
    18    9   23 1
    19   10   11 2
    20   10   12 1
    21   11   24 1
    22   12   13 1
    23   12   25 1
    24   13   14 2
    25   13   15 1
    26   14   26 1
    27   14   29 1
    28   15   27 1
    29   15   28 1
@<TRIPOS>MOLECULE
ZINC20324905
   28    28     0     0     0
SMALL
USER_CHARGES

@<TRIPOS>ATOM
      1 C1         -0.0146    1.4385   -0.0454 C.3       1 <0>         0.0276
      2 O1          0.0073    0.0097   -0.0483 O.3       1 <0>        -0.3125
      3 C2         -1.1948   -0.6263   -0.0303 C.ar      1 <0>         0.0933
      4 C3         -2.3688    0.1089   -0.0160 C.ar      1 <0>        -0.1773
      5 C4         -3.5903   -0.5385    0.0018 C.ar      1 <0>        -0.1018
      6 C5         -3.6445   -1.9212    0.0060 C.ar      1 <0>        -0.0488
      7 C6         -2.4767   -2.6619   -0.0082 C.ar      1 <0>        -0.0912
      8 C7         -1.2481   -2.0182   -0.0319 C.ar      1 <0>         0.1622
      9 N1         -0.0636   -2.7662   -0.0517 N.pl3     1 <0>        -0.6268
     10 C8         -0.0706   -4.0529   -0.5389 C.2       1 <0>         0.6425
     11 N2         -1.1461   -4.5326   -1.0957 N.2       1 <0>        -0.7901
     12 N3          1.0615   -4.8349   -0.4378 N.pl3     1 <0>        -0.6803
     13 C9          2.2316   -4.2944    0.0533 C.2       1 <0>         0.6425
     14 N4          2.2386   -3.0833    0.5326 N.2       1 <0>        -0.8108
     15 N5          3.3903   -5.0338    0.0368 N.pl3     1 <0>        -0.8836
     16 Cl1        -5.1816   -2.7277    0.0296 Cl        1 <0>        -0.0733
     17 H1          1.0072    1.8176   -0.0610 H         1 <0>         0.0995
     18 H2         -0.5481    1.7955   -0.9264 H         1 <0>         0.0556
     19 H3         -0.5197    1.7924    0.8534 H         1 <0>         0.0559
     20 H4         -2.3299    1.1882   -0.0185 H         1 <0>         0.1375
     21 H5         -4.5045    0.0364    0.0129 H         1 <0>         0.1325
     22 H6         -2.5212   -3.7410   -0.0045 H         1 <0>         0.1733
     23 H7         -1.1753   -5.4615   -1.3735 H         1 <0>         0.3414
     24 H8          3.0614   -2.7031    0.8780 H         1 <0>         0.3568
     25 H9          3.3851   -5.9357   -0.3202 H         1 <0>         0.3980
     26 H10         4.2132   -4.6536    0.3821 H         1 <0>         0.4146
     27 H11         0.7614   -2.3770    0.2782 H         1 <0>         0.4399
     28 H12         1.0345   -5.7650   -0.7121 H         1 <0>         0.4233
@<TRIPOS>BOND
     1    1    2 1
     2    1   17 1
     3    1   18 1
     4    1   19 1
     5    2    3 1
     6    3    8 ar
     7    3    4 ar
     8    4    5 ar
     9    4   20 1
    10    5    6 ar
    11    5   21 1
    12    6    7 ar
    13    6   16 1
    14    7    8 ar
    15    7   22 1
    16    8    9 1
    17    9   10 1
    18    9   27 1
    19   10   11 2
    20   10   12 1
    21   11   23 1
    22   12   13 1
    23   12   28 1
    24   13   14 2
    25   13   15 1
    26   14   24 1
    27   15   25 1
    28   15   26 1
@<TRIPOS>MOLECULE
ZINC20324905
   28    28     0     0     0
SMALL
NO_CHARGES

@<TRIPOS>ATOM
      1 C1          1.5785    1.1600    2.8923 C.3       1 <0>         0.0273
      2 O1          1.3077   -0.1089    2.2934 O.3       1 <0>        -0.3198
      3 C2          1.9433   -0.3879    1.1238 C.ar      1 <0>         0.0958
      4 C3          2.8124    0.5367    0.5684 C.ar      1 <0>        -0.1756
      5 C4          3.4585    0.2521   -0.6204 C.ar      1 <0>        -0.0920
      6 C5          3.2391   -0.9557   -1.2590 C.ar      1 <0>        -0.0499
      7 C6          2.3728   -1.8839   -0.7106 C.ar      1 <0>        -0.0807
      8 C7          1.7260   -1.6065    0.4848 C.ar      1 <0>         0.1540
      9 N1          0.8520   -2.5472    1.0452 N.pl3     1 <0>        -0.6550
     10 C8          0.9879   -3.8813    0.7374 C.2       1 <0>         0.6212
     11 N2          2.0018   -4.2857    0.0265 N.2       1 <0>        -0.7768
     12 N3          0.0502   -4.7907    1.1816 N.pl3     1 <0>        -0.7259
     13 C9         -1.0895   -4.3495    1.8210 C.2       1 <0>         0.6203
     14 N4         -1.7282   -5.1417    2.6341 N.2       1 <0>        -0.7782
     15 N5         -1.5514   -3.0737    1.6002 N.pl3     1 <0>        -0.8496
     16 Cl1         4.0526   -1.3064   -2.7520 Cl        1 <0>        -0.0661
     17 H1          2.6433    1.2384    3.1116 H         1 <0>         0.0583
     18 H2          1.2896    1.9551    2.2050 H         1 <0>         0.0588
     19 H3          1.0092    1.2543    3.8169 H         1 <0>         0.1027
     20 H4          2.9852    1.4806    1.0641 H         1 <0>         0.1409
     21 H5          4.1357    0.9743   -1.0517 H         1 <0>         0.1361
     22 H6          2.2027   -2.8258   -1.2109 H         1 <0>         0.1756
     23 H7          0.1511   -2.2580    1.6502 H         1 <0>         0.4232
     24 H8          2.0597   -5.2131   -0.2519 H         1 <0>         0.3482
     25 H9          0.1925   -5.7403    1.0442 H         1 <0>         0.4269
     26 H10        -1.2125   -2.5580    0.8518 H         1 <0>         0.4090
     27 H11        -2.2162   -2.6893    2.1927 H         1 <0>         0.4222
     28 H12        -1.4023   -6.0419    2.7899 H         1 <0>         0.3491
@<TRIPOS>BOND
     1    1    2 1
     2    1   17 1
     3    1   18 1
     4    1   19 1
     5    2    3 1
     6    3    8 ar
     7    3    4 ar
     8    4    5 ar
     9    4   20 1
    10    5    6 ar
    11    5   21 1
    12    6    7 ar
    13    6   16 1
    14    7    8 ar
    15    7   22 1
    16    8    9 1
    17    9   10 1
    18    9   23 1
    19   10   11 2
    20   10   12 1
    21   11   24 1
    22   12   13 1
    23   12   25 1
    24   13   14 2
    25   13   15 1
    26   14   28 1
    27   15   26 1
    28   15   27 1
