@<TRIPOS>MOLECULE
ZINC49035878
   55    57     0     0     0
SMALL
USER_CHARGES

@<TRIPOS>ATOM
      1 C1          1.1571   -0.7804   -0.8292 C.ar      1 <0>        -0.0505
      2 C2          2.3897   -0.1616   -0.8639 C.ar      1 <0>        -0.1576
      3 C3          2.6059    0.9977   -0.1363 C.ar      1 <0>         0.1124
      4 C4          1.5862    1.5410    0.6285 C.ar      1 <0>        -0.1556
      5 C5          0.3505    0.9290    0.6692 C.ar      1 <0>        -0.0718
      6 C6          0.1284   -0.2374   -0.0611 C.ar      1 <0>        -0.0634
      7 C7         -1.1983   -0.8987   -0.0210 C.ar      1 <0>         0.1569
      8 C8         -2.2222   -0.3445    0.7458 C.ar      1 <0>        -0.1399
      9 C9         -3.4549   -0.9696    0.7756 C.ar      1 <0>        -0.0720
     10 C10        -3.6259   -2.1368    0.0329 C.ar      1 <0>         0.1069
     11 C11        -2.5602   -2.6314   -0.7083 C.ar      1 <0>         0.0888
     12 N1         -1.4000   -2.0084   -0.7194 N.ar      1 <0>        -0.4554
     13 N2         -4.8564   -2.8027    0.0344 N.am      1 <0>        -0.6775
     14 C12        -6.0020   -2.1014    0.1456 C.2       1 <0>         0.7052
     15 O1         -5.9729   -0.8859    0.1475 O.2       1 <0>        -0.5674
     16 N3         -7.1798   -2.7475    0.2547 N.am      1 <0>        -0.7443
     17 C13        -8.4250   -1.9852    0.3756 C.3       1 <0>         0.1372
     18 C14        -9.6061   -2.9517    0.4838 C.3       1 <0>        -0.1301
     19 C15       -10.9066   -2.1556    0.6101 C.3       1 <0>        -0.1465
     20 C16       -12.0877   -3.1220    0.7182 C.3       1 <0>        -0.0090
     21 N4        -13.3363   -2.3577    0.8395 N.4       1 <0>        -0.3832
     22 C17       -13.3255   -1.6021    2.0978 C.3       1 <0>        -0.0125
     23 C18       -14.5873   -0.7415    2.1913 C.3       1 <0>        -0.1464
     24 C19       -15.8210   -1.6477    2.1488 C.3       1 <0>        -0.1399
     25 C20       -15.7833   -2.4851    0.8672 C.3       1 <0>        -0.1468
     26 C21       -14.4772   -3.2811    0.8228 C.3       1 <0>        -0.0065
     27 F1          3.8147    1.5999   -0.1725 F         1 <0>        -0.1351
     28 H1          0.9882   -1.6816   -1.3998 H         1 <0>         0.1456
     29 H2          3.1873   -0.5815   -1.4587 H         1 <0>         0.1411
     30 H3          1.7592    2.4447    1.1940 H         1 <0>         0.1413
     31 H4         -0.4436    1.3529    1.2659 H         1 <0>         0.1372
     32 H5         -2.0545    0.5613    1.3095 H         1 <0>         0.1433
     33 H6         -4.2664   -0.5633    1.3610 H         1 <0>         0.1483
     34 H7         -2.6859   -3.5354   -1.2857 H         1 <0>         0.1611
     35 H8         -4.8851   -3.7690   -0.0447 H         1 <0>         0.4112
     36 H9         -7.2029   -3.7172    0.2531 H         1 <0>         0.4007
     37 H10        -8.3835   -1.3608    1.2681 H         1 <0>         0.0725
     38 H11        -8.5514   -1.3539   -0.5040 H         1 <0>         0.0728
     39 H12        -9.6476   -3.5761   -0.4087 H         1 <0>         0.0831
     40 H13        -9.4797   -3.5829    1.3633 H         1 <0>         0.0827
     41 H14       -10.8651   -1.5311    1.5025 H         1 <0>         0.0920
     42 H15       -11.0330   -1.5243   -0.2695 H         1 <0>         0.0923
     43 H16       -12.1292   -3.7465   -0.1742 H         1 <0>         0.1320
     44 H17       -11.9613   -3.7533    1.5978 H         1 <0>         0.1302
     45 H18       -13.2967   -2.2963    2.9377 H         1 <0>         0.1284
     46 H19       -12.4452   -0.9600    2.1280 H         1 <0>         0.1316
     47 H20       -14.5782   -0.1826    3.1271 H         1 <0>         0.1121
     48 H21       -14.6170   -0.0467    1.3520 H         1 <0>         0.0877
     49 H22       -15.8181   -2.3082    3.0160 H         1 <0>         0.0816
     50 H23       -16.7231   -1.0360    2.1581 H         1 <0>         0.0944
     51 H24       -16.6291   -3.1726    0.8565 H         1 <0>         0.1123
     52 H25       -15.8378   -1.8265    0.0004 H         1 <0>         0.0877
     53 H26       -14.4471   -3.8786   -0.0884 H         1 <0>         0.1299
     54 H27       -14.4238   -3.9395    1.6898 H         1 <0>         0.1280
     55 H28       -13.4131   -1.7158    0.0648 H         1 <0>         0.4227
@<TRIPOS>BOND
     1    1    6 ar
     2    1    2 ar
     3    1   28 1
     4    2    3 ar
     5    2   29 1
     6    3    4 ar
     7    3   27 1
     8    4    5 ar
     9    4   30 1
    10    5    6 ar
    11    5   31 1
    12    6    7 1
    13    7   12 ar
    14    7    8 ar
    15    8    9 ar
    16    8   32 1
    17    9   10 ar
    18    9   33 1
    19   10   11 ar
    20   10   13 1
    21   11   12 ar
    22   11   34 1
    23   13   14 am
    24   13   35 1
    25   14   15 2
    26   14   16 am
    27   16   17 1
    28   16   36 1
    29   17   18 1
    30   17   37 1
    31   17   38 1
    32   18   19 1
    33   18   39 1
    34   18   40 1
    35   19   20 1
    36   19   41 1
    37   19   42 1
    38   20   21 1
    39   20   43 1
    40   20   44 1
    41   21   26 1
    42   21   22 1
    43   21   55 1
    44   22   23 1
    45   22   45 1
    46   22   46 1
    47   23   24 1
    48   23   47 1
    49   23   48 1
    50   24   25 1
    51   24   49 1
    52   24   50 1
    53   25   26 1
    54   25   51 1
    55   25   52 1
    56   26   53 1
    57   26   54 1
@<TRIPOS>MOLECULE
ZINC01891034
   52    54     0     0     0
SMALL
USER_CHARGES
4-amino-5-chloro-N-[1-(3-methoxypropyl)-4-piperidyl]-2,3-dihydrobenzofuran-7-carboxamide
@<TRIPOS>ATOM
      1 C1        -12.4725   10.4856   -3.8561 C.3       1 <0>         0.0299
      2 O1        -11.3062    9.6841   -3.6581 O.3       1 <0>        -0.3898
      3 C2        -10.7641    9.7629   -2.3382 C.3       1 <0>         0.0622
      4 C3         -9.5254    8.8699   -2.2415 C.3       1 <0>        -0.1536
      5 C4         -8.9450    8.9543   -0.8284 C.3       1 <0>        -0.0008
      6 C5         -7.3099    7.9646    0.6573 C.3       1 <0>         0.0054
      7 C6         -5.9914    7.1888    0.7008 C.3       1 <0>        -0.1579
      8 C7         -6.1981    5.8054    0.0778 C.3       1 <0>         0.1389
      9 C8         -6.7086    5.9712   -1.3562 C.3       1 <0>        -0.1618
     10 C9         -8.0063    6.7823   -1.3400 C.3       1 <0>        -0.0072
     11 N1         -4.9256    5.0797    0.0637 N.am      1 <0>        -0.7339
     12 C10        -4.9184    3.7321    0.0499 C.2       1 <0>         0.5763
     13 O2         -5.9685    3.1183    0.0492 O.2       1 <0>        -0.5193
     14 C11        -3.6396    3.0028    0.0357 C.ar      1 <0>        -0.2248
     15 C12        -2.4333    3.7085    0.0360 C.ar      1 <0>         0.0073
     16 C13        -1.2425    3.0406    0.0303 C.ar      1 <0>        -0.1506
     17 C14        -1.2252    1.6450    0.0168 C.ar      1 <0>         0.3155
     18 C15        -2.4141    0.9350    0.0186 C.ar      1 <0>        -0.2680
     19 C16        -3.6327    1.5944    0.0213 C.ar      1 <0>         0.2347
     20 O3         -4.6700    0.7169    0.0055 O.3       1 <0>        -0.2728
     21 C17        -4.2054   -0.5740    0.4360 C.3       1 <0>         0.0473
     22 C18        -2.7127   -0.5517    0.0294 C.3       1 <0>        -0.0981
     23 N2         -0.0111    0.9658    0.0074 N.pl3     1 <0>        -0.8485
     24 Cl1         0.2501    3.9272    0.0330 Cl        1 <0>        -0.0543
     25 H1        -12.2303   11.5319   -3.6699 H         1 <0>         0.0478
     26 H2        -12.8224   10.3707   -4.8820 H         1 <0>         0.0957
     27 H3        -13.2546   10.1656   -3.1675 H         1 <0>         0.0480
     28 H4        -11.5106    9.4278   -1.6182 H         1 <0>         0.0597
     29 H5        -10.4864   10.7942   -2.1205 H         1 <0>         0.0593
     30 H6         -8.7789    9.2049   -2.9616 H         1 <0>         0.0955
     31 H7         -9.8031    7.8386   -2.4593 H         1 <0>         0.0990
     32 H8         -9.6916    8.6193   -0.1083 H         1 <0>         0.1339
     33 H9         -8.6673    9.9856   -0.6107 H         1 <0>         0.1319
     34 H10        -8.0657    7.4286    1.2313 H         1 <0>         0.1346
     35 H11        -7.1626    8.9554    1.0872 H         1 <0>         0.1350
     36 H12        -5.6688    7.0772    1.7359 H         1 <0>         0.1204
     37 H13        -5.2308    7.7309    0.1389 H         1 <0>         0.0948
     38 H14        -6.9290    5.2477    0.6634 H         1 <0>         0.1059
     39 H15        -5.9598    6.4944   -1.9509 H         1 <0>         0.0906
     40 H16        -6.8983    4.9897   -1.7907 H         1 <0>         0.1184
     41 H17        -8.7589    6.2518   -0.7567 H         1 <0>         0.1347
     42 H18        -8.3648    6.9143   -2.3609 H         1 <0>         0.1376
     43 H19        -4.0881    5.5692    0.0642 H         1 <0>         0.4029
     44 H20        -2.4431    4.7884    0.0451 H         1 <0>         0.1402
     45 H21        -4.3102   -0.6821    1.5156 H         1 <0>         0.0851
     46 H22        -4.7387   -1.3698   -0.0840 H         1 <0>         0.1154
     47 H23        -2.5722   -0.9846   -0.9610 H         1 <0>         0.0928
     48 H24        -2.0997   -1.0670    0.7688 H         1 <0>         0.0928
     49 H25         0.0021   -0.0041    0.0020 H         1 <0>         0.4091
     50 H26         0.8223    1.4622    0.0021 H         1 <0>         0.4089
     51 N3         -7.7343    8.1109   -0.7511 N.4       1 <0>        -0.3942
     52 H27        -6.9795    8.5619   -1.2812 H         1 <0>         0.4282
@<TRIPOS>BOND
     1    1    2 1
     2    1   25 1
     3    1   26 1
     4    1   27 1
     5    2    3 1
     6    3    4 1
     7    3   28 1
     8    3   29 1
     9    4    5 1
    10    4   30 1
    11    4   31 1
    12    5   32 1
    13    5   33 1
    14    5   51 1
    15    6    7 1
    16    6   34 1
    17    6   35 1
    18    6   51 1
    19    7    8 1
    20    7   36 1
    21    7   37 1
    22    8    9 1
    23    8   11 1
    24    8   38 1
    25    9   10 1
    26    9   39 1
    27    9   40 1
    28   10   41 1
    29   10   42 1
    30   10   51 1
    31   11   12 am
    32   11   43 1
    33   12   13 2
    34   12   14 1
    35   14   19 ar
    36   14   15 ar
    37   15   16 ar
    38   15   44 1
    39   16   17 ar
    40   16   24 1
    41   17   18 ar
    42   17   23 1
    43   18   22 1
    44   18   19 ar
    45   19   20 1
    46   20   21 1
    47   21   22 1
    48   21   45 1
    49   21   46 1
    50   22   47 1
    51   22   48 1
    52   23   49 1
    53   23   50 1
    54   51   52 1
@<TRIPOS>MOLECULE
ZINC02022527
   54    55     0     0     0
SMALL
USER_CHARGES

@<TRIPOS>ATOM
      1 C1         -3.0730    2.2881   -4.2693 C.3       1 <0>        -0.1569
      2 C2         -2.3049    1.5870   -3.1471 C.3       1 <0>        -0.1270
      3 C3         -2.8110    2.0874   -1.7927 C.3       1 <0>        -0.1231
      4 C4         -2.0429    1.3862   -0.6705 C.3       1 <0>        -0.1174
      5 C5         -2.5490    1.8867    0.6839 C.3       1 <0>        -0.1006
      6 C6         -2.2117    3.3722    0.8391 C.3       1 <0>        -0.1451
      7 C7         -2.6658    3.8518    2.2196 C.3       1 <0>        -0.0114
      8 C8         -2.3347    1.6429    3.1595 C.3       1 <0>        -0.0001
      9 C9         -1.8707    1.0973    1.8070 C.3       1 <0>        -0.1442
     10 C10        -2.2939    3.5901    4.5974 C.3       1 <0>        -0.0052
     11 C11        -2.1583    5.1140    4.5919 C.3       1 <0>        -0.1459
     12 C12        -2.4764    5.6593    5.9856 C.3       1 <0>        -0.1543
     13 C13        -2.3428    7.1604    5.9803 C.2       1 <0>         0.3987
     14 O1         -2.0245    7.7371    4.9623 O.2       1 <0>        -0.4456
     15 C14        -2.5986    7.9263    7.2106 C.ar      1 <0>        -0.1885
     16 C15        -3.0878    7.2813    8.3513 C.ar      1 <0>        -0.0705
     17 C16        -3.3195    8.0047    9.5018 C.ar      1 <0>        -0.1389
     18 C17        -3.0801    9.3679    9.5265 C.ar      1 <0>        -0.0729
     19 C18        -2.6016   10.0143    8.4004 C.ar      1 <0>        -0.1345
     20 C19        -2.3594    9.3036    7.2436 C.ar      1 <0>        -0.0178
     21 C20        -1.8387   10.0095    6.0182 C.3       1 <0>        -0.1264
     22 H1         -4.1363    2.0676   -4.1746 H         1 <0>         0.0549
     23 H2         -2.9175    3.3647   -4.1985 H         1 <0>         0.0540
     24 H3         -2.7125    1.9316   -5.2342 H         1 <0>         0.0581
     25 H4         -1.2417    1.8075   -3.2417 H         1 <0>         0.0621
     26 H5         -2.4605    0.5104   -3.2179 H         1 <0>         0.0631
     27 H6         -3.8743    1.8669   -1.6981 H         1 <0>         0.0644
     28 H7         -2.6555    3.1639   -1.7219 H         1 <0>         0.0632
     29 H8         -2.1984    0.3097   -0.7413 H         1 <0>         0.0733
     30 H9         -0.9796    1.6067   -0.7651 H         1 <0>         0.0688
     31 H10        -3.6287    1.7492    0.7427 H         1 <0>         0.0884
     32 H11        -1.1354    3.5132    0.7407 H         1 <0>         0.0881
     33 H12        -2.7264    3.9447    0.0675 H         1 <0>         0.1133
     34 H13        -3.7442    3.7233    2.3122 H         1 <0>         0.1295
     35 H14        -2.4142    4.9057    2.3388 H         1 <0>         0.1342
     36 H15        -3.4146    1.5248    3.2476 H         1 <0>         0.1293
     37 H16        -1.8426    1.0924    3.9613 H         1 <0>         0.1282
     38 H17        -2.1418    0.0446    1.7270 H         1 <0>         0.1118
     39 H18        -0.7890    1.2025    1.7239 H         1 <0>         0.0880
     40 H19        -3.3133    3.3170    4.8704 H         1 <0>         0.1315
     41 H20        -1.5979    3.1659    5.3211 H         1 <0>         0.1302
     42 H21        -1.1389    5.3871    4.3190 H         1 <0>         0.0944
     43 H22        -2.8542    5.5382    3.8682 H         1 <0>         0.0968
     44 H23        -3.4115    5.4088    6.2361 H         1 <0>         0.0981
     45 H24        -1.7805    5.2352    6.7093 H         1 <0>         0.1100
     46 H25        -3.2793    6.2186    8.3321 H         1 <0>         0.1290
     47 H26        -3.6933    7.5074   10.3846 H         1 <0>         0.1322
     48 H27        -3.2682    9.9300   10.4293 H         1 <0>         0.1326
     49 H28        -2.4176   11.0782    8.4274 H         1 <0>         0.1332
     50 H29        -2.6709   10.2515    5.3572 H         1 <0>         0.0784
     51 H30        -1.3321   10.9277    6.3156 H         1 <0>         0.0652
     52 H31        -1.1365    9.3600    5.4956 H         1 <0>         0.0893
     53 N1         -1.9588    3.0696    3.2558 N.4       1 <0>        -0.3931
     54 H32        -0.9467    3.1581    3.1071 H         1 <0>         0.4272
@<TRIPOS>BOND
     1    1    2 1
     2    1   22 1
     3    1   23 1
     4    1   24 1
     5    2    3 1
     6    2   25 1
     7    2   26 1
     8    3    4 1
     9    3   27 1
    10    3   28 1
    11    4    5 1
    12    4   29 1
    13    4   30 1
    14    5    9 1
    15    5    6 1
    16    5   31 1
    17    6    7 1
    18    6   32 1
    19    6   33 1
    20    7   34 1
    21    7   35 1
    22    7   53 1
    23    8    9 1
    24    8   36 1
    25    8   37 1
    26    8   53 1
    27    9   38 1
    28    9   39 1
    29   10   11 1
    30   10   40 1
    31   10   41 1
    32   10   53 1
    33   11   12 1
    34   11   42 1
    35   11   43 1
    36   12   13 1
    37   12   44 1
    38   12   45 1
    39   13   14 2
    40   13   15 1
    41   15   20 ar
    42   15   16 ar
    43   16   17 ar
    44   16   46 1
    45   17   18 ar
    46   17   47 1
    47   18   19 ar
    48   18   48 1
    49   19   20 ar
    50   19   49 1
    51   20   21 1
    52   21   50 1
    53   21   51 1
    54   21   52 1
    55   53   54 1
@<TRIPOS>MOLECULE
ZINC03775140
   62    64     0     0     0
SMALL
USER_CHARGES

@<TRIPOS>ATOM
      1 C1         -0.0173    1.4248    0.0099 C.3       1 <0>         0.0171
      2 O1          0.0021   -0.0041    0.0020 O.3       1 <0>        -0.2760
      3 C2          0.6048   -0.6061   -1.0540 C.ar      1 <0>         0.2490
      4 C3          1.1714    0.1577   -2.0595 C.ar      1 <0>        -0.2968
      5 C4          1.7875   -0.4643   -3.1379 C.ar      1 <0>         0.3045
      6 C5          1.8368   -1.8562   -3.2112 C.ar      1 <0>        -0.1599
      7 C6          1.2804   -2.6188   -2.2247 C.ar      1 <0>         0.0104
      8 C7          0.6619   -2.0064   -1.1291 C.ar      1 <0>        -0.2378
      9 C8          0.0677   -2.8282   -0.0619 C.2       1 <0>         0.5777
     10 O2         -0.4739   -2.2937    0.8871 O.2       1 <0>        -0.5075
     11 N1          0.1238   -4.1727   -0.1363 N.am      1 <0>        -0.7330
     12 C9         -0.4675   -4.9905    0.9257 C.3       1 <0>         0.1404
     13 H1         -1.3642   -4.5012    1.3060 H         1 <0>         0.1248
     14 C10         0.5437   -5.1622    2.0629 C.3       1 <0>        -0.1546
     15 C11         1.7671   -5.9184    1.5404 C.3       1 <0>        -0.0167
     16 N2          1.3566   -7.2378    1.0453 N.4       1 <0>        -0.3759
     17 C12         0.4423   -7.0806   -0.0921 C.3       1 <0>        -0.0388
     18 C13        -0.8339   -6.3685    0.3670 C.3       1 <0>         0.0659
     19 H2         -1.3203   -6.9585    1.1438 H         1 <0>         0.1015
     20 O3         -1.7219   -6.2131   -0.7418 O.3       1 <0>        -0.3502
     21 C14        -2.6322   -7.3011   -0.9143 C.3       1 <0>         0.0179
     22 C15         2.5438   -7.9895    0.6171 C.3       1 <0>        -0.0062
     23 C16         3.4343   -8.2703    1.8292 C.3       1 <0>        -0.1507
     24 C17         4.6708   -9.0533    1.3832 C.3       1 <0>         0.0614
     25 O4          5.5024   -9.3155    2.5152 O.3       1 <0>        -0.3099
     26 C18         6.6507  -10.0076    2.2904 C.ar      1 <0>         0.1104
     27 C19         6.9722  -10.4203    1.0058 C.ar      1 <0>        -0.1786
     28 C20         8.1394  -11.1237    0.7787 C.ar      1 <0>        -0.1136
     29 C21         8.9878  -11.4170    1.8328 C.ar      1 <0>         0.0730
     30 C22         8.6679  -11.0061    3.1156 C.ar      1 <0>        -0.1109
     31 C23         7.5046  -10.2969    3.3445 C.ar      1 <0>        -0.1156
     32 F1         10.1287  -12.1053    1.6094 F         1 <0>        -0.1339
     33 Cl1         2.6089   -2.6229   -4.5639 Cl        1 <0>        -0.0623
     34 N3          2.3569    0.3038   -4.1485 N.pl3     1 <0>        -0.8495
     35 H3          1.0053    1.8021    0.0021 H         1 <0>         0.0609
     36 H4         -0.5445    1.7859   -0.8732 H         1 <0>         0.0614
     37 H5         -0.5275    1.7763    0.9067 H         1 <0>         0.1085
     38 H6          1.1342    1.2357   -2.0059 H         1 <0>         0.1464
     39 H7          1.3215   -3.6961   -2.2880 H         1 <0>         0.1333
     40 H8          0.5557   -4.5989   -0.8931 H         1 <0>         0.3942
     41 H9          0.8503   -4.1821    2.4284 H         1 <0>         0.1283
     42 H10         0.0859   -5.7273    2.8748 H         1 <0>         0.1026
     43 H11         2.2242   -5.3523    0.7288 H         1 <0>         0.1317
     44 H12         2.4891   -6.0421    2.3475 H         1 <0>         0.1399
     45 H13         0.9276   -6.4898   -0.8690 H         1 <0>         0.1341
     46 H14         0.1862   -8.0624   -0.4903 H         1 <0>         0.1380
     47 H15        -2.0715   -8.2215   -1.0778 H         1 <0>         0.0481
     48 H16        -3.2481   -7.4047   -0.0210 H         1 <0>         0.0566
     49 H17        -3.2712   -7.1071   -1.7758 H         1 <0>         0.1042
     50 H18         2.2339   -8.9329    0.1676 H         1 <0>         0.1368
     51 H19         3.1003   -7.4039   -0.1147 H         1 <0>         0.1356
     52 H20         3.7442   -7.3269    2.2786 H         1 <0>         0.1012
     53 H21         2.8778   -8.8559    2.5610 H         1 <0>         0.1013
     54 H22         4.3608   -9.9967    0.9337 H         1 <0>         0.0740
     55 H23         5.2272   -8.4676    0.6514 H         1 <0>         0.0740
     56 H24         6.3103  -10.1922    0.1835 H         1 <0>         0.1353
     57 H25         8.3900  -11.4451   -0.2214 H         1 <0>         0.1422
     58 H26         9.3304  -11.2359    3.9370 H         1 <0>         0.1482
     59 H27         7.2577   -9.9722    4.3445 H         1 <0>         0.1439
     60 H28         2.3233    1.2719   -4.0992 H         1 <0>         0.4097
     61 H29         2.7876   -0.1289   -4.9023 H         1 <0>         0.4089
     62 H30         0.8896   -7.7426    1.7837 H         1 <0>         0.4252
@<TRIPOS>BOND
     1    1    2 1
     2    1   35 1
     3    1   36 1
     4    1   37 1
     5    2    3 1
     6    3    8 ar
     7    3    4 ar
     8    4    5 ar
     9    4   38 1
    10    5    6 ar
    11    5   34 1
    12    6    7 ar
    13    6   33 1
    14    7    8 ar
    15    7   39 1
    16    8    9 1
    17    9   10 2
    18    9   11 am
    19   11   12 1
    20   11   40 1
    21   12   13 1
    22   12   18 1
    23   12   14 1
    24   14   15 1
    25   14   41 1
    26   14   42 1
    27   15   16 1
    28   15   43 1
    29   15   44 1
    30   16   17 1
    31   16   22 1
    32   16   62 1
    33   17   18 1
    34   17   45 1
    35   17   46 1
    36   18   19 1
    37   18   20 1
    38   20   21 1
    39   21   47 1
    40   21   48 1
    41   21   49 1
    42   22   23 1
    43   22   50 1
    44   22   51 1
    45   23   24 1
    46   23   52 1
    47   23   53 1
    48   24   25 1
    49   24   54 1
    50   24   55 1
    51   25   26 1
    52   26   31 ar
    53   26   27 ar
    54   27   28 ar
    55   27   56 1
    56   28   29 ar
    57   28   57 1
    58   29   30 ar
    59   29   32 1
    60   30   31 ar
    61   30   58 1
    62   31   59 1
    63   34   60 1
    64   34   61 1
@<TRIPOS>MOLECULE
ZINC03830564
   62    64     0     0     0
SMALL
USER_CHARGES

@<TRIPOS>ATOM
      1 C1         -0.0173    1.4248    0.0099 C.3       1 <0>         0.0173
      2 O1          0.0021   -0.0041    0.0020 O.3       1 <0>        -0.2768
      3 C2          0.6048   -0.6061   -1.0540 C.ar      1 <0>         0.2482
      4 C3          1.1714    0.1577   -2.0595 C.ar      1 <0>        -0.2974
      5 C4          1.7875   -0.4643   -3.1379 C.ar      1 <0>         0.3044
      6 C5          1.8368   -1.8562   -3.2112 C.ar      1 <0>        -0.1594
      7 C6          1.2804   -2.6188   -2.2247 C.ar      1 <0>         0.0124
      8 C7          0.6619   -2.0064   -1.1291 C.ar      1 <0>        -0.2376
      9 C8          0.0677   -2.8282   -0.0619 C.2       1 <0>         0.5803
     10 O2         -0.4739   -2.2937    0.8871 O.2       1 <0>        -0.5144
     11 N1          0.1238   -4.1727   -0.1363 N.am      1 <0>        -0.7279
     12 C9         -0.4675   -4.9905    0.9257 C.3       1 <0>         0.1426
     13 H1         -0.3382   -4.4904    1.8855 H         1 <0>         0.1147
     14 C10        -1.9606   -5.1884    0.6484 C.3       1 <0>        -0.1574
     15 C11        -2.5547   -6.1082    1.7173 C.3       1 <0>        -0.0121
     16 N2         -1.8729   -7.4076    1.6837 N.4       1 <0>        -0.3780
     17 C12        -0.4544   -7.2346    2.0193 C.3       1 <0>        -0.0308
     18 C13         0.2219   -6.3574    0.9634 C.3       1 <0>         0.0634
     19 H2          0.1375   -6.8346   -0.0130 H         1 <0>         0.0897
     20 O3          1.6015   -6.1871    1.2946 O.3       1 <0>        -0.3498
     21 C14         2.4612   -7.1803    0.7321 C.3       1 <0>         0.0175
     22 C15        -2.4981   -8.3123    2.6576 C.3       1 <0>        -0.0056
     23 C16        -3.9400   -8.5999    2.2341 C.3       1 <0>        -0.1510
     24 C17        -4.5912   -9.5422    3.2484 C.3       1 <0>         0.0612
     25 O4         -5.9378   -9.8107    2.8528 O.3       1 <0>        -0.3101
     26 C18        -6.6627  -10.6375    3.6523 C.ar      1 <0>         0.1103
     27 C19        -6.0908  -11.1740    4.7964 C.ar      1 <0>        -0.1786
     28 C20        -6.8286  -12.0140    5.6079 C.ar      1 <0>        -0.1136
     29 C21        -8.1381  -12.3209    5.2793 C.ar      1 <0>         0.0729
     30 C22        -8.7100  -11.7865    4.1373 C.ar      1 <0>        -0.1110
     31 C23        -7.9767  -10.9409    3.3276 C.ar      1 <0>        -0.1157
     32 F1         -8.8583  -13.1429    6.0736 F         1 <0>        -0.1339
     33 Cl1         2.6089   -2.6229   -4.5639 Cl        1 <0>        -0.0612
     34 N3          2.3569    0.3038   -4.1485 N.pl3     1 <0>        -0.8498
     35 H3          1.0053    1.8021    0.0021 H         1 <0>         0.0610
     36 H4         -0.5445    1.7859   -0.8732 H         1 <0>         0.0608
     37 H5         -0.5275    1.7763    0.9067 H         1 <0>         0.1075
     38 H6          1.1342    1.2357   -2.0059 H         1 <0>         0.1460
     39 H7          1.3215   -3.6961   -2.2880 H         1 <0>         0.1366
     40 H8          0.5557   -4.5989   -0.8931 H         1 <0>         0.4011
     41 H9         -2.4669   -4.2235    0.6762 H         1 <0>         0.1280
     42 H10        -2.0914   -5.6407   -0.3346 H         1 <0>         0.0936
     43 H11        -2.4236   -5.6548    2.6998 H         1 <0>         0.1373
     44 H12        -3.6177   -6.2510    1.5230 H         1 <0>         0.1408
     45 H13        -0.3681   -6.7573    2.9954 H         1 <0>         0.1434
     46 H14         0.0331   -8.2090    2.0480 H         1 <0>         0.1370
     47 H15         2.1631   -8.1650    1.0923 H         1 <0>         0.0484
     48 H16         2.3857   -7.1529   -0.3549 H         1 <0>         0.0550
     49 H17         3.4905   -6.9808    1.0300 H         1 <0>         0.1046
     50 H18        -1.9380   -9.2465    2.6975 H         1 <0>         0.1365
     51 H19        -2.4951   -7.8445    3.6421 H         1 <0>         0.1371
     52 H20        -4.5001   -7.6657    2.1942 H         1 <0>         0.1015
     53 H21        -3.9430   -9.0676    1.2495 H         1 <0>         0.1005
     54 H22        -4.0310  -10.4764    3.2882 H         1 <0>         0.0740
     55 H23        -4.5881   -9.0744    4.2329 H         1 <0>         0.0745
     56 H24        -5.0691  -10.9353    5.0526 H         1 <0>         0.1356
     57 H25        -6.3836  -12.4318    6.4989 H         1 <0>         0.1423
     58 H26        -9.7315  -12.0270    3.8820 H         1 <0>         0.1482
     59 H27        -8.4246  -10.5203    2.4394 H         1 <0>         0.1438
     60 H28         2.3233    1.2719   -4.0992 H         1 <0>         0.4092
     61 H29         2.7876   -0.1289   -4.9023 H         1 <0>         0.4089
     62 H30        -1.9528   -7.8044    0.7595 H         1 <0>         0.4239
@<TRIPOS>BOND
     1    1    2 1
     2    1   35 1
     3    1   36 1
     4    1   37 1
     5    2    3 1
     6    3    8 ar
     7    3    4 ar
     8    4    5 ar
     9    4   38 1
    10    5    6 ar
    11    5   34 1
    12    6    7 ar
    13    6   33 1
    14    7    8 ar
    15    7   39 1
    16    8    9 1
    17    9   10 2
    18    9   11 am
    19   11   12 1
    20   11   40 1
    21   12   13 1
    22   12   18 1
    23   12   14 1
    24   14   15 1
    25   14   41 1
    26   14   42 1
    27   15   16 1
    28   15   43 1
    29   15   44 1
    30   16   17 1
    31   16   22 1
    32   16   62 1
    33   17   18 1
    34   17   45 1
    35   17   46 1
    36   18   19 1
    37   18   20 1
    38   20   21 1
    39   21   47 1
    40   21   48 1
    41   21   49 1
    42   22   23 1
    43   22   50 1
    44   22   51 1
    45   23   24 1
    46   23   52 1
    47   23   53 1
    48   24   25 1
    49   24   54 1
    50   24   55 1
    51   25   26 1
    52   26   31 ar
    53   26   27 ar
    54   27   28 ar
    55   27   56 1
    56   28   29 ar
    57   28   57 1
    58   29   30 ar
    59   29   32 1
    60   30   31 ar
    61   30   58 1
    62   31   59 1
    63   34   60 1
    64   34   61 1
@<TRIPOS>MOLECULE
ZINC00404157
   42    43     0     0     0
SMALL
USER_CHARGES
4-amino-5-chloro-2-methoxy-N-(3-methoxy-4-piperidyl)-benzamide
@<TRIPOS>ATOM
      1 C1         -1.8054   -3.2486    6.1085 C.3       1 <0>         0.0171
      2 O1         -1.8977   -2.4931    4.8991 O.3       1 <0>        -0.2763
      3 C2         -1.9855   -3.1936    3.7404 C.ar      1 <0>         0.2489
      4 C3         -1.9899   -4.5774    3.7630 C.ar      1 <0>        -0.2967
      5 C4         -2.0738   -5.2891    2.5732 C.ar      1 <0>         0.3046
      6 C5         -2.1603   -4.6140    1.3559 C.ar      1 <0>        -0.1598
      7 C6         -2.1635   -3.2490    1.3231 C.ar      1 <0>         0.0105
      8 C7         -2.0791   -2.5184    2.5136 C.ar      1 <0>        -0.2384
      9 C8         -2.0825   -1.0467    2.4788 C.2       1 <0>         0.5777
     10 O2         -2.0091   -0.4137    3.5148 O.2       1 <0>        -0.5078
     11 N1         -2.1669   -0.4007    1.2990 N.am      1 <0>        -0.7337
     12 C9         -2.1703    1.0639    1.2644 C.3       1 <0>         0.1397
     13 H1         -2.6965    1.4486    2.1379 H         1 <0>         0.1237
     14 C10        -0.7286    1.5791    1.2674 C.3       1 <0>        -0.1569
     15 C11        -0.0127    1.0858    0.0080 C.3       1 <0>        -0.0065
     16 C12        -2.0949    1.0518   -1.2313 C.3       1 <0>        -0.0362
     17 C13        -2.8727    1.5441   -0.0087 C.3       1 <0>         0.0640
     18 H2         -2.9094    2.6334   -0.0152 H         1 <0>         0.1011
     19 O3         -4.2019    1.0209   -0.0465 O.3       1 <0>        -0.3518
     20 C14        -5.1359    1.8558   -0.7340 C.3       1 <0>         0.0180
     21 Cl1        -2.2653   -5.5137   -0.1251 Cl        1 <0>        -0.0617
     22 N2         -2.0718   -6.6802    2.5958 N.pl3     1 <0>        -0.8494
     23 H3         -2.6898   -3.8772    6.2126 H         1 <0>         0.0615
     24 H4         -0.9149   -3.8764    6.0776 H         1 <0>         0.0610
     25 H5         -1.7412   -2.5684    6.9578 H         1 <0>         0.1085
     26 H6         -1.9230   -5.1032    4.7041 H         1 <0>         0.1465
     27 H7         -2.2308   -2.7325    0.3771 H         1 <0>         0.1335
     28 H8         -2.2254   -0.9055    0.4727 H         1 <0>         0.3944
     29 H9         -0.2106    1.2051    2.1506 H         1 <0>         0.1267
     30 H10        -0.7316    2.6691    1.2810 H         1 <0>         0.1022
     31 H11         0.0021   -0.0041    0.0020 H         1 <0>         0.1310
     32 H12         1.0099    1.4629    0.0003 H         1 <0>         0.1395
     33 H13        -2.5844    1.4040   -2.1392 H         1 <0>         0.1384
     34 H14        -2.0703   -0.0380   -1.2313 H         1 <0>         0.1341
     35 H15        -5.1863    2.8268   -0.2414 H         1 <0>         0.0563
     36 H16        -4.8130    1.9885   -1.7665 H         1 <0>         0.0485
     37 H17        -6.1207    1.3889   -0.7184 H         1 <0>         0.1041
     38 H18        -2.1306   -7.1788    1.7659 H         1 <0>         0.4089
     39 H19        -2.0116   -7.1514    3.4415 H         1 <0>         0.4097
     40 N3         -0.7177    1.5794   -1.1903 N.4       1 <0>        -0.5092
     41 H20        -0.2128    1.2727   -2.0301 H         1 <0>         0.4406
     42 H21        -0.7491    2.6054   -1.1656 H         1 <0>         0.4339
@<TRIPOS>BOND
     1    1    2 1
     2    1   23 1
     3    1   24 1
     4    1   25 1
     5    2    3 1
     6    3    8 ar
     7    3    4 ar
     8    4    5 ar
     9    4   26 1
    10    5    6 ar
    11    5   22 1
    12    6    7 ar
    13    6   21 1
    14    7    8 ar
    15    7   27 1
    16    8    9 1
    17    9   10 2
    18    9   11 am
    19   11   12 1
    20   11   28 1
    21   12   13 1
    22   12   17 1
    23   12   14 1
    24   14   15 1
    25   14   29 1
    26   14   30 1
    27   15   31 1
    28   15   32 1
    29   15   40 1
    30   16   17 1
    31   16   33 1
    32   16   34 1
    33   16   40 1
    34   17   18 1
    35   17   19 1
    36   19   20 1
    37   20   35 1
    38   20   36 1
    39   20   37 1
    40   22   38 1
    41   22   39 1
    42   40   41 1
    43   40   42 1
@<TRIPOS>MOLECULE
ZINC00404160
   42    43     0     0     0
SMALL
USER_CHARGES
4-amino-5-chloro-2-methoxy-N-(3-methoxy-4-piperidyl)-benzamide
@<TRIPOS>ATOM
      1 C1         -4.9882    3.5348    0.0453 C.3       1 <0>         0.0171
      2 O1         -3.7033    2.9096    0.0358 O.3       1 <0>        -0.2762
      3 C2         -3.6783    1.5531    0.0279 C.ar      1 <0>         0.2489
      4 C3         -4.8620    0.8358    0.0297 C.ar      1 <0>        -0.2968
      5 C4         -4.8301   -0.5528    0.0220 C.ar      1 <0>         0.3046
      6 C5         -3.6093   -1.2270    0.0126 C.ar      1 <0>        -0.1598
      7 C6         -2.4360   -0.5287    0.0049 C.ar      1 <0>         0.0104
      8 C7         -2.4521    0.8704    0.0184 C.ar      1 <0>        -0.2385
      9 C8         -1.1873    1.6238    0.0165 C.2       1 <0>         0.5776
     10 O2         -1.2038    2.8400    0.0232 O.2       1 <0>        -0.5078
     11 N1         -0.0111    0.9658    0.0074 N.am      1 <0>        -0.7338
     12 C9          1.2475    1.7155   -0.0006 C.3       1 <0>         0.1397
     13 H1          1.1362    2.6206    0.5964 H         1 <0>         0.1235
     14 C10         1.6091    2.0932   -1.4398 C.3       1 <0>        -0.1571
     15 C11         1.8222    0.8179   -2.2585 C.3       1 <0>        -0.0065
     16 C12         2.5551   -0.3916   -0.2907 C.3       1 <0>        -0.0362
     17 C13         2.3639    0.8476    0.5867 C.3       1 <0>         0.0641
     18 H2          3.2916    1.4190    0.6166 H         1 <0>         0.1012
     19 O3          2.0082    0.4444    1.9107 O.3       1 <0>        -0.3518
     20 C14         3.1263    0.2474    2.7785 C.3       1 <0>         0.0180
     21 Cl1        -3.5813   -2.9628    0.0025 Cl        1 <0>        -0.0617
     22 N2         -6.0201   -1.2735    0.0234 N.pl3     1 <0>        -0.8494
     23 H3         -4.8653    4.6179    0.0509 H         1 <0>         0.1085
     24 H4         -5.5438    3.2369   -0.8439 H         1 <0>         0.0610
     25 H5         -5.5357    3.2266    0.9360 H         1 <0>         0.0615
     26 H6         -5.8090    1.3550    0.0367 H         1 <0>         0.1465
     27 H7         -1.4941   -1.0570   -0.0069 H         1 <0>         0.1335
     28 H8          0.0021   -0.0041    0.0020 H         1 <0>         0.3945
     29 H9          0.7985    2.6756   -1.8778 H         1 <0>         0.1267
     30 H10         2.5245    2.6848   -1.4418 H         1 <0>         0.1023
     31 H11         0.9017    0.2340   -2.2675 H         1 <0>         0.1309
     32 H12         2.0939    1.0833   -3.2802 H         1 <0>         0.1395
     33 H13         1.6312   -0.9698   -0.3089 H         1 <0>         0.1341
     34 H14         3.3590   -1.0046    0.1168 H         1 <0>         0.1384
     35 H15         3.7721   -0.5291    2.3684 H         1 <0>         0.0485
     36 H16         3.6871    1.1780    2.8654 H         1 <0>         0.0563
     37 H17         2.7726   -0.0570    3.7635 H         1 <0>         0.1041
     38 H18        -6.8701   -0.8062    0.0296 H         1 <0>         0.4097
     39 H19        -5.9998   -2.2433    0.0180 H         1 <0>         0.4090
     40 N3          2.9105    0.0199   -1.6622 N.4       1 <0>        -0.5092
     41 H20         3.7677    0.5844   -1.6345 H         1 <0>         0.4339
     42 H21         3.0699   -0.8167   -2.2357 H         1 <0>         0.4406
@<TRIPOS>BOND
     1    1    2 1
     2    1   23 1
     3    1   24 1
     4    1   25 1
     5    2    3 1
     6    3    8 ar
     7    3    4 ar
     8    4    5 ar
     9    4   26 1
    10    5    6 ar
    11    5   22 1
    12    6    7 ar
    13    6   21 1
    14    7    8 ar
    15    7   27 1
    16    8    9 1
    17    9   10 2
    18    9   11 am
    19   11   12 1
    20   11   28 1
    21   12   13 1
    22   12   17 1
    23   12   14 1
    24   14   15 1
    25   14   29 1
    26   14   30 1
    27   15   31 1
    28   15   32 1
    29   15   40 1
    30   16   17 1
    31   16   33 1
    32   16   34 1
    33   16   40 1
    34   17   18 1
    35   17   19 1
    36   19   20 1
    37   20   35 1
    38   20   36 1
    39   20   37 1
    40   22   38 1
    41   22   39 1
    42   40   41 1
    43   40   42 1
@<TRIPOS>MOLECULE
ZINC05019451
   42    43     0     0     0
SMALL
USER_CHARGES
4-amino-5-chloro-2-methoxy-N-(3-methoxy-4-piperidyl)-benzamide
@<TRIPOS>ATOM
      1 C1         -0.1280   -4.2564   -0.0191 C.3       1 <0>         0.0173
      2 O1         -0.0657   -2.8288   -0.0120 O.3       1 <0>        -0.2770
      3 C2         -1.2465   -2.1608    0.0024 C.ar      1 <0>         0.2483
      4 C3         -2.4409   -2.8599    0.0100 C.ar      1 <0>        -0.2975
      5 C4         -3.6467   -2.1706    0.0251 C.ar      1 <0>         0.3046
      6 C5         -3.6580   -0.7759    0.0323 C.ar      1 <0>        -0.1596
      7 C6         -2.4851   -0.0768    0.0312 C.ar      1 <0>         0.0125
      8 C7         -1.2627   -0.7574    0.0100 C.ar      1 <0>        -0.2381
      9 C8          0.0021   -0.0041    0.0020 C.2       1 <0>         0.5802
     10 O2          1.0635   -0.5978   -0.0113 O.2       1 <0>        -0.5146
     11 N1         -0.0162    1.3436    0.0094 N.am      1 <0>        -0.7282
     12 C9          1.2424    2.0932    0.0014 C.3       1 <0>         0.1417
     13 H1          1.9916    1.5535    0.5807 H         1 <0>         0.1138
     14 C10         1.7310    2.2575   -1.4404 C.3       1 <0>        -0.1603
     15 C11         3.0131    3.0931   -1.4473 C.3       1 <0>        -0.0014
     16 C12         2.3203    4.2775    0.5501 C.3       1 <0>        -0.0281
     17 C13         1.0179    3.4767    0.6181 C.3       1 <0>         0.0616
     18 H2          0.2401    4.0008    0.0627 H         1 <0>         0.0895
     19 O3          0.6161    3.3317    1.9817 O.3       1 <0>        -0.3512
     20 C14        -0.2359    4.3785    2.4511 C.3       1 <0>         0.0177
     21 Cl1        -5.1709    0.0753    0.0506 Cl        1 <0>        -0.0610
     22 N2         -4.8471   -2.8736    0.0328 N.pl3     1 <0>        -0.8497
     23 H3         -0.6653   -4.5923   -0.9060 H         1 <0>         0.0608
     24 H4          0.8828   -4.6642   -0.0305 H         1 <0>         0.1076
     25 H5         -0.6490   -4.6018    0.8738 H         1 <0>         0.0611
     26 H6         -2.4355   -3.9399    0.0045 H         1 <0>         0.1461
     27 H7         -2.5010    1.0030    0.0420 H         1 <0>         0.1366
     28 H8         -0.8627    1.8171    0.0160 H         1 <0>         0.4010
     29 H9          1.9338    1.2764   -1.8699 H         1 <0>         0.1264
     30 H10         0.9645    2.7612   -2.0292 H         1 <0>         0.0931
     31 H11         3.7832    2.5815   -0.8699 H         1 <0>         0.1367
     32 H12         3.3558    3.2240   -2.4737 H         1 <0>         0.1402
     33 H13         3.0936    3.7604    1.1181 H         1 <0>         0.1434
     34 H14         2.1596    5.2686    0.9743 H         1 <0>         0.1370
     35 H15        -0.4960    4.1954    3.4936 H         1 <0>         0.1045
     36 H16         0.2827    5.3337    2.3684 H         1 <0>         0.0489
     37 H17        -1.1443    4.4050    1.8492 H         1 <0>         0.0547
     38 H18        -4.8411   -3.8436    0.0275 H         1 <0>         0.4093
     39 H19        -5.6901   -2.3939    0.0434 H         1 <0>         0.4089
     40 N3          2.7466    4.4179   -0.8553 N.4       1 <0>        -0.5111
     41 H20         2.0035    4.8837   -1.3893 H         1 <0>         0.4324
     42 H21         3.6023    4.9841   -0.8943 H         1 <0>         0.4417
@<TRIPOS>BOND
     1    1    2 1
     2    1   23 1
     3    1   24 1
     4    1   25 1
     5    2    3 1
     6    3    8 ar
     7    3    4 ar
     8    4    5 ar
     9    4   26 1
    10    5    6 ar
    11    5   22 1
    12    6    7 ar
    13    6   21 1
    14    7    8 ar
    15    7   27 1
    16    8    9 1
    17    9   10 2
    18    9   11 am
    19   11   12 1
    20   11   28 1
    21   12   13 1
    22   12   17 1
    23   12   14 1
    24   14   15 1
    25   14   29 1
    26   14   30 1
    27   15   31 1
    28   15   32 1
    29   15   40 1
    30   16   17 1
    31   16   33 1
    32   16   34 1
    33   16   40 1
    34   17   18 1
    35   17   19 1
    36   19   20 1
    37   20   35 1
    38   20   36 1
    39   20   37 1
    40   22   38 1
    41   22   39 1
    42   40   41 1
    43   40   42 1
@<TRIPOS>MOLECULE
ZINC05019457
   42    43     0     0     0
SMALL
USER_CHARGES
4-amino-5-chloro-2-methoxy-N-(3-methoxy-4-piperidyl)-benzamide
@<TRIPOS>ATOM
      1 C1         -1.3883    6.4971    0.0489 C.3       1 <0>         0.0173
      2 O1         -0.1050    5.8687    0.0332 O.3       1 <0>        -0.2770
      3 C2         -0.0835    4.5121    0.0266 C.ar      1 <0>         0.2482
      4 C3         -1.2689    3.7977    0.0346 C.ar      1 <0>        -0.2974
      5 C4         -1.2406    2.4091    0.0210 C.ar      1 <0>         0.3045
      6 C5         -0.0215    1.7317    0.0116 C.ar      1 <0>        -0.1595
      7 C6          1.1536    2.4271    0.0041 C.ar      1 <0>         0.0124
      8 C7          1.1409    3.8263    0.0112 C.ar      1 <0>        -0.2380
      9 C8          2.4076    4.5765    0.0032 C.2       1 <0>         0.5802
     10 O2          2.3942    5.7927    0.0094 O.2       1 <0>        -0.5147
     11 N1          3.5821    3.9156   -0.0111 N.am      1 <0>        -0.7282
     12 C9          4.8427    4.6621   -0.0192 C.3       1 <0>         0.1417
     13 H1          4.7321    5.5699    0.5739 H         1 <0>         0.1139
     14 C10         5.2094    5.0314   -1.4592 C.3       1 <0>        -0.1600
     15 C11         6.5566    5.7574   -1.4670 C.3       1 <0>        -0.0015
     16 C12         7.2806    4.5562    0.5091 C.3       1 <0>        -0.0279
     17 C13         5.9550    3.7944    0.5760 C.3       1 <0>         0.0613
     18 H2          6.0383    2.8685    0.0068 H         1 <0>         0.0896
     19 O3          5.6464    3.4910    1.9379 O.3       1 <0>        -0.3513
     20 C14         6.1619    2.2354    2.3849 C.3       1 <0>         0.0177
     21 Cl1         0.0021   -0.0041    0.0020 Cl        1 <0>        -0.0610
     22 N2         -2.4324    1.6914    0.0228 N.pl3     1 <0>        -0.8498
     23 H3         -1.9317    6.1912    0.9429 H         1 <0>         0.0611
     24 H4         -1.2627    7.5798    0.0528 H         1 <0>         0.1076
     25 H5         -1.9494    6.1995   -0.8370 H         1 <0>         0.0608
     26 H6         -2.2145    4.3193    0.0464 H         1 <0>         0.1461
     27 H7          2.0941    1.8964   -0.0078 H         1 <0>         0.1366
     28 H8          3.5929    2.9456   -0.0161 H         1 <0>         0.4010
     29 H9          5.2810    4.1251   -2.0604 H         1 <0>         0.0931
     30 H10         4.4417    5.6845   -1.8742 H         1 <0>         0.1264
     31 H11         6.4805    6.6708   -0.8770 H         1 <0>         0.1367
     32 H12         6.8274    6.0090   -2.4925 H         1 <0>         0.1402
     33 H13         7.2010    5.4752    1.0899 H         1 <0>         0.1435
     34 H14         8.0773    3.9355    0.9191 H         1 <0>         0.1371
     35 H15         5.8850    2.0793    3.4275 H         1 <0>         0.1045
     36 H16         5.7458    1.4338    1.7746 H         1 <0>         0.0547
     37 H17         7.2480    2.2352    2.2935 H         1 <0>         0.0489
     38 H18        -2.4145    0.7215    0.0175 H         1 <0>         0.4089
     39 H19        -3.2812    2.1608    0.0294 H         1 <0>         0.4093
     40 N3          7.5969    4.8819   -0.8947 N.4       1 <0>        -0.5111
     41 H20         8.5032    5.3628   -0.9343 H         1 <0>         0.4416
     42 H21         7.6461    4.0136   -1.4405 H         1 <0>         0.4324
@<TRIPOS>BOND
     1    1    2 1
     2    1   23 1
     3    1   24 1
     4    1   25 1
     5    2    3 1
     6    3    8 ar
     7    3    4 ar
     8    4    5 ar
     9    4   26 1
    10    5    6 ar
    11    5   22 1
    12    6    7 ar
    13    6   21 1
    14    7    8 ar
    15    7   27 1
    16    8    9 1
    17    9   10 2
    18    9   11 am
    19   11   12 1
    20   11   28 1
    21   12   13 1
    22   12   17 1
    23   12   14 1
    24   14   15 1
    25   14   29 1
    26   14   30 1
    27   15   31 1
    28   15   32 1
    29   15   40 1
    30   16   17 1
    31   16   33 1
    32   16   34 1
    33   16   40 1
    34   17   18 1
    35   17   19 1
    36   19   20 1
    37   20   35 1
    38   20   36 1
    39   20   37 1
    40   22   38 1
    41   22   39 1
    42   40   41 1
    43   40   42 1
@<TRIPOS>MOLECULE
ZINC01383149
   40    43     0     0     0
SMALL
USER_CHARGES

@<TRIPOS>ATOM
      1 C1          1.0973    1.9881    3.2083 C.ar      1 <0>        -0.1058
      2 C2          1.1431    1.6882    1.8591 C.ar      1 <0>        -0.1062
      3 C3          2.1761    0.9224    1.3551 C.ar      1 <0>        -0.1001
      4 C4          3.1694    0.4535    2.2048 C.ar      1 <0>         0.1176
      5 C5          3.1206    0.7565    3.5592 C.ar      1 <0>        -0.1072
      6 C6          2.0849    1.5227    4.0570 C.ar      1 <0>        -0.1074
      7 N1          4.2178   -0.3235    1.6970 N.am      1 <0>        -0.5011
      8 C7          4.3988   -1.6760    1.9765 C.ar      1 <0>         0.1798
      9 C8          3.6686   -2.5612    2.7606 C.ar      1 <0>        -0.1346
     10 C9          4.0679   -3.8782    2.8754 C.ar      1 <0>        -0.0533
     11 C10         5.1964   -4.3337    2.2147 C.ar      1 <0>        -0.1415
     12 C11         5.9350   -3.4697    1.4311 C.ar      1 <0>        -0.0326
     13 C12         5.5405   -2.1408    1.3086 C.ar      1 <0>        -0.1814
     14 C13         6.0936   -0.9851    0.5689 C.2       1 <0>         0.2028
     15 N2          7.1601   -0.9608   -0.1931 N.2       1 <0>        -0.3815
     16 C14         7.9701   -2.0507   -0.2638 C.ar      1 <0>         0.0791
     17 C15         7.7774   -3.0078   -1.2686 C.ar      1 <0>        -0.0967
     18 C16         8.6029   -4.1092   -1.3328 C.ar      1 <0>        -0.0967
     19 C17         9.6204   -4.2718   -0.4076 C.ar      1 <0>        -0.0812
     20 C18         9.8181   -3.3310    0.5886 C.ar      1 <0>        -0.1605
     21 C19         9.0056   -2.2200    0.6639 C.ar      1 <0>        -0.0778
     22 C20        10.9284   -3.5191    1.5900 C.3       1 <0>         0.5096
     23 F1         11.6136   -4.7060    1.3090 F         1 <0>        -0.1735
     24 F2         11.8146   -2.4394    1.5120 F         1 <0>        -0.1732
     25 F3         10.3877   -3.5866    2.8785 F         1 <0>        -0.1739
     26 C21         5.1737    0.1399    0.8736 C.2       1 <0>         0.5711
     27 O1          5.2696    1.2772    0.4554 O.2       1 <0>        -0.4436
     28 H1          0.2909    2.5909    3.5992 H         1 <0>         0.1315
     29 H2          0.3701    2.0528    1.1989 H         1 <0>         0.1337
     30 H3          2.2111    0.6882    0.3014 H         1 <0>         0.1277
     31 H4          3.8916    0.3933    4.2225 H         1 <0>         0.1296
     32 H5          2.0465    1.7589    5.1101 H         1 <0>         0.1337
     33 H6          2.7869   -2.2182    3.2816 H         1 <0>         0.1354
     34 H7          3.4947   -4.5594    3.4868 H         1 <0>         0.1403
     35 H8          5.4992   -5.3657    2.3127 H         1 <0>         0.1381
     36 H9          6.8156   -3.8237    0.9155 H         1 <0>         0.1306
     37 H10         6.9838   -2.8829   -1.9905 H         1 <0>         0.1392
     38 H11         8.4557   -4.8480   -2.1067 H         1 <0>         0.1457
     39 H12        10.2633   -5.1378   -0.4634 H         1 <0>         0.1455
     40 H13         9.1641   -1.4848    1.4390 H         1 <0>         0.1391
@<TRIPOS>BOND
     1    1    6 ar
     2    1    2 ar
     3    1   28 1
     4    2    3 ar
     5    2   29 1
     6    3    4 ar
     7    3   30 1
     8    4    5 ar
     9    4    7 1
    10    5    6 ar
    11    5   31 1
    12    6   32 1
    13    7   26 am
    14    7    8 1
    15    8   13 ar
    16    8    9 ar
    17    9   10 ar
    18    9   33 1
    19   10   11 ar
    20   10   34 1
    21   11   12 ar
    22   11   35 1
    23   12   13 ar
    24   12   36 1
    25   13   14 1
    26   14   15 2
    27   14   26 1
    28   15   16 1
    29   16   21 ar
    30   16   17 ar
    31   17   18 ar
    32   17   37 1
    33   18   19 ar
    34   18   38 1
    35   19   20 ar
    36   19   39 1
    37   20   21 ar
    38   20   22 1
    39   21   40 1
    40   22   23 1
    41   22   24 1
    42   22   25 1
    43   26   27 2
@<TRIPOS>MOLECULE
ZINC00006097
   43    44     0     0     0
SMALL
USER_CHARGES

@<TRIPOS>ATOM
      1 C1         -0.3605    1.4536   -0.2932 C.3       1 <0>         0.0169
      2 O1         -0.2728    0.0279   -0.2495 O.3       1 <0>        -0.2804
      3 C2          0.4248   -0.5150    0.7796 C.ar      1 <0>         0.2551
      4 C3          1.0086    0.3023    1.7317 C.ar      1 <0>        -0.2999
      5 C4          1.7217   -0.2593    2.7832 C.ar      1 <0>         0.3146
      6 C5          1.8520   -1.6446    2.8830 C.ar      1 <0>        -0.1645
      7 C6          1.2805   -2.4600    1.9491 C.ar      1 <0>         0.0315
      8 C7          0.5531   -1.9091    0.8874 C.ar      1 <0>        -0.2290
      9 C8         -0.0685   -2.7870   -0.1154 C.2       1 <0>         0.5255
     10 O2         -0.6948   -2.3061   -1.0396 O.2       1 <0>        -0.4759
     11 O3          0.0562   -4.1251   -0.0097 O.3       1 <0>        -0.3730
     12 C9         -0.5732   -4.9171   -1.0189 C.3       1 <0>         0.0343
     13 C10        -0.3243   -6.3994   -0.7330 C.3       1 <0>        -0.0013
     14 N1         -0.9600   -6.7661    0.5396 N.4       1 <0>        -0.3849
     15 C11        -0.5913   -8.1429    0.8901 C.3       1 <0>        -0.0071
     16 C12        -1.1845   -8.5023    2.2541 C.3       1 <0>        -0.1466
     17 C13        -2.7097   -8.3815    2.1891 C.3       1 <0>        -0.1389
     18 C14        -3.0813   -6.9621    1.7504 C.3       1 <0>        -0.1454
     19 C15        -2.4178   -6.6598    0.4051 C.3       1 <0>        -0.0143
     20 Cl1         2.7460   -2.3351    4.2011 Cl        1 <0>        -0.0562
     21 N2          2.3083    0.5625    3.7397 N.pl3     1 <0>        -0.8443
     22 H1          0.6414    1.8772   -0.3628 H         1 <0>         0.0641
     23 H2         -0.9437    1.7552   -1.1633 H         1 <0>         0.1105
     24 H3         -0.8460    1.8157    0.6130 H         1 <0>         0.0636
     25 H4          0.9103    1.3752    1.6570 H         1 <0>         0.1503
     26 H5          1.3855   -3.5316    2.0322 H         1 <0>         0.1480
     27 H6         -1.6456   -4.7219   -1.0178 H         1 <0>         0.0920
     28 H7         -0.1582   -4.6604   -1.9936 H         1 <0>         0.1149
     29 H8         -0.7481   -7.0007   -1.5374 H         1 <0>         0.1498
     30 H9          0.7484   -6.5820   -0.6692 H         1 <0>         0.1435
     31 H10        -0.9790   -8.8260    0.1344 H         1 <0>         0.1292
     32 H11         0.4946   -8.2281    0.9328 H         1 <0>         0.1315
     33 H12        -0.9111   -9.5255    2.5117 H         1 <0>         0.1127
     34 H13        -0.7972   -7.8199    3.0107 H         1 <0>         0.0882
     35 H14        -3.1019   -9.0999    1.4693 H         1 <0>         0.0820
     36 H15        -3.1335   -8.5815    3.1733 H         1 <0>         0.0943
     37 H16        -4.1637   -6.8844    1.6480 H         1 <0>         0.1122
     38 H17        -2.7334   -6.2477    2.4965 H         1 <0>         0.0879
     39 H18        -2.6804   -5.6500    0.0897 H         1 <0>         0.1283
     40 H19        -2.7666   -7.3745   -0.3403 H         1 <0>         0.1309
     41 H20         2.2191    1.5260    3.6718 H         1 <0>         0.4113
     42 H21         2.8067    0.1722    4.4747 H         1 <0>         0.4107
     43 H22        -0.6436   -6.1402    1.2650 H         1 <0>         0.4281
@<TRIPOS>BOND
     1    1    2 1
     2    1   22 1
     3    1   23 1
     4    1   24 1
     5    2    3 1
     6    3    8 ar
     7    3    4 ar
     8    4    5 ar
     9    4   25 1
    10    5    6 ar
    11    5   21 1
    12    6    7 ar
    13    6   20 1
    14    7    8 ar
    15    7   26 1
    16    8    9 1
    17    9   10 2
    18    9   11 1
    19   11   12 1
    20   12   13 1
    21   12   27 1
    22   12   28 1
    23   13   14 1
    24   13   29 1
    25   13   30 1
    26   14   19 1
    27   14   15 1
    28   14   43 1
    29   15   16 1
    30   15   31 1
    31   15   32 1
    32   16   17 1
    33   16   33 1
    34   16   34 1
    35   17   18 1
    36   17   35 1
    37   17   36 1
    38   18   19 1
    39   18   37 1
    40   18   38 1
    41   19   39 1
    42   19   40 1
    43   21   41 1
    44   21   42 1
@<TRIPOS>MOLECULE
ZINC01544798
   42    42     0     0     0
SMALL
USER_CHARGES

@<TRIPOS>ATOM
      1 C1         -0.2640    1.4459    0.0391 C.3       1 <0>        -0.1867
      2 C2         -0.0334   -0.0661   -0.0010 C.3       1 <0>        -0.0190
      3 N1          0.8227   -0.4609    1.1256 N.4       1 <0>        -0.3884
      4 C3          0.1113   -0.2220    2.3885 C.3       1 <0>        -0.0150
      5 C4          1.0526   -0.4946    3.5635 C.3       1 <0>        -0.1889
      6 C5          1.1539   -1.8876    1.0125 C.3       1 <0>        -0.0058
      7 C6          2.0022   -2.1165   -0.2401 C.3       1 <0>         0.0346
      8 O1          3.2566   -1.4476   -0.0947 O.3       1 <0>        -0.3722
      9 C7          4.1273   -1.5504   -1.1186 C.2       1 <0>         0.5252
     10 O2          3.8292   -2.1908   -2.1079 O.2       1 <0>        -0.4762
     11 C8          5.4378   -0.8879   -1.0388 C.ar      1 <0>        -0.2290
     12 C9          5.7859   -0.1546    0.1018 C.ar      1 <0>         0.0314
     13 C10         7.0028    0.4597    0.1754 C.ar      1 <0>        -0.1644
     14 C11         7.9064    0.3622   -0.8828 C.ar      1 <0>         0.3146
     15 C12         7.5753   -0.3618   -2.0210 C.ar      1 <0>        -0.2999
     16 C13         6.3467   -0.9934   -2.1039 C.ar      1 <0>         0.2550
     17 O3          6.0200   -1.7066   -3.2107 O.3       1 <0>        -0.2803
     18 C14         6.9953   -1.7693   -4.2533 C.3       1 <0>         0.0168
     19 N2          9.1433    0.9927   -0.7981 N.pl3     1 <0>        -0.8444
     20 Cl1         7.4276    1.3674    1.5929 Cl        1 <0>        -0.0562
     21 H1          0.6968    1.9590    0.0785 H         1 <0>         0.0802
     22 H2         -0.8045    1.7548   -0.8556 H         1 <0>         0.1064
     23 H3         -0.8486    1.7009    0.9230 H         1 <0>         0.0817
     24 H4         -0.9909   -0.5818    0.0722 H         1 <0>         0.1321
     25 H5          0.4532   -0.3347   -0.9386 H         1 <0>         0.1290
     26 H6         -0.2254    0.8140    2.4254 H         1 <0>         0.1329
     27 H7         -0.7503   -0.8866    2.4514 H         1 <0>         0.1303
     28 H8          1.3017   -1.5554    3.5909 H         1 <0>         0.0809
     29 H9          1.9645    0.0898    3.4417 H         1 <0>         0.0812
     30 H10         0.5619   -0.2124    4.4950 H         1 <0>         0.1062
     31 H11         1.7144   -2.2015    1.8931 H         1 <0>         0.1446
     32 H12         0.2350   -2.4693    0.9403 H         1 <0>         0.1502
     33 H13         2.1733   -3.1847   -0.3728 H         1 <0>         0.1146
     34 H14         1.4785   -1.7215   -1.1107 H         1 <0>         0.0920
     35 H15         5.0908   -0.0745    0.9244 H         1 <0>         0.1481
     36 H16         8.2771   -0.4350   -2.8386 H         1 <0>         0.1503
     37 H17         7.2134   -0.7619   -4.6078 H         1 <0>         0.0636
     38 H18         7.9082   -2.2252   -3.8700 H         1 <0>         0.0641
     39 H19         6.6082   -2.3686   -5.0774 H         1 <0>         0.1105
     40 H20         9.3762    1.4991   -0.0042 H         1 <0>         0.4107
     41 H21         9.7730    0.9261   -1.5329 H         1 <0>         0.4113
     42 H22         1.6719    0.0838    1.1097 H         1 <0>         0.4278
@<TRIPOS>BOND
     1    1    2 1
     2    1   21 1
     3    1   22 1
     4    1   23 1
     5    2    3 1
     6    2   24 1
     7    2   25 1
     8    3    4 1
     9    3    6 1
    10    3   42 1
    11    4    5 1
    12    4   26 1
    13    4   27 1
    14    5   28 1
    15    5   29 1
    16    5   30 1
    17    6    7 1
    18    6   31 1
    19    6   32 1
    20    7    8 1
    21    7   33 1
    22    7   34 1
    23    8    9 1
    24    9   10 2
    25    9   11 1
    26   11   16 ar
    27   11   12 ar
    28   12   13 ar
    29   12   35 1
    30   13   14 ar
    31   13   20 1
    32   14   15 ar
    33   14   19 1
    34   15   16 ar
    35   15   36 1
    36   16   17 1
    37   17   18 1
    38   18   37 1
    39   18   38 1
    40   18   39 1
    41   19   40 1
    42   19   41 1
@<TRIPOS>MOLECULE
ZINC00003961
   42    44     0     0     0
SMALL
USER_CHARGES

@<TRIPOS>ATOM
      1 C1         -0.0173    1.4248    0.0099 C.3       1 <0>         0.0170
      2 O1          0.0021   -0.0041    0.0020 O.3       1 <0>        -0.2774
      3 C2         -1.1983   -0.6364    0.0101 C.ar      1 <0>         0.2497
      4 C3         -2.3712    0.0982    0.0194 C.ar      1 <0>        -0.2976
      5 C4         -3.5971   -0.5547    0.0272 C.ar      1 <0>         0.3065
      6 C5         -3.6504   -1.9484    0.0260 C.ar      1 <0>        -0.1594
      7 C6         -2.4991   -2.6824    0.0173 C.ar      1 <0>         0.0113
      8 C7         -1.2567   -2.0387    0.0031 C.ar      1 <0>        -0.2425
      9 C8         -0.0151   -2.8296   -0.0130 C.2       1 <0>         0.5766
     10 O2          1.0637   -2.2679   -0.0202 O.2       1 <0>        -0.5096
     11 N1         -0.0739   -4.1760   -0.0196 N.am      1 <0>        -0.7377
     12 C9          1.1616   -4.9631   -0.0357 C.3       1 <0>         0.1404
     13 H1          1.9273   -4.4530    0.5489 H         1 <0>         0.1257
     14 C10         1.6444   -5.1305   -1.4782 C.3       1 <0>        -0.0230
     15 N2          1.6981   -6.5521   -1.8273 N.4       1 <0>        -0.3745
     16 C11         0.3665   -7.1558   -1.7375 C.3       1 <0>        -0.0085
     17 C12        -0.1588   -7.0555   -0.3036 C.3       1 <0>        -0.1412
     18 C13         0.8956   -6.3500    0.5644 C.3       1 <0>        -0.1094
     19 C14         2.1956   -7.1625    0.5001 C.3       1 <0>        -0.1333
     20 C15         2.6449   -7.2601   -0.9624 C.3       1 <0>        -0.0090
     21 Cl1        -5.1881   -2.7540    0.0363 Cl        1 <0>        -0.0589
     22 N3         -4.7760    0.1840    0.0366 N.pl3     1 <0>        -0.8483
     23 H2          1.0053    1.8021    0.0021 H         1 <0>         0.1085
     24 H3         -0.5445    1.7859   -0.8732 H         1 <0>         0.0613
     25 H4         -0.5275    1.7763    0.9067 H         1 <0>         0.0620
     26 H5         -2.3333    1.1775    0.0211 H         1 <0>         0.1468
     27 H6         -2.5474   -3.7613    0.0172 H         1 <0>         0.1363
     28 H7         -0.9342   -4.6240   -0.0138 H         1 <0>         0.4019
     29 H8          0.9568   -4.6185   -2.1514 H         1 <0>         0.1336
     30 H9          2.6386   -4.6953   -1.5796 H         1 <0>         0.1391
     31 H10        -0.3139   -6.6324   -2.4093 H         1 <0>         0.1295
     32 H11         0.4244   -8.2045   -2.0290 H         1 <0>         0.1328
     33 H12        -1.0843   -6.4799   -0.2931 H         1 <0>         0.0959
     34 H13        -0.3439   -8.0556    0.0883 H         1 <0>         0.1074
     35 H14         0.5425   -6.2558    1.5913 H         1 <0>         0.1255
     36 H15         2.9675   -6.6636    1.0860 H         1 <0>         0.1045
     37 H16         2.0215   -8.1623    0.8976 H         1 <0>         0.1068
     38 H17         2.6909   -8.3082   -1.2582 H         1 <0>         0.1321
     39 H18         3.6336   -6.8130   -1.0663 H         1 <0>         0.1322
     40 H19        -4.7409    1.1534    0.0377 H         1 <0>         0.4100
     41 H20        -5.6330   -0.2703    0.0420 H         1 <0>         0.4095
     42 H21         2.0144   -6.6347   -2.7818 H         1 <0>         0.4276
@<TRIPOS>BOND
     1    1    2 1
     2    1   23 1
     3    1   24 1
     4    1   25 1
     5    2    3 1
     6    3    8 ar
     7    3    4 ar
     8    4    5 ar
     9    4   26 1
    10    5    6 ar
    11    5   22 1
    12    6    7 ar
    13    6   21 1
    14    7    8 ar
    15    7   27 1
    16    8    9 1
    17    9   10 2
    18    9   11 am
    19   11   12 1
    20   11   28 1
    21   12   13 1
    22   12   18 1
    23   12   14 1
    24   14   15 1
    25   14   29 1
    26   14   30 1
    27   15   20 1
    28   15   16 1
    29   15   42 1
    30   16   17 1
    31   16   31 1
    32   16   32 1
    33   17   18 1
    34   17   33 1
    35   17   34 1
    36   18   19 1
    37   18   35 1
    38   19   20 1
    39   19   36 1
    40   19   37 1
    41   20   38 1
    42   20   39 1
    43   22   40 1
    44   22   41 1
@<TRIPOS>MOLECULE
ZINC00608261
   51    53     0     0     0
SMALL
USER_CHARGES

@<TRIPOS>ATOM
      1 C1         -0.0173    1.4248    0.0099 C.3       1 <0>         0.0173
      2 O1          0.0021   -0.0041    0.0020 O.3       1 <0>        -0.2771
      3 C2          0.6048   -0.6061   -1.0540 C.ar      1 <0>         0.2478
      4 C3          1.1714    0.1577   -2.0595 C.ar      1 <0>        -0.2977
      5 C4          1.7875   -0.4643   -3.1379 C.ar      1 <0>         0.3044
      6 C5          1.8368   -1.8562   -3.2112 C.ar      1 <0>        -0.1595
      7 C6          1.2804   -2.6188   -2.2247 C.ar      1 <0>         0.0118
      8 C7          0.6619   -2.0064   -1.1291 C.ar      1 <0>        -0.2392
      9 C8          0.0677   -2.8282   -0.0619 C.2       1 <0>         0.5777
     10 O2         -0.4739   -2.2937    0.8871 O.2       1 <0>        -0.5150
     11 N1          0.1238   -4.1727   -0.1363 N.am      1 <0>        -0.7348
     12 C9         -0.4675   -4.9905    0.9257 C.3       1 <0>         0.1399
     13 C10        -1.9593   -5.1933    0.6453 C.3       1 <0>        -0.1609
     14 C11        -2.5532   -6.1131    1.7143 C.3       1 <0>        -0.0026
     15 N2         -1.8673   -7.4105    1.6845 N.4       1 <0>        -0.3829
     16 C12        -0.4502   -7.2327    2.0231 C.3       1 <0>        -0.0069
     17 C13         0.2246   -6.3560    0.9660 C.3       1 <0>        -0.1547
     18 C14        -2.4921   -8.3155    2.6585 C.3       1 <0>         0.0441
     19 C15        -1.8711   -9.6837    2.5432 C.ar      1 <0>        -0.1614
     20 C16        -2.4070  -10.6150    1.6735 C.ar      1 <0>        -0.0939
     21 C17        -1.8373  -11.8701    1.5678 C.ar      1 <0>        -0.1130
     22 C18        -0.7314  -12.1937    2.3315 C.ar      1 <0>        -0.0844
     23 C19        -0.1950  -11.2621    3.2005 C.ar      1 <0>        -0.1134
     24 C20        -0.7621  -10.0056    3.3031 C.ar      1 <0>        -0.0981
     25 Cl1         2.6089   -2.6229   -4.5639 Cl        1 <0>        -0.0606
     26 N3          2.3569    0.3038   -4.1485 N.pl3     1 <0>        -0.8497
     27 H1          1.0053    1.8021    0.0021 H         1 <0>         0.0610
     28 H2         -0.5445    1.7859   -0.8732 H         1 <0>         0.0608
     29 H3         -0.5275    1.7763    0.9067 H         1 <0>         0.1075
     30 H4          1.1342    1.2357   -2.0059 H         1 <0>         0.1459
     31 H5          1.3215   -3.6961   -2.2880 H         1 <0>         0.1380
     32 H6          0.5557   -4.5989   -0.8931 H         1 <0>         0.4022
     33 H7         -0.3406   -4.4891    1.8852 H         1 <0>         0.1061
     34 H8         -2.4686   -4.2300    0.6703 H         1 <0>         0.1189
     35 H9         -2.0865   -5.6477   -0.3373 H         1 <0>         0.0900
     36 H10        -2.4257   -5.6578    2.6964 H         1 <0>         0.1327
     37 H11        -3.6153   -6.2595    1.5178 H         1 <0>         0.1342
     38 H12        -0.3676   -6.7535    2.9986 H         1 <0>         0.1323
     39 H13         0.0402   -8.2056    2.0545 H         1 <0>         0.1361
     40 H14         0.1427   -6.8345   -0.0100 H         1 <0>         0.0932
     41 H15         1.2762   -6.2237    1.2201 H         1 <0>         0.1193
     42 H16        -2.3359   -7.9292    3.6657 H         1 <0>         0.1362
     43 H17        -3.5613   -8.3837    2.4573 H         1 <0>         0.1377
     44 H18        -3.2710  -10.3622    1.0769 H         1 <0>         0.1311
     45 H19        -2.2565  -12.5979    0.8888 H         1 <0>         0.1360
     46 H20        -0.2868  -13.1745    2.2494 H         1 <0>         0.1357
     47 H21         0.6688  -11.5151    3.7974 H         1 <0>         0.1361
     48 H22        -0.3407   -9.2765    3.9793 H         1 <0>         0.1314
     49 H23         2.3233    1.2719   -4.0992 H         1 <0>         0.4092
     50 H24         2.7876   -0.1289   -4.9023 H         1 <0>         0.4090
     51 H25        -1.9439   -7.8092    0.7608 H         1 <0>         0.4219
@<TRIPOS>BOND
     1    1    2 1
     2    1   27 1
     3    1   28 1
     4    1   29 1
     5    2    3 1
     6    3    8 ar
     7    3    4 ar
     8    4    5 ar
     9    4   30 1
    10    5    6 ar
    11    5   26 1
    12    6    7 ar
    13    6   25 1
    14    7    8 ar
    15    7   31 1
    16    8    9 1
    17    9   10 2
    18    9   11 am
    19   11   12 1
    20   11   32 1
    21   12   17 1
    22   12   13 1
    23   12   33 1
    24   13   14 1
    25   13   34 1
    26   13   35 1
    27   14   15 1
    28   14   36 1
    29   14   37 1
    30   15   16 1
    31   15   18 1
    32   15   51 1
    33   16   17 1
    34   16   38 1
    35   16   39 1
    36   17   40 1
    37   17   41 1
    38   18   19 1
    39   18   42 1
    40   18   43 1
    41   19   24 ar
    42   19   20 ar
    43   20   21 ar
    44   20   44 1
    45   21   22 ar
    46   21   45 1
    47   22   23 ar
    48   22   46 1
    49   23   24 ar
    50   23   47 1
    51   24   48 1
    52   26   49 1
    53   26   50 1
@<TRIPOS>MOLECULE
ZINC00598220
   55    57     0     0     0
SMALL
USER_CHARGES

@<TRIPOS>ATOM
      1 C1         -0.0178    1.4608    0.0101 C.3       1 <0>         0.0677
      2 N1          0.0021   -0.0041    0.0020 N.pl3     1 <0>        -0.4662
      3 C2          0.0078   -0.7702   -1.1144 C.2       1 <0>         0.1447
      4 C3          0.0280   -2.0902   -0.7684 C.2       1 <0>        -0.2341
      5 C4          0.0354   -2.1352    0.7057 C.ar      1 <0>        -0.0593
      6 C5          0.0236   -0.7970    1.1310 C.ar      1 <0>         0.0821
      7 C6          0.0320   -0.5142    2.4927 C.ar      1 <0>        -0.1194
      8 C7          0.0549   -1.5436    3.4086 C.ar      1 <0>        -0.0951
      9 C8          0.0697   -2.8649    2.9867 C.ar      1 <0>        -0.1286
     10 C9          0.0537   -3.1654    1.6419 C.ar      1 <0>        -0.0730
     11 C10         0.0401   -3.2380   -1.6825 C.2       1 <0>         0.5447
     12 O1          0.0576   -4.3694   -1.2375 O.2       1 <0>        -0.5047
     13 O2          0.0317   -3.0380   -3.0160 O.3       1 <0>        -0.3583
     14 C11         0.0443   -4.2008   -3.8465 C.3       1 <0>         0.0704
     15 C12         0.0322   -3.7777   -5.3167 C.3       1 <0>        -0.0996
     16 C13        -1.2912   -3.0768   -5.6371 C.3       1 <0>        -0.1422
     17 C14        -1.3296   -2.7274   -7.1263 C.3       1 <0>        -0.0049
     18 N2         -1.2187   -3.9548   -7.9236 N.4       1 <0>        -0.3827
     19 C15         0.0788   -4.5945   -7.6753 C.3       1 <0>        -0.0135
     20 C16         0.1714   -5.0158   -6.2071 C.3       1 <0>        -0.1415
     21 C17        -1.3342   -3.6226   -9.3499 C.3       1 <0>        -0.0173
     22 C18        -1.3440   -4.9113  -10.1745 C.3       1 <0>         0.0887
     23 N3         -1.4592   -4.5800  -11.5969 N.pl3     1 <0>        -1.1191
     24 S1         -1.1253   -5.7269  -12.7439 S.o2      1 <0>         2.6133
     25 O3         -1.3133   -5.0629  -13.9861 O.2       1 <0>        -0.9381
     26 O4          0.1495   -6.2405  -12.3827 O.2       1 <0>        -0.9482
     27 C19        -2.3987   -6.9985  -12.5162 C.3       1 <0>        -0.6713
     28 H1          1.0048    1.8381    0.0023 H         1 <0>         0.0803
     29 H2         -0.5450    1.8219   -0.8730 H         1 <0>         0.0900
     30 H3         -0.5280    1.8123    0.9069 H         1 <0>         0.0902
     31 H4         -0.0021   -0.3934   -2.1265 H         1 <0>         0.1833
     32 H5          0.0209    0.5111    2.8319 H         1 <0>         0.1253
     33 H6          0.0617   -1.3195    4.4651 H         1 <0>         0.1326
     34 H7          0.0880   -3.6617    3.7154 H         1 <0>         0.1304
     35 H8          0.0664   -4.1949    1.3157 H         1 <0>         0.1328
     36 H9          0.9433   -4.7827   -3.6432 H         1 <0>         0.0784
     37 H10        -0.8365   -4.8074   -3.6357 H         1 <0>         0.0737
     38 H11         0.8619   -3.0968   -5.5069 H         1 <0>         0.1028
     39 H12        -2.1219   -3.7406   -5.3974 H         1 <0>         0.0905
     40 H13        -1.3718   -2.1640   -5.0468 H         1 <0>         0.1209
     41 H14        -2.2704   -2.2281   -7.3578 H         1 <0>         0.1338
     42 H15        -0.4987   -2.0634   -7.3648 H         1 <0>         0.1322
     43 H16         0.1778   -5.4737   -8.3120 H         1 <0>         0.1373
     44 H17         0.8797   -3.8908   -7.9021 H         1 <0>         0.1356
     45 H18         1.1362   -5.4889   -6.0244 H         1 <0>         0.1198
     46 H19        -0.6289   -5.7198   -5.9793 H         1 <0>         0.0944
     47 H20        -2.2606   -3.0744   -9.5214 H         1 <0>         0.1409
     48 H21        -0.4865   -3.0062   -9.6492 H         1 <0>         0.1412
     49 H22        -0.4176   -5.4595  -10.0030 H         1 <0>         0.1029
     50 H23        -2.1917   -5.5277   -9.8752 H         1 <0>         0.0875
     51 H24        -1.7311   -3.6889  -11.8669 H         1 <0>         0.4262
     52 H25        -3.3841   -6.5564  -12.6631 H         1 <0>         0.1334
     53 H26        -2.2475   -7.7981  -13.2414 H         1 <0>         0.1389
     54 H27        -2.3297   -7.4053  -11.5072 H         1 <0>         0.1256
     55 H28        -1.9600   -4.5894   -7.6670 H         1 <0>         0.4246
@<TRIPOS>BOND
     1    1    2 1
     2    1   28 1
     3    1   29 1
     4    1   30 1
     5    2    6 1
     6    2    3 1
     7    3    4 2
     8    3   31 1
     9    4    5 1
    10    4   11 1
    11    5   10 ar
    12    5    6 ar
    13    6    7 ar
    14    7    8 ar
    15    7   32 1
    16    8    9 ar
    17    8   33 1
    18    9   10 ar
    19    9   34 1
    20   10   35 1
    21   11   12 2
    22   11   13 1
    23   13   14 1
    24   14   15 1
    25   14   36 1
    26   14   37 1
    27   15   20 1
    28   15   16 1
    29   15   38 1
    30   16   17 1
    31   16   39 1
    32   16   40 1
    33   17   18 1
    34   17   41 1
    35   17   42 1
    36   18   19 1
    37   18   21 1
    38   18   55 1
    39   19   20 1
    40   19   43 1
    41   19   44 1
    42   20   45 1
    43   20   46 1
    44   21   22 1
    45   21   47 1
    46   21   48 1
    47   22   23 1
    48   22   49 1
    49   22   50 1
    50   23   24 1
    51   23   51 1
    52   24   25 2
    53   24   26 2
    54   24   27 1
    55   27   52 1
    56   27   53 1
    57   27   54 1
@<TRIPOS>MOLECULE
ZINC03790774
   45    47     0     0     0
SMALL
USER_CHARGES
4-amino-5-chloro-N-(2,3,5,6,7,8-hexahydro-1H-pyrrolizin-1-ylmethyl)-2-methoxy-benzamide
@<TRIPOS>ATOM
      1 C1         -0.0127    1.0858    0.0080 C.3       1 <0>         0.0173
      2 O1         -0.6816    1.5467    1.1837 O.3       1 <0>        -0.2765
      3 C2         -0.1497    1.1827    2.3776 C.ar      1 <0>         0.2472
      4 C3          0.9873    0.3947    2.4212 C.ar      1 <0>        -0.2970
      5 C4          1.5297    0.0289    3.6464 C.ar      1 <0>         0.3032
      6 C5          0.9268    0.4445    4.8334 C.ar      1 <0>        -0.1597
      7 C6         -0.1979    1.2181    4.8014 C.ar      1 <0>         0.0110
      8 C7         -0.7531    1.5986    3.5746 C.ar      1 <0>        -0.2366
      9 C8         -1.9656    2.4327    3.5396 C.2       1 <0>         0.5750
     10 O2         -2.4463    2.7626    2.4720 O.2       1 <0>        -0.5143
     11 N1         -2.5432    2.8308    4.6904 N.am      1 <0>        -0.7404
     12 C9         -3.7499    3.6608    4.6556 C.3       1 <0>         0.1271
     13 C10        -4.1977    3.9699    6.0855 C.3       1 <0>        -0.1179
     14 H1         -3.3781    4.4143    6.6501 H         1 <0>         0.1196
     15 C11        -4.6928    2.6823    6.7825 C.3       1 <0>        -0.1459
     16 C12        -5.8970    3.1848    7.6185 C.3       1 <0>        -0.0059
     17 C13        -5.4101    4.9148    6.0722 C.3       1 <0>         0.0291
     18 H2         -5.6765    5.2083    5.0568 H         1 <0>         0.1543
     19 C14        -5.1127    6.1368    6.9728 C.3       1 <0>        -0.1361
     20 C15        -6.5375    6.5415    7.4342 C.3       1 <0>        -0.1445
     21 C16        -7.2539    5.1834    7.5831 C.3       1 <0>        -0.0088
     22 Cl1         1.6092   -0.0246    6.3591 Cl        1 <0>        -0.0621
     23 N2          2.6757   -0.7588    3.6898 N.pl3     1 <0>        -0.8505
     24 H3          0.0021   -0.0041    0.0020 H         1 <0>         0.0607
     25 H4          1.0099    1.4631    0.0003 H         1 <0>         0.0609
     26 H5         -0.5399    1.4469   -0.8751 H         1 <0>         0.1076
     27 H6          1.4540    0.0676    1.5038 H         1 <0>         0.1459
     28 H7         -0.6598    1.5365    5.7242 H         1 <0>         0.1369
     29 H8         -2.1599    2.5677    5.5418 H         1 <0>         0.3988
     30 H9         -3.5348    4.5928    4.1327 H         1 <0>         0.0809
     31 H10        -4.5436    3.1263    4.1338 H         1 <0>         0.0750
     32 H11        -5.0149    1.9450    6.0472 H         1 <0>         0.1037
     33 H12        -3.9174    2.2709    7.4288 H         1 <0>         0.1176
     34 H13        -5.5541    3.6335    8.5508 H         1 <0>         0.1312
     35 H14        -6.5935    2.3708    7.8197 H         1 <0>         0.1402
     36 H15        -4.4929    5.8531    7.8234 H         1 <0>         0.0990
     37 H16        -4.6451    6.9384    6.4012 H         1 <0>         0.1177
     38 H17        -7.0276    7.1549    6.6781 H         1 <0>         0.1009
     39 H18        -6.5018    7.0652    8.3895 H         1 <0>         0.1122
     40 H19        -8.2853    5.2692    7.2409 H         1 <0>         0.1350
     41 H20        -7.2329    4.8659    8.6257 H         1 <0>         0.1300
     42 H21         3.0539   -1.0180    4.5445 H         1 <0>         0.4086
     43 H22         3.0964   -1.0488    2.8652 H         1 <0>         0.4090
     44 N3         -6.4973    4.2165    6.7562 N.4       1 <0>        -0.3911
     45 H23        -7.1249    3.7805    6.0704 H         1 <0>         0.4320
@<TRIPOS>BOND
     1    1    2 1
     2    1   24 1
     3    1   25 1
     4    1   26 1
     5    2    3 1
     6    3    8 ar
     7    3    4 ar
     8    4    5 ar
     9    4   27 1
    10    5    6 ar
    11    5   23 1
    12    6    7 ar
    13    6   22 1
    14    7    8 ar
    15    7   28 1
    16    8    9 1
    17    9   10 2
    18    9   11 am
    19   11   12 1
    20   11   29 1
    21   12   13 1
    22   12   30 1
    23   12   31 1
    24   13   14 1
    25   13   17 1
    26   13   15 1
    27   15   16 1
    28   15   32 1
    29   15   33 1
    30   16   34 1
    31   16   35 1
    32   16   44 1
    33   17   18 1
    34   17   19 1
    35   17   44 1
    36   19   20 1
    37   19   36 1
    38   19   37 1
    39   20   21 1
    40   20   38 1
    41   20   39 1
    42   21   40 1
    43   21   41 1
    44   21   44 1
    45   23   42 1
    46   23   43 1
    47   44   45 1
@<TRIPOS>MOLECULE
ZINC01537633
   59    62     0     0     0
SMALL
USER_CHARGES
N-[(1-butyl-4-piperidyl)methyl]BLAHcarboxamide
@<TRIPOS>ATOM
      1 C1          7.2531   -4.2747    8.7024 C.3       1 <0>        -0.1589
      2 C2          6.3582   -5.3024    8.0070 C.3       1 <0>        -0.1219
      3 C3          5.9696   -4.7851    6.6205 C.3       1 <0>        -0.1521
      4 C4          5.0746   -5.8129    5.9251 C.3       1 <0>        -0.0054
      5 C5          3.6589   -6.1569    3.9917 C.3       1 <0>         0.0011
      6 C6          3.3998   -5.6994    2.5545 C.3       1 <0>        -0.1412
      7 C7          2.9582   -4.2333    2.5624 C.3       1 <0>        -0.1122
      8 C8          4.0400   -3.3862    3.2382 C.3       1 <0>        -0.1455
      9 C9          4.2805   -3.9107    4.6556 C.3       1 <0>        -0.0088
     10 C10         2.7562   -3.7523    1.1241 C.3       1 <0>         0.1235
     11 N1          2.2199   -2.3891    1.1358 N.am      1 <0>        -0.7299
     12 C11         1.9609   -1.7568   -0.0259 C.2       1 <0>         0.6132
     13 O1          2.1727   -2.3186   -1.0851 O.2       1 <0>        -0.5241
     14 C12         1.4254   -0.3958   -0.0142 C.2       1 <0>        -0.2606
     15 C13         0.0021   -0.0041    0.0020 C.ar      1 <0>        -0.0497
     16 C14        -1.1921   -0.7201    0.0092 C.ar      1 <0>        -0.0825
     17 C15        -2.3934   -0.0447    0.0234 C.ar      1 <0>        -0.1263
     18 C16        -2.4147    1.3419    0.0310 C.ar      1 <0>        -0.1005
     19 C17        -1.2396    2.0625    0.0199 C.ar      1 <0>        -0.1164
     20 C18        -0.0170    1.3996    0.0097 C.ar      1 <0>         0.0974
     21 N2          1.2919    1.8415   -0.0004 N.pl3     1 <0>        -0.5000
     22 C19         2.1495    0.7788   -0.0166 C.2       1 <0>         0.3262
     23 O2          3.5002    0.9052   -0.0328 O.3       1 <0>        -0.2850
     24 C20         3.9862    2.2082   -0.3837 C.3       1 <0>         0.0479
     25 C21         3.2205    3.2636    0.4214 C.3       1 <0>        -0.1739
     26 C22         1.7435    3.2422    0.0065 C.3       1 <0>         0.1007
     27 H1          7.5300   -4.6432    9.6902 H         1 <0>         0.0669
     28 H2          8.1532   -4.1157    8.1086 H         1 <0>         0.0591
     29 H3          6.7138   -3.3329    8.8040 H         1 <0>         0.0586
     30 H4          5.4581   -5.4614    8.6009 H         1 <0>         0.0728
     31 H5          6.8975   -6.2442    7.9054 H         1 <0>         0.0731
     32 H6          6.8696   -4.6262    6.0266 H         1 <0>         0.0859
     33 H7          5.4303   -3.8433    6.7221 H         1 <0>         0.0886
     34 H8          4.1745   -5.9718    6.5190 H         1 <0>         0.1301
     35 H9          5.6139   -6.7546    5.8235 H         1 <0>         0.1286
     36 H10         2.7406   -6.0682    4.5722 H         1 <0>         0.1306
     37 H11         3.9874   -7.1962    3.9884 H         1 <0>         0.1308
     38 H12         2.6150   -6.3135    2.1130 H         1 <0>         0.1172
     39 H13         4.3142   -5.8008    1.9699 H         1 <0>         0.0929
     40 H14         2.0224   -4.1378    3.1132 H         1 <0>         0.0970
     41 H15         4.9644   -3.4512    2.6644 H         1 <0>         0.0922
     42 H16         3.7124   -2.3476    3.2852 H         1 <0>         0.1111
     43 H17         3.3592   -3.8326    5.2330 H         1 <0>         0.1305
     44 H18         5.0603   -3.3186    5.1345 H         1 <0>         0.1334
     45 H19         2.0557   -4.4140    0.6147 H         1 <0>         0.0782
     46 H20         3.7120   -3.7623    0.6001 H         1 <0>         0.0738
     47 H21         2.0512   -1.9415    1.9797 H         1 <0>         0.4002
     48 H22        -1.1770   -1.8000    0.0031 H         1 <0>         0.1223
     49 H23        -3.3214   -0.5972    0.0291 H         1 <0>         0.1290
     50 H24        -3.3610    1.8622    0.0422 H         1 <0>         0.1314
     51 H25        -1.2684    3.1421    0.0264 H         1 <0>         0.1232
     52 H26         5.0494    2.2748   -0.1533 H         1 <0>         0.1235
     53 H27         3.8329    2.3794   -1.4492 H         1 <0>         0.0779
     54 H28         3.3032    3.0406    1.4851 H         1 <0>         0.0886
     55 H29         3.6406    4.2493    0.2216 H         1 <0>         0.1123
     56 H30         1.1523    3.8162    0.7200 H         1 <0>         0.1015
     57 H31         1.6348    3.6699   -0.9902 H         1 <0>         0.0909
     58 N3          4.7263   -5.3182    4.5771 N.4       1 <0>        -0.3946
     59 H32         5.5580   -5.3712    3.9774 H         1 <0>         0.4271
@<TRIPOS>BOND
     1    1    2 1
     2    1   27 1
     3    1   28 1
     4    1   29 1
     5    2    3 1
     6    2   30 1
     7    2   31 1
     8    3    4 1
     9    3   32 1
    10    3   33 1
    11    4   34 1
    12    4   35 1
    13    4   58 1
    14    5    6 1
    15    5   36 1
    16    5   37 1
    17    5   58 1
    18    6    7 1
    19    6   38 1
    20    6   39 1
    21    7    8 1
    22    7   10 1
    23    7   40 1
    24    8    9 1
    25    8   41 1
    26    8   42 1
    27    9   43 1
    28    9   44 1
    29    9   58 1
    30   10   11 1
    31   10   45 1
    32   10   46 1
    33   11   12 am
    34   11   47 1
    35   12   13 2
    36   12   14 1
    37   14   22 2
    38   14   15 1
    39   15   20 ar
    40   15   16 ar
    41   16   17 ar
    42   16   48 1
    43   17   18 ar
    44   17   49 1
    45   18   19 ar
    46   18   50 1
    47   19   20 ar
    48   19   51 1
    49   20   21 1
    50   21   26 1
    51   21   22 1
    52   22   23 1
    53   23   24 1
    54   24   25 1
    55   24   52 1
    56   24   53 1
    57   25   26 1
    58   25   54 1
    59   25   55 1
    60   26   56 1
    61   26   57 1
    62   58   59 1
@<TRIPOS>MOLECULE
ZINC00009096
   28    29     0     0     0
SMALL
USER_CHARGES
1-(2-aminopropyl)indazol-6-ol
@<TRIPOS>ATOM
      1 C1         -0.0187    1.5258    0.0104 C.3       1 <0>        -0.1798
      2 C2          0.0021   -0.0041    0.0020 C.3       1 <0>         0.0135
      3 H1         -1.0205   -0.3814    0.0098 H         1 <0>         0.1421
      4 C3          0.7182   -0.4975   -1.2568 C.3       1 <0>         0.1211
      5 N1          0.6341   -1.9585   -1.3255 N.pl3     1 <0>        -0.4418
      6 C4         -0.3652   -2.6695   -1.9375 C.ar      1 <0>         0.1417
      7 C5         -1.5191   -2.3095   -2.6284 C.ar      1 <0>        -0.1837
      8 C6         -2.3451   -3.2911   -3.1388 C.ar      1 <0>         0.1780
      9 C7         -2.0331   -4.6396   -2.9675 C.ar      1 <0>        -0.1724
     10 C8         -0.9074   -5.0110   -2.2940 C.ar      1 <0>        -0.0140
     11 C9         -0.0553   -4.0328   -1.7682 C.ar      1 <0>        -0.1903
     12 C10         1.1942   -4.0782   -1.0151 C.2       1 <0>         0.1195
     13 N2          1.5637   -2.8513   -0.7825 N.2       1 <0>        -0.2867
     14 O1         -3.4713   -2.9405   -3.8138 O.3       1 <0>        -0.4925
     15 H2          1.0039    1.9031    0.0027 H         1 <0>         0.0878
     16 H3         -0.5459    1.8868   -0.8726 H         1 <0>         0.1109
     17 H4         -0.5289    1.8773    0.9072 H         1 <0>         0.0910
     18 H5          0.2444   -0.0644   -2.1377 H         1 <0>         0.1331
     19 H6          1.7648   -0.1951   -1.2215 H         1 <0>         0.1197
     20 H7         -1.7671   -1.2672   -2.7641 H         1 <0>         0.1338
     21 H8         -2.6889   -5.3963   -3.3722 H         1 <0>         0.1432
     22 H9         -0.6737   -6.0576   -2.1662 H         1 <0>         0.1427
     23 H10         1.7207   -4.9702   -0.7090 H         1 <0>         0.2080
     24 H11        -4.2535   -2.8485   -3.2528 H         1 <0>         0.4027
     25 H12         1.6637   -0.1543    1.2082 H         1 <0>         0.4371
     26 H13         0.2234   -0.2325    2.0360 H         1 <0>         0.4390
     27 N3          0.7115   -0.5156    1.1879 N.4       1 <0>        -0.6431
     28 H14         0.7431   -1.5411    1.1461 H         1 <0>         0.4394
@<TRIPOS>BOND
     1    1    2 1
     2    1   15 1
     3    1   16 1
     4    1   17 1
     5    2    3 1
     6    2    4 1
     7    2   27 1
     8    4    5 1
     9    4   18 1
    10    4   19 1
    11    5   13 1
    12    5    6 1
    13    6   11 ar
    14    6    7 ar
    15    7    8 ar
    16    7   20 1
    17    8    9 ar
    18    8   14 1
    19    9   10 ar
    20    9   21 1
    21   10   11 ar
    22   10   22 1
    23   11   12 1
    24   12   13 2
    25   12   23 1
    26   14   24 1
    27   25   27 1
    28   26   27 1
    29   27   28 1
@<TRIPOS>MOLECULE
ZINC00057058
   26    27     0     0     0
SMALL
USER_CHARGES

@<TRIPOS>ATOM
      1 C1         -0.0168    1.3880    0.0097 C.ar      1 <0>        -0.1182
      2 C2          1.1587    2.1055    0.0023 C.ar      1 <0>        -0.1024
      3 C3          2.3795    1.4398   -0.0129 C.ar      1 <0>         0.0862
      4 C4          2.4019    0.0334   -0.0206 C.ar      1 <0>        -0.0842
      5 C5          1.2039   -0.6838   -0.0130 C.ar      1 <0>        -0.1143
      6 C6          0.0021   -0.0041    0.0020 C.ar      1 <0>         0.0953
      7 O1         -1.1679   -0.6972    0.0094 O.3       1 <0>        -0.4959
      8 C7          3.8159   -0.3493   -0.0361 C.2       1 <0>        -0.2101
      9 C8          4.5307    0.7870   -0.0369 C.2       1 <0>         0.0918
     10 N1          3.6908    1.8667   -0.0231 N.pl3     1 <0>        -0.5866
     11 H1          3.9751    2.7941   -0.0208 H         1 <0>         0.4248
     12 C9          4.3642   -1.7530   -0.0489 C.3       1 <0>        -0.0616
     13 C10         4.4190   -2.2661   -1.4892 C.3       1 <0>        -0.0080
     14 N2          4.9535   -3.6343   -1.5017 N.4       1 <0>        -0.6389
     15 H2         -0.9621    1.9101    0.0260 H         1 <0>         0.1389
     16 H3          1.1325    3.1852    0.0080 H         1 <0>         0.1315
     17 H4          1.2172   -1.7637   -0.0192 H         1 <0>         0.1256
     18 H5         -1.5147   -0.8930   -0.8718 H         1 <0>         0.3922
     19 H6          5.6093    0.8408   -0.0472 H         1 <0>         0.1750
     20 H7          5.3681   -1.7548    0.3759 H         1 <0>         0.0927
     21 H8          3.7180   -2.4009    0.5433 H         1 <0>         0.0925
     22 H9          3.4152   -2.2643   -1.9140 H         1 <0>         0.1329
     23 H10         5.0652   -1.6182   -2.0814 H         1 <0>         0.1331
     24 H11         5.8827   -3.6360   -1.1085 H         1 <0>         0.4347
     25 H12         4.3553   -4.2341   -0.9535 H         1 <0>         0.4353
     26 H13         4.9896   -3.9727   -2.4515 H         1 <0>         0.4379
@<TRIPOS>BOND
     1    1    6 ar
     2    1    2 ar
     3    1   15 1
     4    2    3 ar
     5    2   16 1
     6    3   10 1
     7    3    4 ar
     8    4    5 ar
     9    4    8 1
    10    5    6 ar
    11    5   17 1
    12    6    7 1
    13    7   18 1
    14    8    9 2
    15    8   12 1
    16    9   10 1
    17    9   19 1
    18   10   11 1
    19   12   13 1
    20   12   20 1
    21   12   21 1
    22   13   14 1
    23   13   22 1
    24   13   23 1
    25   14   24 1
    26   14   25 1
    27   14   26 1
@<TRIPOS>MOLECULE
ZINC34866289
   53    54     0     0     0
SMALL
USER_CHARGES

@<TRIPOS>ATOM
      1 C1         -0.0187    1.5258    0.0104 C.3       1 <0>        -0.1544
      2 C2          0.0021   -0.0041    0.0020 C.3       1 <0>        -0.0602
      3 C3          0.7421   -0.5109    1.2415 C.3       1 <0>        -0.1554
      4 C4         -1.4333   -0.5336    0.0129 C.3       1 <0>        -0.1487
      5 C5          0.7182   -0.4975   -1.2568 C.3       1 <0>        -0.1395
      6 C6          2.1536    0.0321   -1.2676 C.3       1 <0>        -0.0175
      7 N1          2.8412   -0.4417   -2.4763 N.4       1 <0>        -0.3843
      8 C7          2.1965    0.1353   -3.6620 C.3       1 <0>        -0.0127
      9 C8          2.8571   -0.4182   -4.9265 C.3       1 <0>        -0.1412
     10 C9          4.3437   -0.0506   -4.9220 C.3       1 <0>        -0.1394
     11 H1          4.4511    1.0337   -4.9522 H         1 <0>         0.1175
     12 C10         4.9899   -0.5938   -3.6443 C.3       1 <0>         0.0742
     13 H2          6.0356   -0.2883   -3.6071 H         1 <0>         0.1276
     14 C11         4.2503   -0.0338   -2.4274 C.3       1 <0>        -0.0326
     15 F1          4.9107   -1.9905   -3.6381 F         1 <0>        -0.1879
     16 C12         5.0268   -0.6667   -6.1446 C.3       1 <0>         0.1220
     17 N2          6.4198   -0.2169   -6.2040 N.am      1 <0>        -0.7343
     18 C13         7.2209   -0.6353   -7.2039 C.2       1 <0>         0.5691
     19 O1          6.7876   -1.3857   -8.0563 O.2       1 <0>        -0.5113
     20 C14         8.6267   -0.1814   -7.2639 C.ar      1 <0>        -0.1162
     21 C15         9.1286    0.6756   -6.2834 C.ar      1 <0>        -0.0781
     22 C16        10.4425    1.0962   -6.3448 C.ar      1 <0>        -0.0314
     23 C17        11.2614    0.6693   -7.3763 C.ar      1 <0>        -0.0721
     24 C18        10.7690   -0.1805   -8.3521 C.ar      1 <0>        -0.0288
     25 C19         9.4587   -0.6128   -8.2980 C.ar      1 <0>        -0.0444
     26 Cl1        11.8031   -0.7095   -9.6423 Cl        1 <0>        -0.0331
     27 Cl2        11.0685    2.1627   -5.1265 Cl        1 <0>        -0.0416
     28 H3          1.0039    1.9031    0.0027 H         1 <0>         0.0539
     29 H4         -0.5459    1.8868   -0.8726 H         1 <0>         0.0619
     30 H5         -0.5289    1.8773    0.9072 H         1 <0>         0.0697
     31 H6          0.2319   -0.1594    2.1383 H         1 <0>         0.0697
     32 H7          0.7568   -1.6008    1.2356 H         1 <0>         0.0626
     33 H8          1.7647   -0.1336    1.2338 H         1 <0>         0.0542
     34 H9         -1.9605   -0.1726   -0.8702 H         1 <0>         0.0606
     35 H10        -1.4185   -1.6235    0.0069 H         1 <0>         0.0611
     36 H11        -1.9435   -0.1821    0.9097 H         1 <0>         0.0680
     37 H12         0.7330   -1.5874   -1.2628 H         1 <0>         0.0891
     38 H13         0.1910   -0.1364   -2.1398 H         1 <0>         0.0891
     39 H14         2.1388    1.1220   -1.2617 H         1 <0>         0.1345
     40 H15         2.6808   -0.3290   -0.3846 H         1 <0>         0.1350
     41 H16         1.1379   -0.1245   -3.6621 H         1 <0>         0.1402
     42 H17         2.3035    1.2198   -3.6417 H         1 <0>         0.1337
     43 H18         2.7504   -1.5028   -4.9479 H         1 <0>         0.1001
     44 H19         2.3782    0.0127   -5.8057 H         1 <0>         0.1255
     45 H20         4.3136    1.0544   -2.4334 H         1 <0>         0.1492
     46 H21         4.7080   -0.4184   -1.5159 H         1 <0>         0.1449
     47 H22         4.9988   -1.7535   -6.0672 H         1 <0>         0.0867
     48 H23         4.5049   -0.3533   -7.0488 H         1 <0>         0.0896
     49 H24         6.7655    0.3819   -5.5238 H         1 <0>         0.3985
     50 H25         8.4907    1.0096   -5.4785 H         1 <0>         0.1381
     51 H26        12.2883    1.0009   -7.4201 H         1 <0>         0.1549
     52 H27         9.0771   -1.2796   -9.0570 H         1 <0>         0.1570
     53 H28         2.7848   -1.4481   -2.5214 H         1 <0>         0.4271
@<TRIPOS>BOND
     1    1    2 1
     2    1   28 1
     3    1   29 1
     4    1   30 1
     5    2    3 1
     6    2    4 1
     7    2    5 1
     8    3   31 1
     9    3   32 1
    10    3   33 1
    11    4   34 1
    12    4   35 1
    13    4   36 1
    14    5    6 1
    15    5   37 1
    16    5   38 1
    17    6    7 1
    18    6   39 1
    19    6   40 1
    20    7   14 1
    21    7    8 1
    22    7   53 1
    23    8    9 1
    24    8   41 1
    25    8   42 1
    26    9   10 1
    27    9   43 1
    28    9   44 1
    29   10   11 1
    30   10   12 1
    31   10   16 1
    32   12   13 1
    33   12   14 1
    34   12   15 1
    35   14   45 1
    36   14   46 1
    37   16   17 1
    38   16   47 1
    39   16   48 1
    40   17   18 am
    41   17   49 1
    42   18   19 2
    43   18   20 1
    44   20   25 ar
    45   20   21 ar
    46   21   22 ar
    47   21   50 1
    48   22   23 ar
    49   22   27 1
    50   23   24 ar
    51   23   51 1
    52   24   25 ar
    53   24   26 1
    54   25   52 1
@<TRIPOS>MOLECULE
ZINC33967579
   41    42     0     0     0
SMALL
USER_CHARGES

@<TRIPOS>ATOM
      1 C1         -0.0173    1.4248    0.0099 C.3       1 <0>         0.0173
      2 O1          0.0021   -0.0041    0.0020 O.3       1 <0>        -0.2759
      3 C2          0.6048   -0.6061   -1.0540 C.ar      1 <0>         0.2468
      4 C3          1.1714    0.1577   -2.0595 C.ar      1 <0>        -0.2966
      5 C4          1.7875   -0.4643   -3.1379 C.ar      1 <0>         0.3022
      6 C5          1.8368   -1.8562   -3.2112 C.ar      1 <0>        -0.1600
      7 C6          1.2804   -2.6188   -2.2247 C.ar      1 <0>         0.0103
      8 C7          0.6619   -2.0064   -1.1291 C.ar      1 <0>        -0.2353
      9 C8          0.0677   -2.8282   -0.0619 C.2       1 <0>         0.5727
     10 O2         -0.4739   -2.2937    0.8871 O.2       1 <0>        -0.5135
     11 N1          0.1238   -4.1727   -0.1363 N.am      1 <0>        -0.7416
     12 C9         -0.4675   -4.9905    0.9257 C.3       1 <0>         0.1268
     13 C10        -0.2679   -6.4719    0.5996 C.3       1 <0>        -0.1145
     14 C11        -1.0586   -6.8297   -0.6621 C.3       1 <0>        -0.1479
     15 C12        -0.9189   -8.3285   -0.9372 C.3       1 <0>        -0.0069
     16 N2         -1.4432   -9.0898    0.2030 N.4       1 <0>        -0.5060
     17 C13        -0.6442   -8.8061    1.4011 C.3       1 <0>        -0.0056
     18 C14        -0.7734   -7.3257    1.7662 C.3       1 <0>        -0.1420
     19 Cl1         2.6089   -2.6229   -4.5639 Cl        1 <0>        -0.0636
     20 N3          2.3569    0.3038   -4.1485 N.pl3     1 <0>        -0.8509
     21 H1          1.0053    1.8021    0.0021 H         1 <0>         0.0608
     22 H2         -0.5445    1.7859   -0.8732 H         1 <0>         0.0606
     23 H3         -0.5275    1.7763    0.9067 H         1 <0>         0.1078
     24 H4          1.1342    1.2357   -2.0059 H         1 <0>         0.1458
     25 H5          1.3215   -3.6961   -2.2880 H         1 <0>         0.1359
     26 H6          0.5557   -4.5989   -0.8931 H         1 <0>         0.3954
     27 H7          0.0163   -4.7589    1.8746 H         1 <0>         0.0781
     28 H8         -1.5335   -4.7751    0.9992 H         1 <0>         0.0741
     29 H9          0.7915   -6.6695    0.4356 H         1 <0>         0.0975
     30 H10        -2.1101   -6.5831   -0.5148 H         1 <0>         0.0941
     31 H11        -0.6671   -6.2662   -1.5090 H         1 <0>         0.1117
     32 H12        -1.4805   -8.5865   -1.8350 H         1 <0>         0.1346
     33 H13         0.1328   -8.5739   -1.0845 H         1 <0>         0.1312
     34 H14        -2.4028   -8.8259    0.3696 H         1 <0>         0.4287
     35 H15        -1.0031   -9.4168    2.2296 H         1 <0>         0.1357
     36 H16         0.4017   -9.0413    1.2039 H         1 <0>         0.1314
     37 H17        -0.1780   -7.1167    2.6549 H         1 <0>         0.1172
     38 H18        -1.8189   -7.0894    1.9638 H         1 <0>         0.0940
     39 H19         2.3233    1.2719   -4.0992 H         1 <0>         0.4089
     40 H20         2.7876   -0.1289   -4.9023 H         1 <0>         0.4083
     41 H21        -1.3989  -10.0764   -0.0038 H         1 <0>         0.4326
@<TRIPOS>BOND
     1    1    2 1
     2    1   21 1
     3    1   22 1
     4    1   23 1
     5    2    3 1
     6    3    8 ar
     7    3    4 ar
     8    4    5 ar
     9    4   24 1
    10    5    6 ar
    11    5   20 1
    12    6    7 ar
    13    6   19 1
    14    7    8 ar
    15    7   25 1
    16    8    9 1
    17    9   10 2
    18    9   11 am
    19   11   12 1
    20   11   26 1
    21   12   13 1
    22   12   27 1
    23   12   28 1
    24   13   18 1
    25   13   14 1
    26   13   29 1
    27   14   15 1
    28   14   30 1
    29   14   31 1
    30   15   16 1
    31   15   32 1
    32   15   33 1
    33   16   17 1
    34   16   34 1
    35   16   41 1
    36   17   18 1
    37   17   35 1
    38   17   36 1
    39   18   37 1
    40   18   38 1
    41   20   39 1
    42   20   40 1
@<TRIPOS>MOLECULE
ZINC43012767
   38    40     0     0     0
SMALL
USER_CHARGES

@<TRIPOS>ATOM
      1 C1         -0.0173    1.4248    0.0099 C.3       1 <0>         0.0284
      2 O1          0.0021   -0.0041    0.0020 O.3       1 <0>        -0.3187
      3 C2          0.6062   -0.6075   -1.0564 C.ar      1 <0>         0.0996
      4 C3          1.1743    0.1671   -2.0648 C.ar      1 <0>        -0.1776
      5 C4          1.7902   -0.4276   -3.1431 C.ar      1 <0>        -0.0916
      6 C5          1.8491   -1.8144   -3.2325 C.ar      1 <0>         0.0616
      7 C6          1.2765   -2.5993   -2.2160 C.ar      1 <0>        -0.0485
      8 C7          0.6588   -1.9852   -1.1241 C.ar      1 <0>        -0.1025
      9 C8          1.5045   -3.9936   -2.6032 C.2       1 <0>        -0.1787
     10 C9          2.1673   -3.9740   -3.7704 C.2       1 <0>         0.0721
     11 N1          2.3826   -2.6813   -4.1629 N.pl3     1 <0>        -0.5941
     12 H1          2.8415   -2.4143   -4.9747 H         1 <0>         0.4167
     13 C10         1.0768   -5.2182   -1.8359 C.3       1 <0>         0.1488
     14 N2         -0.3456   -5.4831   -2.0899 N.3       1 <0>        -0.5244
     15 N3         -0.7940   -6.6604   -1.3640 N.3       1 <0>        -0.3781
     16 C11        -1.2135   -7.7223   -2.2901 C.3       1 <0>        -0.0081
     17 C12        -1.6202   -8.9609   -1.4874 C.3       1 <0>         0.0681
     18 O2         -2.6546   -8.6067   -0.5654 O.3       1 <0>        -0.3846
     19 C13        -2.2799   -7.5756    0.3520 C.3       1 <0>         0.0623
     20 C14        -1.8799   -6.3230   -0.4321 C.3       1 <0>         0.0315
     21 H2          1.0053    1.8021    0.0021 H         1 <0>         0.0536
     22 H3         -0.5445    1.7859   -0.8732 H         1 <0>         0.0535
     23 H4         -0.5275    1.7763    0.9067 H         1 <0>         0.0989
     24 H5          1.1310    1.2443   -2.0005 H         1 <0>         0.1312
     25 H6          2.2272    0.1827   -3.9196 H         1 <0>         0.1230
     26 H7          0.2215   -2.5847   -0.3394 H         1 <0>         0.1314
     27 H8          2.4837   -4.8492   -4.3185 H         1 <0>         0.1694
     28 H9          1.6692   -6.0744   -2.1587 H         1 <0>         0.0413
     29 H10         1.2306   -5.0511   -0.7699 H         1 <0>         0.0846
     30 H11        -0.5250   -5.5776   -3.0783 H         1 <0>         0.3318
     31 H12        -2.0621   -7.3762   -2.8803 H         1 <0>         0.0504
     32 H13        -0.3864   -7.9742   -2.9538 H         1 <0>         0.0841
     33 H14        -1.9861   -9.7309   -2.1666 H         1 <0>         0.1003
     34 H15        -0.7574   -9.3385   -0.9388 H         1 <0>         0.0612
     35 H16        -3.1228   -7.3437    1.0030 H         1 <0>         0.1029
     36 H17        -1.4362   -7.9130    0.9540 H         1 <0>         0.0607
     37 H18        -1.5391   -5.5533    0.2604 H         1 <0>         0.0919
     38 H19        -2.7391   -5.9545   -0.9926 H         1 <0>         0.0477
@<TRIPOS>BOND
     1    1    2 1
     2    1   21 1
     3    1   22 1
     4    1   23 1
     5    2    3 1
     6    3    8 ar
     7    3    4 ar
     8    4    5 ar
     9    4   24 1
    10    5    6 ar
    11    5   25 1
    12    6   11 1
    13    6    7 ar
    14    7    8 ar
    15    7    9 1
    16    8   26 1
    17    9   10 2
    18    9   13 1
    19   10   11 1
    20   10   27 1
    21   11   12 1
    22   13   14 1
    23   13   28 1
    24   13   29 1
    25   14   15 1
    26   14   30 1
    27   15   20 1
    28   15   16 1
    29   16   17 1
    30   16   31 1
    31   16   32 1
    32   17   18 1
    33   17   33 1
    34   17   34 1
    35   18   19 1
    36   19   20 1
    37   19   35 1
    38   19   36 1
    39   20   37 1
    40   20   38 1
@<TRIPOS>MOLECULE
ZINC00014556
   52    55     0     0     0
SMALL
USER_CHARGES
3-isopropyl-N,N-bis(3-isopropyl-2-oxo-benzoimidazol-7a-yl)-2-oxo-benzoimidazole-1-carboxamide
@<TRIPOS>ATOM
      1 C1          4.2160    4.5064   -1.2636 C.3       1 <0>        -0.1703
      2 C2          3.5992    3.8795   -0.0117 C.3       1 <0>         0.1528
      3 C3          4.2394    4.4939    1.2347 C.3       1 <0>        -0.1707
      4 N1          2.1569    4.1362    0.0031 N.am      1 <0>        -0.5238
      5 C4          1.1565    3.1662    0.0076 C.ar      1 <0>         0.1055
      6 C5          1.1757    1.7798    0.0004 C.ar      1 <0>        -0.1080
      7 C6         -0.0126    1.0758    0.0080 C.ar      1 <0>        -0.0859
      8 C7         -1.2222    1.7487    0.0173 C.ar      1 <0>        -0.1122
      9 C8         -1.2507    3.1297    0.0299 C.ar      1 <0>        -0.0723
     10 C9         -0.0634    3.8444    0.0224 C.ar      1 <0>         0.0720
     11 N2          0.2343    5.2085    0.0265 N.am      1 <0>        -0.5069
     12 C10         1.5733    5.3493    0.0147 C.2       1 <0>         0.6906
     13 O1          2.1657    6.4115    0.0141 O.2       1 <0>        -0.5394
     14 C11        -0.6648    6.2124    0.0399 C.2       1 <0>         0.7300
     15 O2         -1.8542    5.9629    0.0498 O.2       1 <0>        -0.5391
     16 N3         -0.2449    7.4931    0.0425 N.am      1 <0>        -0.7233
     17 C12        -1.2222    8.5844    0.0571 C.3       1 <0>         0.1469
     18 C13        -1.6742    8.8827   -1.3753 C.3       1 <0>        -0.1621
     19 C14        -2.5829   10.1224   -1.3625 C.3       1 <0>         0.0377
     20 H1         -3.0523   10.3080   -2.3285 H         1 <0>         0.1595
     21 C15        -3.6226    9.9349   -0.2337 C.3       1 <0>        -0.1473
     22 C16        -2.9494   10.5208    1.0249 C.3       1 <0>        -0.1457
     23 C17        -1.5642   11.0091    0.5422 C.3       1 <0>         0.0380
     24 H2         -1.2185   11.8925    1.0791 H         1 <0>         0.1615
     25 C18        -0.5813    9.8339    0.6678 C.3       1 <0>        -0.1556
     26 C19        -2.4554   12.5438   -1.1268 C.3       1 <0>        -0.0370
     27 H3          4.0384    5.5819   -1.2565 H         1 <0>         0.0729
     28 H4          5.2891    4.3154   -1.2746 H         1 <0>         0.0825
     29 H5          3.7599    4.0687   -2.1516 H         1 <0>         0.0619
     30 H6          3.7767    2.8040   -0.0188 H         1 <0>         0.1067
     31 H7          5.3124    4.3028    1.2237 H         1 <0>         0.0824
     32 H8          4.0618    5.5693    1.2418 H         1 <0>         0.0732
     33 H9          3.7999    4.0472    2.1266 H         1 <0>         0.0623
     34 H10         2.1177    1.2516   -0.0114 H         1 <0>         0.1378
     35 H11         0.0021   -0.0041    0.0020 H         1 <0>         0.1424
     36 H12        -2.1475    1.1916    0.0191 H         1 <0>         0.1417
     37 H13        -2.1963    3.6514    0.0417 H         1 <0>         0.1451
     38 H14         0.7044    7.6923    0.0346 H         1 <0>         0.4210
     39 H15        -2.0850    8.2904    0.6549 H         1 <0>         0.1135
     40 H16        -0.8023    9.0755   -2.0005 H         1 <0>         0.0928
     41 H17        -2.2263    8.0294   -1.7691 H         1 <0>         0.1184
     42 H18        -4.5363   10.4824   -0.4648 H         1 <0>         0.1016
     43 H19        -3.8396    8.8764   -0.0899 H         1 <0>         0.1156
     44 H20        -2.8354    9.7504    1.7876 H         1 <0>         0.1123
     45 H21        -3.5322   11.3563    1.4127 H         1 <0>         0.1025
     46 H22        -0.3602    9.6538    1.7198 H         1 <0>         0.1208
     47 H23         0.3396   10.0696    0.1345 H         1 <0>         0.0978
     48 H24        -1.8714   13.3583   -0.6982 H         1 <0>         0.1238
     49 H25        -2.5815   12.7109   -2.1965 H         1 <0>         0.1249
     50 H26        -3.4335   12.5066   -0.6472 H         1 <0>         0.1189
     51 N4         -1.7607   11.2378   -0.8850 N.4       1 <0>        -0.3949
     52 H27        -0.8554   11.2424   -1.3692 H         1 <0>         0.4274
@<TRIPOS>BOND
     1    1    2 1
     2    1   27 1
     3    1   28 1
     4    1   29 1
     5    2    3 1
     6    2    4 1
     7    2   30 1
     8    3   31 1
     9    3   32 1
    10    3   33 1
    11    4   12 am
    12    4    5 1
    13    5   10 ar
    14    5    6 ar
    15    6    7 ar
    16    6   34 1
    17    7    8 ar
    18    7   35 1
    19    8    9 ar
    20    8   36 1
    21    9   10 ar
    22    9   37 1
    23   10   11 1
    24   11   12 am
    25   11   14 am
    26   12   13 2
    27   14   15 2
    28   14   16 am
    29   16   17 1
    30   16   38 1
    31   17   25 1
    32   17   18 1
    33   17   39 1
    34   18   19 1
    35   18   40 1
    36   18   41 1
    37   19   20 1
    38   19   21 1
    39   19   51 1
    40   21   22 1
    41   21   42 1
    42   21   43 1
    43   22   23 1
    44   22   44 1
    45   22   45 1
    46   23   24 1
    47   23   25 1
    48   23   51 1
    49   25   46 1
    50   25   47 1
    51   26   48 1
    52   26   49 1
    53   26   50 1
    54   26   51 1
    55   51   52 1
@<TRIPOS>MOLECULE
ZINC20621755
   54    56     0     0     0
SMALL
USER_CHARGES
4-amino-5-chloro-2-ethoxy-N-[[(2R)-4-[(4-fluorophenyl)methyl]morpholin-2-yl]methyl]benzamide
@<TRIPOS>ATOM
      1 C1          1.1041   -2.1548   -0.0201 C.3       1 <0>        -0.1531
      2 C2          1.2839   -0.6354   -0.0136 C.3       1 <0>         0.0460
      3 O1          0.0021   -0.0041    0.0020 O.3       1 <0>        -0.2733
      4 C3         -0.0163    1.3526    0.0095 C.ar      1 <0>         0.2457
      5 C4          1.1707    2.0642    0.0020 C.ar      1 <0>        -0.3046
      6 C5          1.1456    3.4529    0.0097 C.ar      1 <0>         0.3061
      7 C6         -0.0719    4.1330    0.0250 C.ar      1 <0>        -0.1646
      8 C7         -1.2486    3.4404    0.0330 C.ar      1 <0>         0.0139
      9 C8         -1.2392    2.0412    0.0190 C.ar      1 <0>        -0.2290
     10 C9         -2.5077    1.2939    0.0209 C.2       1 <0>         0.5707
     11 O2         -2.4970    0.0777    0.0143 O.2       1 <0>        -0.5286
     12 N1         -3.6807    1.9576    0.0301 N.am      1 <0>        -0.7381
     13 C10        -4.9430    1.2140    0.0320 C.3       1 <0>         0.1361
     14 C11        -6.1145    2.1980    0.0429 C.3       1 <0>         0.0844
     15 H1         -6.0053    2.9349    0.8523 H         1 <0>         0.0760
     16 C12        -7.4303    1.4249    0.1653 C.3       1 <0>         0.0261
     17 N2         -8.5553    2.3689    0.0976 N.3       1 <0>        -0.5294
     18 C13        -8.5285    3.1217   -1.1648 C.3       1 <0>         0.0102
     19 C14        -7.2017    3.8777   -1.2739 C.3       1 <0>         0.0639
     20 O3         -6.1195    2.9480   -1.1748 O.3       1 <0>        -0.3813
     21 C15        -9.8376    1.6727    0.2683 C.3       1 <0>         0.0926
     22 C16       -10.9414    2.6857    0.4315 C.ar      1 <0>        -0.0908
     23 C17       -11.2866    3.1338    1.6929 C.ar      1 <0>        -0.0678
     24 C18       -12.2949    4.0670    1.8432 C.ar      1 <0>        -0.1535
     25 C19       -12.9671    4.5443    0.7309 C.ar      1 <0>         0.0997
     26 C20       -12.6242    4.0905   -0.5315 C.ar      1 <0>        -0.1538
     27 C21       -11.6116    3.1619   -0.6799 C.ar      1 <0>        -0.0858
     28 F1        -13.9572    5.4518    0.8772 F         1 <0>        -0.1393
     29 Cl1        -0.0915    5.8689    0.0346 Cl        1 <0>        -0.0693
     30 N3          2.3390    4.1679    0.0026 N.pl3     1 <0>        -0.8782
     31 H2          2.0909   -2.6407   -0.0321 H         1 <0>         0.0785
     32 H3          0.5375   -2.4531   -0.9145 H         1 <0>         0.0688
     33 H4          0.5546   -2.4628    0.8817 H         1 <0>         0.0688
     34 H5          1.8505   -0.3371    0.8808 H         1 <0>         0.0639
     35 H6          1.8334   -0.3273   -0.9153 H         1 <0>         0.0638
     36 H7          2.1152    1.5405   -0.0103 H         1 <0>         0.1398
     37 H8         -2.1879    3.9732    0.0452 H         1 <0>         0.1391
     38 H9         -3.6903    3.0575    0.0362 H         1 <0>         0.4183
     39 H10        -5.0000    0.5860   -0.8693 H         1 <0>         0.0752
     40 H11        -4.9915    0.5762    0.9269 H         1 <0>         0.0830
     41 H12        -7.5075    0.6998   -0.6582 H         1 <0>         0.0511
     42 H13        -7.4541    0.8914    1.1270 H         1 <0>         0.0928
     43 H14        -8.6258    2.4242   -2.0098 H         1 <0>         0.0453
     44 H15        -9.3633    3.8378   -1.1825 H         1 <0>         0.0915
     45 H16        -7.1541    4.3969   -2.2425 H         1 <0>         0.1014
     46 H17        -7.1310    4.6138   -0.4595 H         1 <0>         0.0613
     47 H18       -10.0381    1.0513   -0.6170 H         1 <0>         0.0494
     48 H19        -9.7916    1.0333    1.1622 H         1 <0>         0.0905
     49 H20       -10.7656    2.7575    2.5608 H         1 <0>         0.1341
     50 H21       -12.5612    4.4205    2.8283 H         1 <0>         0.1364
     51 H22       -13.1482    4.4619   -1.3998 H         1 <0>         0.1358
     52 H23       -11.3440    2.8078   -1.6645 H         1 <0>         0.1295
     53 H24         2.3213    5.2677    0.0087 H         1 <0>         0.4256
     54 H25         3.3003    3.6334   -0.0091 H         1 <0>         0.4253
@<TRIPOS>BOND
     1    1    2 1
     2    1   31 1
     3    1   32 1
     4    1   33 1
     5    2    3 1
     6    2   34 1
     7    2   35 1
     8    3    4 1
     9    4    9 ar
    10    4    5 ar
    11    5    6 ar
    12    5   36 1
    13    6    7 ar
    14    6   30 1
    15    7    8 ar
    16    7   29 1
    17    8    9 ar
    18    8   37 1
    19    9   10 1
    20   10   11 2
    21   10   12 am
    22   12   13 1
    23   12   38 1
    24   13   14 1
    25   13   39 1
    26   13   40 1
    27   14   15 1
    28   14   20 1
    29   14   16 1
    30   16   17 1
    31   16   41 1
    32   16   42 1
    33   17   18 1
    34   17   21 1
    35   18   19 1
    36   18   43 1
    37   18   44 1
    38   19   20 1
    39   19   45 1
    40   19   46 1
    41   21   22 1
    42   21   47 1
    43   21   48 1
    44   22   27 ar
    45   22   23 ar
    46   23   24 ar
    47   23   49 1
    48   24   25 ar
    49   24   50 1
    50   25   26 ar
    51   25   28 1
    52   26   27 ar
    53   26   51 1
    54   27   52 1
    55   30   53 1
    56   30   54 1
@<TRIPOS>MOLECULE
ZINC20621758
   54    56     0     0     0
SMALL
USER_CHARGES

@<TRIPOS>ATOM
      1 C1         -0.0187    1.5258    0.0104 C.3       1 <0>        -0.1512
      2 C2          0.0021   -0.0041    0.0020 C.3       1 <0>         0.0468
      3 O1         -1.3386   -0.4987    0.0122 O.3       1 <0>        -0.2726
      4 C3         -1.4981   -1.8460    0.0064 C.ar      1 <0>         0.2457
      5 C4         -0.3915   -2.6773   -0.0028 C.ar      1 <0>        -0.2977
      6 C5         -0.5610   -4.0558   -0.0081 C.ar      1 <0>         0.2965
      7 C6         -1.8428   -4.6056   -0.0047 C.ar      1 <0>        -0.1588
      8 C7         -2.9410   -3.7943    0.0040 C.ar      1 <0>         0.0123
      9 C8         -2.7859   -2.4037    0.0158 C.ar      1 <0>        -0.2248
     10 C9         -3.9697   -1.5286    0.0317 C.2       1 <0>         0.5696
     11 O2         -3.8325   -0.3201    0.0369 O.2       1 <0>        -0.5230
     12 N1         -5.2054   -2.0666    0.0406 N.am      1 <0>        -0.7269
     13 C10        -6.3834   -1.1958    0.0566 C.3       1 <0>         0.1331
     14 C11        -7.6509   -2.0526    0.0641 C.3       1 <0>         0.0825
     15 H1         -7.6563   -2.6868    0.9506 H         1 <0>         0.0764
     16 C12        -8.8825   -1.1433    0.0785 C.3       1 <0>         0.0261
     17 N2        -10.0963   -1.9698    0.0078 N.3       1 <0>        -0.5305
     18 C13       -10.0939   -2.7959   -1.2083 C.3       1 <0>         0.0116
     19 C14        -8.8501   -3.6886   -1.2098 C.3       1 <0>         0.0650
     20 O3         -7.6813   -2.8707   -1.1086 O.3       1 <0>        -0.3769
     21 C15       -11.3047   -1.1373    0.0763 C.3       1 <0>         0.0945
     22 C16       -12.5138   -2.0203    0.2485 C.ar      1 <0>        -0.0915
     23 C17       -13.1815   -2.5014   -0.8623 C.ar      1 <0>        -0.0856
     24 C18       -14.2901   -3.3115   -0.7057 C.ar      1 <0>        -0.1538
     25 C19       -14.7320   -3.6413    0.5644 C.ar      1 <0>         0.0999
     26 C20       -14.0625   -3.1588    1.6762 C.ar      1 <0>        -0.1536
     27 C21       -12.9510   -2.3531    1.5170 C.ar      1 <0>        -0.0675
     28 F1        -15.8160   -4.4328    0.7187 F         1 <0>        -0.1392
     29 Cl1        -2.0429   -6.3300   -0.0120 Cl        1 <0>        -0.0668
     30 N3          0.5515   -4.8911   -0.0174 N.pl3     1 <0>        -0.8555
     31 H2          1.0039    1.9031    0.0027 H         1 <0>         0.0781
     32 H3         -0.5459    1.8868   -0.8726 H         1 <0>         0.0684
     33 H4         -0.5289    1.8773    0.9072 H         1 <0>         0.0684
     34 H5          0.5123   -0.3556   -0.8948 H         1 <0>         0.0640
     35 H6          0.5293   -0.3651    0.8851 H         1 <0>         0.0640
     36 H7          0.6024   -2.2546   -0.0062 H         1 <0>         0.1423
     37 H8         -3.9307   -4.2266    0.0059 H         1 <0>         0.1411
     38 H9         -5.3148   -3.0304    0.0365 H         1 <0>         0.4007
     39 H10        -6.3616   -0.5714    0.9497 H         1 <0>         0.0849
     40 H11        -6.3786   -0.5618   -0.8301 H         1 <0>         0.0758
     41 H12        -8.8930   -0.5592    0.9988 H         1 <0>         0.0922
     42 H13        -8.8491   -0.4716   -0.7793 H         1 <0>         0.0503
     43 H14       -10.9886   -3.4181   -1.2273 H         1 <0>         0.0910
     44 H15       -10.0798   -2.1506   -2.0866 H         1 <0>         0.0456
     45 H16        -8.8908   -4.3709   -0.3608 H         1 <0>         0.0613
     46 H17        -8.8144   -4.2614   -2.1365 H         1 <0>         0.1010
     47 H18       -11.2289   -0.4558    0.9236 H         1 <0>         0.0896
     48 H19       -11.4027   -0.5626   -0.8446 H         1 <0>         0.0492
     49 H20       -12.8368   -2.2437   -1.8529 H         1 <0>         0.1295
     50 H21       -14.8118   -3.6870   -1.5736 H         1 <0>         0.1358
     51 H22       -14.4065   -3.4151    2.6673 H         1 <0>         0.1365
     52 H23       -12.4260   -1.9803    2.3841 H         1 <0>         0.1342
     53 H24         1.4437   -4.5105   -0.0201 H         1 <0>         0.4058
     54 H25         0.4350   -5.8541   -0.0211 H         1 <0>         0.4064
@<TRIPOS>BOND
     1    1    2 1
     2    1   31 1
     3    1   32 1
     4    1   33 1
     5    2    3 1
     6    2   34 1
     7    2   35 1
     8    3    4 1
     9    4    9 ar
    10    4    5 ar
    11    5    6 ar
    12    5   36 1
    13    6    7 ar
    14    6   30 1
    15    7    8 ar
    16    7   29 1
    17    8    9 ar
    18    8   37 1
    19    9   10 1
    20   10   11 2
    21   10   12 am
    22   12   13 1
    23   12   38 1
    24   13   14 1
    25   13   39 1
    26   13   40 1
    27   14   15 1
    28   14   20 1
    29   14   16 1
    30   16   17 1
    31   16   41 1
    32   16   42 1
    33   17   18 1
    34   17   21 1
    35   18   19 1
    36   18   43 1
    37   18   44 1
    38   19   20 1
    39   19   45 1
    40   19   46 1
    41   21   22 1
    42   21   47 1
    43   21   48 1
    44   22   27 ar
    45   22   23 ar
    46   23   24 ar
    47   23   49 1
    48   24   25 ar
    49   24   50 1
    50   25   26 ar
    51   25   28 1
    52   26   27 ar
    53   26   51 1
    54   27   52 1
    55   30   53 1
    56   30   54 1
@<TRIPOS>MOLECULE
ZINC00004620
   49    52     0     0     0
SMALL
USER_CHARGES
3-ethyl-N,N-bis(3-ethyl-2-oxo-benzoimidazol-7a-yl)-2-oxo-benzoimidazole-1-carboxamide
@<TRIPOS>ATOM
      1 C1          4.0876    3.7970   -1.4592 C.3       1 <0>        -0.1731
      2 C2          3.5992    3.8794   -0.0116 C.3       1 <0>         0.1220
      3 N1          2.1569    4.1362    0.0032 N.am      1 <0>        -0.5272
      4 C3          1.1565    3.1662    0.0080 C.ar      1 <0>         0.1049
      5 C4          1.1757    1.7798    0.0004 C.ar      1 <0>        -0.1065
      6 C5         -0.0126    1.0758    0.0080 C.ar      1 <0>        -0.0863
      7 C6         -1.2222    1.7487    0.0174 C.ar      1 <0>        -0.1115
      8 C7         -1.2507    3.1297    0.0308 C.ar      1 <0>        -0.0724
      9 C8         -0.0634    3.8444    0.0233 C.ar      1 <0>         0.0723
     10 N2          0.2343    5.2085    0.0273 N.am      1 <0>        -0.5064
     11 C9          1.5733    5.3493    0.0151 C.2       1 <0>         0.6885
     12 O1          2.1657    6.4115    0.0141 O.2       1 <0>        -0.5412
     13 C10        -0.6648    6.2124    0.0412 C.2       1 <0>         0.7302
     14 O2         -1.8542    5.9629    0.0515 O.2       1 <0>        -0.5383
     15 N3         -0.2449    7.4931    0.0436 N.am      1 <0>        -0.7234
     16 C11        -1.2222    8.5844    0.0586 C.3       1 <0>         0.1468
     17 C12        -1.6747    8.8827   -1.3736 C.3       1 <0>        -0.1622
     18 C13        -2.5834   10.1224   -1.3604 C.3       1 <0>         0.0377
     19 H1         -3.0531   10.3081   -2.3263 H         1 <0>         0.1595
     20 C14        -3.6226    9.9349   -0.2312 C.3       1 <0>        -0.1473
     21 C15        -2.9490   10.5207    1.0271 C.3       1 <0>        -0.1458
     22 C16        -1.5640   11.0091    0.5439 C.3       1 <0>         0.0381
     23 H2         -1.2182   11.8925    1.0807 H         1 <0>         0.1616
     24 C17        -0.5811    9.8339    0.6691 C.3       1 <0>        -0.1559
     25 C18        -2.4558   12.5439   -1.1247 C.3       1 <0>        -0.0370
     26 H3          3.8811    4.7394   -1.9666 H         1 <0>         0.0616
     27 H4          5.1607    3.6060   -1.4703 H         1 <0>         0.0833
     28 H5          3.5691    2.9870   -1.9721 H         1 <0>         0.0644
     29 H6          4.1177    4.6895    0.5012 H         1 <0>         0.0991
     30 H7          3.8057    2.9371    0.4957 H         1 <0>         0.0988
     31 H8          2.1177    1.2516   -0.0118 H         1 <0>         0.1385
     32 H9          0.0021   -0.0041    0.0020 H         1 <0>         0.1426
     33 H10        -2.1475    1.1917    0.0184 H         1 <0>         0.1419
     34 H11        -2.1963    3.6514    0.0430 H         1 <0>         0.1453
     35 H12         0.7044    7.6923    0.0354 H         1 <0>         0.4210
     36 H13        -2.0848    8.2904    0.6567 H         1 <0>         0.1137
     37 H14        -0.8031    9.0756   -1.9991 H         1 <0>         0.0929
     38 H15        -2.2270    8.0294   -1.7672 H         1 <0>         0.1185
     39 H16        -4.5365   10.4824   -0.4620 H         1 <0>         0.1017
     40 H17        -3.8397    8.8764   -0.0874 H         1 <0>         0.1156
     41 H18        -2.8348    9.7503    1.7897 H         1 <0>         0.1123
     42 H19        -3.5317   11.3562    1.4151 H         1 <0>         0.1025
     43 H20        -0.3596    9.6537    1.7211 H         1 <0>         0.1210
     44 H21         0.3396   10.0696    0.1355 H         1 <0>         0.0979
     45 H22        -1.8716   13.3583   -0.6963 H         1 <0>         0.1239
     46 H23        -2.5823   12.7110   -2.1944 H         1 <0>         0.1249
     47 H24        -3.4337   12.5066   -0.6447 H         1 <0>         0.1189
     48 N4         -1.7611   11.2378   -0.8832 N.4       1 <0>        -0.3950
     49 H25        -0.8559   11.2425   -1.3678 H         1 <0>         0.4274
@<TRIPOS>BOND
     1    1    2 1
     2    1   26 1
     3    1   27 1
     4    1   28 1
     5    2    3 1
     6    2   29 1
     7    2   30 1
     8    3   11 am
     9    3    4 1
    10    4    9 ar
    11    4    5 ar
    12    5    6 ar
    13    5   31 1
    14    6    7 ar
    15    6   32 1
    16    7    8 ar
    17    7   33 1
    18    8    9 ar
    19    8   34 1
    20    9   10 1
    21   10   11 am
    22   10   13 am
    23   11   12 2
    24   13   14 2
    25   13   15 am
    26   15   16 1
    27   15   35 1
    28   16   24 1
    29   16   17 1
    30   16   36 1
    31   17   18 1
    32   17   37 1
    33   17   38 1
    34   18   19 1
    35   18   20 1
    36   18   48 1
    37   20   21 1
    38   20   39 1
    39   20   40 1
    40   21   22 1
    41   21   41 1
    42   21   42 1
    43   22   23 1
    44   22   24 1
    45   22   48 1
    46   24   43 1
    47   24   44 1
    48   25   45 1
    49   25   46 1
    50   25   47 1
    51   25   48 1
    52   48   49 1
@<TRIPOS>MOLECULE
ZINC01536586
   54    56     0     0     0
SMALL
USER_CHARGES

@<TRIPOS>ATOM
      1 C1         -0.0187    1.5258    0.0104 C.3       1 <0>        -0.1591
      2 C2          0.0021   -0.0041    0.0020 C.3       1 <0>        -0.1213
      3 C3          0.7421   -0.5109    1.2415 C.3       1 <0>        -0.1500
      4 C4          0.7628   -2.0407    1.2331 C.3       1 <0>        -0.0104
      5 N1          1.4733   -2.5274    2.4232 N.4       1 <0>        -0.3848
      6 C5          0.7250   -2.1474    3.6275 C.3       1 <0>        -0.0078
      7 C6          1.5012   -2.5809    4.8729 C.3       1 <0>        -0.1413
      8 C7          1.6912   -4.1002    4.8462 C.3       1 <0>        -0.0992
      9 C8          2.4069   -4.4926    3.5505 C.3       1 <0>        -0.1431
     10 C9          1.5971   -3.9883    2.3540 C.3       1 <0>        -0.0058
     11 C10         2.5348   -4.5315    6.0475 C.3       1 <0>         0.0709
     12 O1          2.6139   -5.9578    6.0866 O.3       1 <0>        -0.3549
     13 C11         3.3267   -6.5039    7.0920 C.2       1 <0>         0.5217
     14 O2          3.8663   -5.7882    7.9130 O.2       1 <0>        -0.4837
     15 C12         3.4514   -7.9657    7.1955 C.ar      1 <0>        -0.1897
     16 C13         2.8354   -8.7911    6.2475 C.ar      1 <0>         0.0093
     17 C14         2.9526  -10.1582    6.3465 C.ar      1 <0>        -0.1412
     18 C15         3.6824  -10.7258    7.3888 C.ar      1 <0>         0.2887
     19 C16         4.2994   -9.9140    8.3386 C.ar      1 <0>        -0.0401
     20 C17         4.1938   -8.5363    8.2425 C.ar      1 <0>         0.1746
     21 O3          4.7988   -7.7254    9.1493 O.3       1 <0>        -0.2714
     22 C18         5.2105   -8.3291   10.3805 C.3       1 <0>         0.0140
     23 C19         5.9283   -9.6456   10.0530 C.3       1 <0>         0.0220
     24 O4          5.0046  -10.4904    9.3521 O.3       1 <0>        -0.3029
     25 N2          3.7954  -12.1119    7.4822 N.pl3     1 <0>        -0.8401
     26 Cl1         2.1890  -11.1795    5.1686 Cl        1 <0>        -0.0485
     27 H1          1.0039    1.9031    0.0027 H         1 <0>         0.0593
     28 H2         -0.5459    1.8868   -0.8726 H         1 <0>         0.0669
     29 H3         -0.5289    1.8773    0.9072 H         1 <0>         0.0589
     30 H4         -1.0205   -0.3814    0.0098 H         1 <0>         0.0730
     31 H5          0.5123   -0.3556   -0.8948 H         1 <0>         0.0733
     32 H6          1.7647   -0.1336    1.2338 H         1 <0>         0.0863
     33 H7          0.2319   -0.1594    2.1383 H         1 <0>         0.0866
     34 H8         -0.2598   -2.4180    1.2409 H         1 <0>         0.1295
     35 H9          1.2730   -2.3923    0.3363 H         1 <0>         0.1310
     36 H10         0.5878   -1.0662    3.6434 H         1 <0>         0.1345
     37 H11        -0.2492   -2.6363    3.6186 H         1 <0>         0.1308
     38 H12         2.4756   -2.0923    4.8828 H         1 <0>         0.0926
     39 H13         0.9431   -2.2994    5.7659 H         1 <0>         0.1169
     40 H14         0.7183   -4.5900    4.8879 H         1 <0>         0.1027
     41 H15         3.4001   -4.0438    3.5330 H         1 <0>         0.0892
     42 H16         2.4962   -5.5777    3.4982 H         1 <0>         0.1208
     43 H17         0.6044   -4.4379    2.3724 H         1 <0>         0.1301
     44 H18         2.1039   -4.2662    1.4299 H         1 <0>         0.1320
     45 H19         3.5377   -4.1144    5.9558 H         1 <0>         0.0737
     46 H20         2.0727   -4.1679    6.9653 H         1 <0>         0.0780
     47 H21         2.2680   -8.3548    5.4388 H         1 <0>         0.1541
     48 H22         5.8909   -7.6608   10.9082 H         1 <0>         0.1303
     49 H23         4.3374   -8.5309   11.0011 H         1 <0>         0.0855
     50 H24         6.7994   -9.4442    9.4295 H         1 <0>         0.0823
     51 H25         6.2410  -10.1335   10.9762 H         1 <0>         0.1296
     52 H26         3.3665  -12.6791    6.8224 H         1 <0>         0.4095
     53 H27         4.3030  -12.5094    8.2069 H         1 <0>         0.4146
     54 H28         2.3932   -2.1141    2.4570 H         1 <0>         0.4224
@<TRIPOS>BOND
     1    1    2 1
     2    1   27 1
     3    1   28 1
     4    1   29 1
     5    2    3 1
     6    2   30 1
     7    2   31 1
     8    3    4 1
     9    3   32 1
    10    3   33 1
    11    4    5 1
    12    4   34 1
    13    4   35 1
    14    5   10 1
    15    5    6 1
    16    5   54 1
    17    6    7 1
    18    6   36 1
    19    6   37 1
    20    7    8 1
    21    7   38 1
    22    7   39 1
    23    8    9 1
    24    8   11 1
    25    8   40 1
    26    9   10 1
    27    9   41 1
    28    9   42 1
    29   10   43 1
    30   10   44 1
    31   11   12 1
    32   11   45 1
    33   11   46 1
    34   12   13 1
    35   13   14 2
    36   13   15 1
    37   15   20 ar
    38   15   16 ar
    39   16   17 ar
    40   16   47 1
    41   17   18 ar
    42   17   26 1
    43   18   19 ar
    44   18   25 1
    45   19   24 1
    46   19   20 ar
    47   20   21 1
    48   21   22 1
    49   22   23 1
    50   22   48 1
    51   22   49 1
    52   23   24 1
    53   23   50 1
    54   23   51 1
    55   25   52 1
    56   25   53 1
@<TRIPOS>MOLECULE
ZINC26403974
   46    47     0     0     0
SMALL
USER_CHARGES

@<TRIPOS>ATOM
      1 C1         -0.0187    1.5258    0.0104 C.3       1 <0>        -0.1575
      2 C2          0.0021   -0.0041    0.0020 C.3       1 <0>        -0.1253
      3 C3          0.7182   -0.4975   -1.2568 C.3       1 <0>        -0.1187
      4 C4          0.7390   -2.0273   -1.2652 C.3       1 <0>        -0.1338
      5 C5          1.4551   -2.5207   -2.5240 C.3       1 <0>         0.0978
      6 N1          1.4750   -3.9856   -2.5321 N.pl3     1 <0>        -0.6975
      7 C6          2.0695   -4.6591   -3.5722 C.cat     1 <0>         0.7568
      8 N2          2.6454   -3.9583   -4.6049 N.pl3     1 <0>        -0.7915
      9 N3          2.0873   -5.9740   -3.5795 N.pl3     1 <0>        -0.5282
     10 N4          2.6934   -6.6605   -4.6398 N.2       1 <0>        -0.3115
     11 C7          2.7111   -7.9660   -4.6469 C.2       1 <0>         0.2473
     12 C8          3.3469   -8.6862   -5.7593 C.2       1 <0>        -0.2004
     13 C9          3.4381  -10.0364   -5.9080 C.2       1 <0>         0.1597
     14 N5          4.0970  -10.3274   -7.0663 N.pl3     1 <0>        -0.5686
     15 H1          4.2841  -11.2231   -7.3881 H         1 <0>         0.4295
     16 C10         4.4591   -9.1637   -7.7149 C.ar      1 <0>         0.0493
     17 C11         4.0046   -8.0877   -6.9349 C.ar      1 <0>        -0.0312
     18 C12         4.2280   -6.7778   -7.3533 C.ar      1 <0>        -0.1180
     19 C13         4.8958   -6.5440   -8.5404 C.ar      1 <0>         0.1215
     20 C14         5.3429   -7.6111   -9.3140 C.ar      1 <0>        -0.1781
     21 C15         5.1332   -8.9095   -8.9049 C.ar      1 <0>        -0.0711
     22 O1          5.1163   -5.2676   -8.9542 O.3       1 <0>        -0.3179
     23 C16         5.8126   -5.0975  -10.1905 C.3       1 <0>         0.0245
     24 H2          1.0039    1.9031    0.0027 H         1 <0>         0.0561
     25 H3         -0.5459    1.8868   -0.8726 H         1 <0>         0.0561
     26 H4         -0.5289    1.8773    0.9072 H         1 <0>         0.0592
     27 H5          0.5293   -0.3651    0.8851 H         1 <0>         0.0642
     28 H6         -1.0205   -0.3814    0.0098 H         1 <0>         0.0642
     29 H7          0.1910   -0.1364   -2.1398 H         1 <0>         0.0705
     30 H8          1.7408   -0.1202   -1.2645 H         1 <0>         0.0705
     31 H9          1.2661   -2.3884   -0.3821 H         1 <0>         0.0802
     32 H10        -0.2836   -2.4046   -1.2575 H         1 <0>         0.0802
     33 H11         0.9279   -2.1597   -3.4071 H         1 <0>         0.0912
     34 H12         2.4777   -2.1435   -2.5317 H         1 <0>         0.0912
     35 H13         1.0685   -4.4802   -1.8033 H         1 <0>         0.4324
     36 H14         2.6323   -2.9884   -4.5995 H         1 <0>         0.4326
     37 H15         2.2586   -8.5166   -3.8355 H         1 <0>         0.1409
     38 H16         3.0483  -10.7664   -5.2140 H         1 <0>         0.1910
     39 H17         3.8809   -5.9495   -6.7534 H         1 <0>         0.1297
     40 H18         5.8639   -7.4193  -10.2404 H         1 <0>         0.1394
     41 H19         5.4827   -9.7304   -9.5135 H         1 <0>         0.1328
     42 H20         5.2486   -5.5723  -10.9934 H         1 <0>         0.0588
     43 H21         5.9215   -4.0339  -10.4027 H         1 <0>         0.1043
     44 H22         6.7986   -5.5564  -10.1183 H         1 <0>         0.0588
     45 H23         3.0650   -4.4336   -5.3390 H         1 <0>         0.4438
     46 H24         1.6809   -6.4686   -2.8507 H         1 <0>         0.4146
@<TRIPOS>BOND
     1    1    2 1
     2    1   24 1
     3    1   25 1
     4    1   26 1
     5    2    3 1
     6    2   27 1
     7    2   28 1
     8    3    4 1
     9    3   29 1
    10    3   30 1
    11    4    5 1
    12    4   31 1
    13    4   32 1
    14    5    6 1
    15    5   33 1
    16    5   34 1
    17    6    7 1
    18    6   35 1
    19    7    8 1
    20    7    9 2
    21    8   36 1
    22    8   45 1
    23    9   10 1
    24    9   46 1
    25   10   11 2
    26   11   12 1
    27   11   37 1
    28   12   17 1
    29   12   13 2
    30   13   14 1
    31   13   38 1
    32   14   15 1
    33   14   16 1
    34   16   21 ar
    35   16   17 ar
    36   17   18 ar
    37   18   19 ar
    38   18   39 1
    39   19   20 ar
    40   19   22 1
    41   20   21 ar
    42   20   40 1
    43   21   41 1
    44   22   23 1
    45   23   42 1
    46   23   43 1
    47   23   44 1
@<TRIPOS>MOLECULE
ZINC26403974
   45    46     0     0     0
SMALL
USER_CHARGES

@<TRIPOS>ATOM
      1 C1         -0.0187    1.5258    0.0104 C.3       1 <0>        -0.1541
      2 C2          0.0021   -0.0041    0.0020 C.3       1 <0>        -0.1250
      3 C3          0.7182   -0.4975   -1.2568 C.3       1 <0>        -0.1160
      4 C4          0.7390   -2.0273   -1.2652 C.3       1 <0>        -0.1304
      5 C5          1.4551   -2.5207   -2.5240 C.3       1 <0>         0.1085
      6 N1          1.4750   -3.9856   -2.5321 N.pl3     1 <0>        -0.7457
      7 C6          2.0695   -4.6591   -3.5722 C.2       1 <0>         0.6489
      8 N2          2.6454   -3.9583   -4.6049 N.pl3     1 <0>        -0.8402
      9 N3          2.0873   -5.9740   -3.5795 N.2       1 <0>        -0.5309
     10 N4          1.5003   -6.6883   -2.5269 N.2       1 <0>        -0.3423
     11 C7          1.5180   -7.9938   -2.5341 C.2       1 <0>         0.1791
     12 C8          0.9022   -8.7431   -1.4298 C.2       1 <0>        -0.1420
     13 C9          0.8476  -10.0969   -1.2960 C.2       1 <0>         0.0958
     14 N5          0.1970  -10.4184   -0.1410 N.pl3     1 <0>        -0.5870
     15 H1          0.0343  -11.3223    0.1709 H         1 <0>         0.4189
     16 C10        -0.1965   -9.2721    0.5202 C.ar      1 <0>         0.0576
     17 C11         0.2286   -8.1757   -0.2478 C.ar      1 <0>        -0.0405
     18 C12        -0.0301   -6.8770    0.1850 C.ar      1 <0>        -0.0969
     19 C13        -0.7039   -6.6745    1.3745 C.ar      1 <0>         0.0973
     20 C14        -1.1218   -7.7617    2.1362 C.ar      1 <0>        -0.1799
     21 C15        -0.8770   -9.0494    1.7129 C.ar      1 <0>        -0.0901
     22 O1         -0.9589   -5.4091    1.8022 O.3       1 <0>        -0.3187
     23 C16        -1.6593   -5.2716    3.0402 C.3       1 <0>         0.0285
     24 H2          1.0039    1.9031    0.0027 H         1 <0>         0.0537
     25 H3         -0.5459    1.8868   -0.8726 H         1 <0>         0.0537
     26 H4         -0.5289    1.8773    0.9072 H         1 <0>         0.0543
     27 H5          0.5293   -0.3651    0.8851 H         1 <0>         0.0624
     28 H6         -1.0205   -0.3814    0.0098 H         1 <0>         0.0624
     29 H7          0.1910   -0.1364   -2.1398 H         1 <0>         0.0643
     30 H8          1.7408   -0.1202   -1.2645 H         1 <0>         0.0643
     31 H9          1.2661   -2.3884   -0.3821 H         1 <0>         0.0717
     32 H10        -0.2836   -2.4046   -1.2575 H         1 <0>         0.0717
     33 H11         0.9279   -2.1597   -3.4071 H         1 <0>         0.0612
     34 H12         2.4777   -2.1435   -2.5317 H         1 <0>         0.0612
     35 H13         2.6323   -2.9884   -4.5995 H         1 <0>         0.4073
     36 H14         3.0650   -4.4336   -5.3390 H         1 <0>         0.4183
     37 H15         1.9852   -8.5230   -3.3514 H         1 <0>         0.1060
     38 H16         1.2569  -10.8083   -1.9979 H         1 <0>         0.1800
     39 H17         0.2943   -6.0330   -0.4057 H         1 <0>         0.1331
     40 H18        -1.6477   -7.5943    3.0646 H         1 <0>         0.1307
     41 H19        -1.2040   -9.8862    2.3123 H         1 <0>         0.1237
     42 H20        -1.7970   -4.2137    3.2641 H         1 <0>         0.0977
     43 H21        -2.6325   -5.7563    2.9629 H         1 <0>         0.0534
     44 H22        -1.0826   -5.7397    3.8379 H         1 <0>         0.0534
     45 H23         1.0685   -4.4802   -1.8033 H         1 <0>         0.4208
@<TRIPOS>BOND
     1    1    2 1
     2    1   24 1
     3    1   25 1
     4    1   26 1
     5    2    3 1
     6    2   27 1
     7    2   28 1
     8    3    4 1
     9    3   29 1
    10    3   30 1
    11    4    5 1
    12    4   31 1
    13    4   32 1
    14    5    6 1
    15    5   33 1
    16    5   34 1
    17    6    7 1
    18    6   45 1
    19    7    8 1
    20    7    9 2
    21    8   35 1
    22    8   36 1
    23    9   10 1
    24   10   11 2
    25   11   12 1
    26   11   37 1
    27   12   17 1
    28   12   13 2
    29   13   14 1
    30   13   38 1
    31   14   15 1
    32   14   16 1
    33   16   21 ar
    34   16   17 ar
    35   17   18 ar
    36   18   19 ar
    37   18   39 1
    38   19   20 ar
    39   19   22 1
    40   20   21 ar
    41   20   40 1
    42   21   41 1
    43   22   23 1
    44   23   42 1
    45   23   43 1
    46   23   44 1
@<TRIPOS>MOLECULE
ZINC26403974
   45    46     0     0     0
SMALL
USER_CHARGES

@<TRIPOS>ATOM
      1 C1         -0.0187    1.5258    0.0104 C.3       1 <0>        -0.1548
      2 C2          0.0021   -0.0041    0.0020 C.3       1 <0>        -0.1251
      3 C3          0.7182   -0.4975   -1.2568 C.3       1 <0>        -0.1174
      4 C4          0.7390   -2.0273   -1.2652 C.3       1 <0>        -0.1303
      5 C5          1.4551   -2.5207   -2.5240 C.3       1 <0>         0.1201
      6 N1          1.4750   -3.9856   -2.5321 N.pl3     1 <0>        -0.7187
      7 C6          2.0695   -4.6591   -3.5722 C.2       1 <0>         0.6493
      8 N2          2.6454   -3.9583   -4.6049 N.pl3     1 <0>        -0.8712
      9 N3          2.0873   -5.9740   -3.5795 N.2       1 <0>        -0.5316
     10 N4          2.6934   -6.6605   -4.6398 N.2       1 <0>        -0.3421
     11 C7          2.7111   -7.9660   -4.6469 C.2       1 <0>         0.1787
     12 C8          3.3469   -8.6862   -5.7593 C.2       1 <0>        -0.1419
     13 C9          3.4381  -10.0364   -5.9080 C.2       1 <0>         0.0956
     14 N5          4.0970  -10.3274   -7.0663 N.pl3     1 <0>        -0.5870
     15 H1          4.2841  -11.2231   -7.3881 H         1 <0>         0.4189
     16 C10         4.4591   -9.1637   -7.7149 C.ar      1 <0>         0.0576
     17 C11         4.0046   -8.0877   -6.9349 C.ar      1 <0>        -0.0406
     18 C12         4.2280   -6.7778   -7.3533 C.ar      1 <0>        -0.0973
     19 C13         4.8958   -6.5440   -8.5404 C.ar      1 <0>         0.0969
     20 C14         5.3429   -7.6111   -9.3140 C.ar      1 <0>        -0.1799
     21 C15         5.1332   -8.9095   -8.9049 C.ar      1 <0>        -0.0902
     22 O1          5.1163   -5.2676   -8.9542 O.3       1 <0>        -0.3194
     23 C16         5.8126   -5.0975  -10.1905 C.3       1 <0>         0.0285
     24 H2          1.0039    1.9031    0.0027 H         1 <0>         0.0543
     25 H3         -0.5459    1.8868   -0.8726 H         1 <0>         0.0543
     26 H4         -0.5289    1.8773    0.9072 H         1 <0>         0.0549
     27 H5          0.5293   -0.3651    0.8851 H         1 <0>         0.0624
     28 H6         -1.0205   -0.3814    0.0098 H         1 <0>         0.0624
     29 H7          0.1910   -0.1364   -2.1398 H         1 <0>         0.0658
     30 H8          1.7408   -0.1202   -1.2645 H         1 <0>         0.0658
     31 H9          1.2661   -2.3884   -0.3821 H         1 <0>         0.0729
     32 H10        -0.2836   -2.4046   -1.2575 H         1 <0>         0.0728
     33 H11         0.9279   -2.1597   -3.4071 H         1 <0>         0.0643
     34 H12         2.4777   -2.1435   -2.5317 H         1 <0>         0.0643
     35 H13         1.0685   -4.4802   -1.8033 H         1 <0>         0.4183
     36 H14         2.6323   -2.9884   -4.5995 H         1 <0>         0.3901
     37 H15         2.2586   -8.5166   -3.8355 H         1 <0>         0.1059
     38 H16         3.0483  -10.7664   -5.2140 H         1 <0>         0.1800
     39 H17         3.8809   -5.9495   -6.7534 H         1 <0>         0.1340
     40 H18         5.8639   -7.4193  -10.2404 H         1 <0>         0.1308
     41 H19         5.4827   -9.7304   -9.5135 H         1 <0>         0.1238
     42 H20         5.9215   -4.0339  -10.4027 H         1 <0>         0.0979
     43 H21         6.7986   -5.5564  -10.1183 H         1 <0>         0.0536
     44 H22         5.2486   -5.5723  -10.9934 H         1 <0>         0.0536
     45 H23         3.0650   -4.4336   -5.3390 H         1 <0>         0.4199
@<TRIPOS>BOND
     1    1    2 1
     2    1   24 1
     3    1   25 1
     4    1   26 1
     5    2    3 1
     6    2   27 1
     7    2   28 1
     8    3    4 1
     9    3   29 1
    10    3   30 1
    11    4    5 1
    12    4   31 1
    13    4   32 1
    14    5    6 1
    15    5   33 1
    16    5   34 1
    17    6    7 1
    18    6   35 1
    19    7    8 1
    20    7    9 2
    21    8   36 1
    22    8   45 1
    23    9   10 1
    24   10   11 2
    25   11   12 1
    26   11   37 1
    27   12   17 1
    28   12   13 2
    29   13   14 1
    30   13   38 1
    31   14   15 1
    32   14   16 1
    33   16   21 ar
    34   16   17 ar
    35   17   18 ar
    36   18   19 ar
    37   18   39 1
    38   19   20 ar
    39   19   22 1
    40   20   21 ar
    41   20   40 1
    42   21   41 1
    43   22   23 1
    44   23   42 1
    45   23   43 1
    46   23   44 1
@<TRIPOS>MOLECULE
ZINC00057163
   29    30     0     0     0
SMALL
USER_CHARGES

@<TRIPOS>ATOM
      1 C1         -0.0173    1.4248    0.0099 C.3       1 <0>         0.0250
      2 O1          0.0021   -0.0041    0.0020 O.3       1 <0>        -0.3182
      3 C2         -1.2011   -0.6379    0.0101 C.ar      1 <0>         0.1174
      4 C3         -2.3775    0.1074    0.0195 C.ar      1 <0>        -0.1750
      5 C4         -3.6039   -0.5182    0.0273 C.ar      1 <0>        -0.0785
      6 C5         -3.6760   -1.9073    0.0258 C.ar      1 <0>         0.0606
      7 C6         -2.4900   -2.6627    0.0163 C.ar      1 <0>        -0.0596
      8 C7         -1.2514   -2.0173    0.0032 C.ar      1 <0>        -0.1296
      9 C8         -2.9042   -4.0678    0.0173 C.2       1 <0>        -0.2147
     10 C9         -4.2466   -4.0819    0.0268 C.2       1 <0>         0.0953
     11 N1         -4.7264   -2.8008    0.0320 N.pl3     1 <0>        -0.5861
     12 H1         -5.6653   -2.5573    0.0395 H         1 <0>         0.4235
     13 C10        -1.9955   -5.2700    0.0084 C.3       1 <0>        -0.0604
     14 C11        -1.5766   -5.6033    1.4417 C.3       1 <0>        -0.0088
     15 N2         -0.6908   -6.7751    1.4330 N.4       1 <0>        -0.6388
     16 H2          1.0053    1.8021    0.0021 H         1 <0>         0.1046
     17 H3         -0.5445    1.7859   -0.8732 H         1 <0>         0.0583
     18 H4         -0.5275    1.7763    0.9067 H         1 <0>         0.0578
     19 H5         -2.3273    1.1863    0.0211 H         1 <0>         0.1379
     20 H6         -4.5100    0.0696    0.0350 H         1 <0>         0.1299
     21 H7         -0.3384   -2.5942   -0.0083 H         1 <0>         0.1271
     22 H8         -4.8572   -4.9726    0.0298 H         1 <0>         0.1743
     23 H9         -2.5227   -6.1208   -0.4233 H         1 <0>         0.0918
     24 H10        -1.1094   -5.0512   -0.5876 H         1 <0>         0.0925
     25 H11        -1.0494   -4.7525    1.8733 H         1 <0>         0.1338
     26 H12        -2.4627   -5.8220    2.0376 H         1 <0>         0.1327
     27 H13        -1.1788   -7.5627    1.0334 H         1 <0>         0.4342
     28 H14         0.1294   -6.5726    0.8813 H         1 <0>         0.4352
     29 H15        -0.4145   -6.9949    2.3782 H         1 <0>         0.4376
@<TRIPOS>BOND
     1    1    2 1
     2    1   16 1
     3    1   17 1
     4    1   18 1
     5    2    3 1
     6    3    8 ar
     7    3    4 ar
     8    4    5 ar
     9    4   19 1
    10    5    6 ar
    11    5   20 1
    12    6   11 1
    13    6    7 ar
    14    7    8 ar
    15    7    9 1
    16    8   21 1
    17    9   10 2
    18    9   13 1
    19   10   11 1
    20   10   22 1
    21   11   12 1
    22   13   14 1
    23   13   23 1
    24   13   24 1
    25   14   15 1
    26   14   25 1
    27   14   26 1
    28   15   27 1
    29   15   28 1
    30   15   29 1
@<TRIPOS>MOLECULE
ZINC01534779
   46    47     0     0     0
SMALL
USER_CHARGES

@<TRIPOS>ATOM
      1 C1         -0.0173    1.4248    0.0099 C.3       1 <0>         0.0174
      2 O1          0.0021   -0.0041    0.0020 O.3       1 <0>        -0.2801
      3 C2         -1.1982   -0.6364    0.0101 C.ar      1 <0>         0.2521
      4 C3         -2.3710    0.0981    0.0195 C.ar      1 <0>        -0.3004
      5 C4         -3.5971   -0.5548    0.0278 C.ar      1 <0>         0.3115
      6 C5         -3.6506   -1.9487    0.0271 C.ar      1 <0>        -0.1647
      7 C6         -2.4998   -2.6830    0.0183 C.ar      1 <0>         0.0341
      8 C7         -1.2567   -2.0392    0.0031 C.ar      1 <0>        -0.2247
      9 C8         -0.0166   -2.8295   -0.0130 C.2       1 <0>         0.5227
     10 O2          1.0617   -2.2684   -0.0204 O.2       1 <0>        -0.4868
     11 O3         -0.0756   -4.1762   -0.0197 O.3       1 <0>        -0.3550
     12 C9          1.1680   -4.8800   -0.0354 C.3       1 <0>         0.0714
     13 C10         0.9014   -6.3866   -0.0410 C.3       1 <0>        -0.1506
     14 C11         2.2328   -7.1401   -0.0578 C.3       1 <0>        -0.0066
     15 N1          1.9768   -8.5866   -0.0631 N.4       1 <0>        -0.3813
     16 C12         1.3197   -8.9703    1.1921 C.3       1 <0>        -0.0140
     17 C13         0.9777  -10.4614    1.1581 C.3       1 <0>        -0.1457
     18 C14         2.2660  -11.2713    0.9862 C.3       1 <0>        -0.1399
     19 C15         2.9808  -10.8106   -0.2874 C.3       1 <0>        -0.1463
     20 C16         3.2486   -9.3066   -0.1999 C.3       1 <0>        -0.0066
     21 Cl1        -5.1886   -2.7538    0.0381 Cl        1 <0>        -0.0587
     22 N2         -4.7755    0.1839    0.0372 N.pl3     1 <0>        -0.8469
     23 H1          1.0053    1.8021    0.0021 H         1 <0>         0.1088
     24 H2         -0.5445    1.7859   -0.8732 H         1 <0>         0.0626
     25 H3         -0.5275    1.7763    0.9067 H         1 <0>         0.0626
     26 H4         -2.3332    1.1775    0.0208 H         1 <0>         0.1488
     27 H5         -2.5485   -3.7619    0.0182 H         1 <0>         0.1513
     28 H6          1.7287   -4.6070   -0.9294 H         1 <0>         0.0779
     29 H7          1.7458   -4.6165    0.8505 H         1 <0>         0.0776
     30 H8          0.3407   -6.6596    0.8530 H         1 <0>         0.0991
     31 H9          0.3236   -6.6500   -0.9269 H         1 <0>         0.0996
     32 H10         2.7936   -6.8671   -0.9518 H         1 <0>         0.1359
     33 H11         2.8107   -6.8766    0.8281 H         1 <0>         0.1340
     34 H12         1.9898   -8.7707    2.0283 H         1 <0>         0.1294
     35 H13         0.4047   -8.3908    1.3145 H         1 <0>         0.1326
     36 H14         0.4915  -10.7447    2.0916 H         1 <0>         0.1122
     37 H15         0.3073  -10.6621    0.3223 H         1 <0>         0.0879
     38 H16         2.9151  -11.1105    1.8469 H         1 <0>         0.0818
     39 H17         2.0224  -12.3306    0.9046 H         1 <0>         0.0942
     40 H18         3.9264  -11.3435   -0.3871 H         1 <0>         0.1125
     41 H19         2.3520  -11.0186   -1.1532 H         1 <0>         0.0878
     42 H20         3.7576   -8.9753   -1.1050 H         1 <0>         0.1309
     43 H21         3.8776   -9.0998    0.6660 H         1 <0>         0.1290
     44 H22        -4.7403    1.1533    0.0381 H         1 <0>         0.4099
     45 H23        -5.6326   -0.2703    0.0430 H         1 <0>         0.4098
     46 H24         1.3754   -8.8178   -0.8396 H         1 <0>         0.4234
@<TRIPOS>BOND
     1    1    2 1
     2    1   23 1
     3    1   24 1
     4    1   25 1
     5    2    3 1
     6    3    8 ar
     7    3    4 ar
     8    4    5 ar
     9    4   26 1
    10    5    6 ar
    11    5   22 1
    12    6    7 ar
    13    6   21 1
    14    7    8 ar
    15    7   27 1
    16    8    9 1
    17    9   10 2
    18    9   11 1
    19   11   12 1
    20   12   13 1
    21   12   28 1
    22   12   29 1
    23   13   14 1
    24   13   30 1
    25   13   31 1
    26   14   15 1
    27   14   32 1
    28   14   33 1
    29   15   20 1
    30   15   16 1
    31   15   46 1
    32   16   17 1
    33   16   34 1
    34   16   35 1
    35   17   18 1
    36   17   36 1
    37   17   37 1
    38   18   19 1
    39   18   38 1
    40   18   39 1
    41   19   20 1
    42   19   40 1
    43   19   41 1
    44   20   42 1
    45   20   43 1
    46   22   44 1
    47   22   45 1
@<TRIPOS>MOLECULE
ZINC01530716
   43    43     0     0     0
SMALL
USER_CHARGES

@<TRIPOS>ATOM
      1 C1          0.0823    1.4510   -0.2163 C.3       1 <0>        -0.1873
      2 C2          0.0237   -0.0664   -0.0289 C.3       1 <0>        -0.0192
      3 N1         -1.3740   -0.4850    0.1418 N.4       1 <0>        -0.3820
      4 C3         -2.1159   -0.2330   -1.1009 C.3       1 <0>        -0.0140
      5 C4         -3.5996   -0.5332   -0.8788 C.3       1 <0>        -0.1894
      6 C5         -1.4206   -1.9189    0.4577 C.3       1 <0>        -0.0272
      7 C6         -0.7562   -2.1642    1.8139 C.3       1 <0>         0.1000
      8 N2         -0.8026   -3.5942    2.1289 N.am      1 <0>        -0.7385
      9 C7         -0.2733   -4.0476    3.2824 C.2       1 <0>         0.5796
     10 O1          0.2431   -3.2696    4.0619 O.2       1 <0>        -0.5100
     11 C8         -0.3200   -5.4846    3.5990 C.ar      1 <0>        -0.2394
     12 C9         -0.9083   -6.3825    2.7014 C.ar      1 <0>         0.0118
     13 C10        -0.9514   -7.7152    2.9955 C.ar      1 <0>        -0.1594
     14 C11        -0.4107   -8.1907    4.1899 C.ar      1 <0>         0.3057
     15 C12         0.1761   -7.3113    5.0909 C.ar      1 <0>        -0.2971
     16 C13         0.2305   -5.9594    4.7995 C.ar      1 <0>         0.2493
     17 O2          0.8078   -5.0965    5.6730 O.3       1 <0>        -0.2775
     18 C14         1.3467   -5.6527    6.8740 C.3       1 <0>         0.0171
     19 N3         -0.4597   -9.5504    4.4802 N.pl3     1 <0>        -0.8488
     20 Cl1        -1.6834   -8.8231    1.8773 Cl        1 <0>        -0.0598
     21 H1          1.1228    1.7753   -0.2311 H         1 <0>         0.1073
     22 H2         -0.3953    1.7194   -1.1586 H         1 <0>         0.0809
     23 H3         -0.4388    1.9392    0.6072 H         1 <0>         0.0808
     24 H4          0.4455   -0.5574   -0.9059 H         1 <0>         0.1316
     25 H5          0.5971   -0.3457    0.8550 H         1 <0>         0.1339
     26 H6         -1.9958    0.8109   -1.3904 H         1 <0>         0.1348
     27 H7         -1.7294   -0.8761   -1.8915 H         1 <0>         0.1306
     28 H8         -3.7314   -1.6000   -0.6980 H         1 <0>         0.0804
     29 H9         -3.9590    0.0285   -0.0166 H         1 <0>         0.0808
     30 H10        -4.1656   -0.2421   -1.7637 H         1 <0>         0.1072
     31 H11        -2.4588   -2.2488    0.4968 H         1 <0>         0.1395
     32 H12        -0.8905   -2.4782   -0.3132 H         1 <0>         0.1374
     33 H13         0.2820   -1.8343    1.7748 H         1 <0>         0.0888
     34 H14        -1.2864   -1.6049    2.5847 H         1 <0>         0.0887
     35 H15        -1.2144   -4.2146    1.5073 H         1 <0>         0.4036
     36 H16        -1.3292   -6.0208    1.7749 H         1 <0>         0.1376
     37 H17         0.5936   -7.6827    6.0151 H         1 <0>         0.1469
     38 H18         0.5529   -6.1481    7.4331 H         1 <0>         0.0616
     39 H19         2.1212   -6.3775    6.6232 H         1 <0>         0.0615
     40 H20         1.7770   -4.8568    7.4819 H         1 <0>         0.1082
     41 H21        -0.8694  -10.1659    3.8524 H         1 <0>         0.4093
     42 H22        -0.0842   -9.8829    5.3105 H         1 <0>         0.4097
     43 H23        -1.7925    0.0392    0.8955 H         1 <0>         0.4250
@<TRIPOS>BOND
     1    1    2 1
     2    1   21 1
     3    1   22 1
     4    1   23 1
     5    2    3 1
     6    2   24 1
     7    2   25 1
     8    3    4 1
     9    3    6 1
    10    3   43 1
    11    4    5 1
    12    4   26 1
    13    4   27 1
    14    5   28 1
    15    5   29 1
    16    5   30 1
    17    6    7 1
    18    6   31 1
    19    6   32 1
    20    7    8 1
    21    7   33 1
    22    7   34 1
    23    8    9 am
    24    8   35 1
    25    9   10 2
    26    9   11 1
    27   11   16 ar
    28   11   12 ar
    29   12   13 ar
    30   12   36 1
    31   13   14 ar
    32   13   20 1
    33   14   15 ar
    34   14   19 1
    35   15   16 ar
    36   15   37 1
    37   16   17 1
    38   17   18 1
    39   18   38 1
    40   18   39 1
    41   18   40 1
    42   19   41 1
    43   19   42 1
