@<TRIPOS>MOLECULE
ZINC00020245
   46    48     0     0     0
SMALL
USER_CHARGES

@<TRIPOS>ATOM
      1 C1         -5.6836    1.3838    0.0162 C.3       1 <0>        -0.0473
      2 N1         -5.6620   -0.0833   -0.0564 N.4       1 <0>        -0.3868
      3 C2         -6.3713   -0.5242   -1.2649 C.3       1 <0>        -0.0522
      4 C3         -4.2702   -0.5505   -0.1076 C.3       1 <0>        -0.0086
      5 C4         -4.2434   -2.0795   -0.0575 C.3       1 <0>        -0.1781
      6 C5         -2.7938   -2.5661   -0.1108 C.3       1 <0>         0.1490
      7 N2         -2.7704   -4.0309   -0.1190 N.pl3     1 <0>        -0.6108
      8 C6         -2.7295   -4.7451   -1.3212 C.ar      1 <0>         0.1758
      9 C7         -1.6865   -4.4783   -2.2022 C.ar      1 <0>        -0.1411
     10 C8         -1.5734   -5.1772   -3.3856 C.ar      1 <0>        -0.1022
     11 C9         -2.5089   -6.1508   -3.6854 C.ar      1 <0>        -0.1266
     12 C10        -3.5489   -6.4041   -2.8209 C.ar      1 <0>        -0.1101
     13 C11        -3.6933   -5.6947   -1.6266 C.ar      1 <0>        -0.0998
     14 C12        -4.9357   -6.0340   -0.8354 C.3       1 <0>        -0.0687
     15 C13        -5.1005   -5.1892    0.4158 C.3       1 <0>        -0.0773
     16 C14        -3.9592   -5.4030    1.3779 C.ar      1 <0>        -0.0996
     17 C15        -2.7824   -4.7590    1.0748 C.ar      1 <0>         0.1523
     18 C16        -1.6837   -4.8488    1.9126 C.ar      1 <0>        -0.1184
     19 C17        -1.7825   -5.6251    3.0560 C.ar      1 <0>        -0.1094
     20 C18        -2.9565   -6.2950    3.3488 C.ar      1 <0>        -0.1165
     21 C19        -4.0679   -6.1865    2.5030 C.ar      1 <0>        -0.1028
     22 H1         -6.7163    1.7305    0.0542 H         1 <0>         0.1245
     23 H2         -5.1573    1.7109    0.9129 H         1 <0>         0.1235
     24 H3         -5.1933    1.7984   -0.8646 H         1 <0>         0.1221
     25 H4         -6.3552   -1.6128   -1.3188 H         1 <0>         0.1231
     26 H5         -7.4040   -0.1775   -1.2269 H         1 <0>         0.1246
     27 H6         -5.8810   -0.1096   -2.1457 H         1 <0>         0.1227
     28 H7         -3.8061   -0.2091   -1.0329 H         1 <0>         0.1308
     29 H8         -3.7207   -0.1494    0.7440 H         1 <0>         0.1320
     30 H9         -4.7075   -2.4209    0.8678 H         1 <0>         0.0908
     31 H10        -4.7929   -2.4806   -0.9091 H         1 <0>         0.0915
     32 H11        -2.3174   -2.1901   -1.0161 H         1 <0>         0.0824
     33 H12        -2.2550   -2.1990    0.7627 H         1 <0>         0.0801
     34 H13        -0.9599   -3.7176   -1.9576 H         1 <0>         0.1215
     35 H14        -0.7646   -4.9667   -4.0697 H         1 <0>         0.1276
     36 H15        -2.4229   -6.7145   -4.6025 H         1 <0>         0.1250
     37 H16        -4.2693   -7.1687   -3.0712 H         1 <0>         0.1222
     38 H17        -5.8074   -5.8880   -1.4734 H         1 <0>         0.0793
     39 H18        -4.8898   -7.0837   -0.5452 H         1 <0>         0.0765
     40 H19        -5.1365   -4.1371    0.1334 H         1 <0>         0.0724
     41 H20        -6.0358   -5.4578    0.9068 H         1 <0>         0.0709
     42 H21        -0.7686   -4.3248    1.6795 H         1 <0>         0.1257
     43 H22        -0.9372   -5.7074    3.7231 H         1 <0>         0.1275
     44 H23        -3.0178   -6.9071    4.2365 H         1 <0>         0.1269
     45 H24        -4.9880   -6.7067    2.7249 H         1 <0>         0.1290
     46 H25        -6.1159   -0.4671    0.7589 H         1 <0>         0.4268
@<TRIPOS>BOND
     1    1    2 1
     2    1   22 1
     3    1   23 1
     4    1   24 1
     5    2    3 1
     6    2    4 1
     7    2   46 1
     8    3   25 1
     9    3   26 1
    10    3   27 1
    11    4    5 1
    12    4   28 1
    13    4   29 1
    14    5    6 1
    15    5   30 1
    16    5   31 1
    17    6    7 1
    18    6   32 1
    19    6   33 1
    20    7   17 1
    21    7    8 1
    22    8   13 ar
    23    8    9 ar
    24    9   10 ar
    25    9   34 1
    26   10   11 ar
    27   10   35 1
    28   11   12 ar
    29   11   36 1
    30   12   13 ar
    31   12   37 1
    32   13   14 1
    33   14   15 1
    34   14   38 1
    35   14   39 1
    36   15   16 1
    37   15   40 1
    38   15   41 1
    39   16   21 ar
    40   16   17 ar
    41   17   18 ar
    42   18   19 ar
    43   18   42 1
    44   19   20 ar
    45   19   43 1
    46   20   21 ar
    47   20   44 1
    48   21   45 1
@<TRIPOS>MOLECULE
ZINC13802650
   42    45     0     0     0
SMALL
USER_CHARGES

@<TRIPOS>ATOM
      1 C1         -0.0178    1.4648    0.0101 C.3       1 <0>        -0.0430
      2 N1          0.0021   -0.0041    0.0020 N.4       1 <0>        -0.3971
      3 C2         -1.3736   -0.5473    0.1574 C.3       1 <0>         0.0386
      4 H1         -2.0955   -0.0286   -0.4735 H         1 <0>         0.1524
      5 C3         -1.6823   -0.3750    1.6625 C.3       1 <0>        -0.1450
      6 C4         -0.3012   -0.3601    2.3500 C.3       1 <0>        -0.1446
      7 C5          0.7165   -0.5247    1.1979 C.3       1 <0>         0.0408
      8 H2          1.6459    0.0118    1.3892 H         1 <0>         0.1560
      9 C6          0.9375   -2.0297    0.9772 C.3       1 <0>        -0.1538
     10 C7         -0.4245   -2.7273    0.9179 C.3       1 <0>         0.1368
     11 C8         -1.3075   -2.0510   -0.1543 C.3       1 <0>        -0.1581
     12 N2         -0.2350   -4.1372    0.5680 N.am      1 <0>        -0.7328
     13 C9         -1.1563   -5.0514    0.9313 C.2       1 <0>         0.5669
     14 O1         -2.1449   -4.7058    1.5495 O.2       1 <0>        -0.4935
     15 C10        -0.9657   -6.4700    0.5792 C.ar      1 <0>        -0.0857
     16 C11         0.1672   -6.8728   -0.1237 C.ar      1 <0>        -0.0751
     17 C12         0.3474   -8.2040   -0.4549 C.ar      1 <0>        -0.0379
     18 C13        -0.5915   -9.1527   -0.0948 C.ar      1 <0>        -0.0589
     19 C14        -1.7283   -8.7774    0.6055 C.ar      1 <0>         0.0426
     20 C15        -1.9263   -7.4315    0.9565 C.ar      1 <0>         0.1092
     21 N3         -3.0935   -7.3645    1.6273 N.2       1 <0>        -0.4768
     22 C16        -3.6185   -8.5533    1.7189 C.2       1 <0>         0.2862
     23 N4         -2.8224   -9.4627    1.0975 N.pl3     1 <0>        -0.5937
     24 H3         -2.9861  -10.4159    1.0232 H         1 <0>         0.4328
     25 Cl1         1.7658   -8.6874   -1.3314 Cl        1 <0>        -0.0454
     26 H4          1.0047    1.8421    0.0024 H         1 <0>         0.1221
     27 H5         -0.5450    1.8259   -0.8730 H         1 <0>         0.1222
     28 H6         -0.5280    1.8163    0.9069 H         1 <0>         0.1216
     29 H7         -2.2034    0.5662    1.8375 H         1 <0>         0.1005
     30 H8         -2.2779   -1.2126    2.0258 H         1 <0>         0.1174
     31 H9         -0.1432    0.5886    2.8631 H         1 <0>         0.1013
     32 H10        -0.2177   -1.1902    3.0515 H         1 <0>         0.1137
     33 H11         1.4693   -2.1869    0.0388 H         1 <0>         0.0951
     34 H12         1.5211   -2.4379    1.8024 H         1 <0>         0.1208
     35 H13        -0.9099   -2.6582    1.8914 H         1 <0>         0.1132
     36 H14        -2.3108   -2.4756   -0.1193 H         1 <0>         0.1186
     37 H15        -0.8806   -2.1999   -1.1461 H         1 <0>         0.0924
     38 H16         0.5535   -4.4128    0.0749 H         1 <0>         0.4032
     39 H17         0.9085   -6.1423   -0.4121 H         1 <0>         0.1410
     40 H18        -0.4396  -10.1886   -0.3599 H         1 <0>         0.1442
     41 H19        -4.5540   -8.7811    2.2080 H         1 <0>         0.2270
     42 H20         0.4289   -0.3487   -0.8448 H         1 <0>         0.4250
@<TRIPOS>BOND
     1    1    2 1
     2    1   26 1
     3    1   27 1
     4    1   28 1
     5    2    7 1
     6    2    3 1
     7    2   42 1
     8    3    4 1
     9    3   11 1
    10    3    5 1
    11    5    6 1
    12    5   29 1
    13    5   30 1
    14    6    7 1
    15    6   31 1
    16    6   32 1
    17    7    8 1
    18    7    9 1
    19    9   10 1
    20    9   33 1
    21    9   34 1
    22   10   11 1
    23   10   12 1
    24   10   35 1
    25   11   36 1
    26   11   37 1
    27   12   13 am
    28   12   38 1
    29   13   14 2
    30   13   15 1
    31   15   20 ar
    32   15   16 ar
    33   16   17 ar
    34   16   39 1
    35   17   18 ar
    36   17   25 1
    37   18   19 ar
    38   18   40 1
    39   19   23 1
    40   19   20 ar
    41   20   21 1
    42   21   22 2
    43   22   23 1
    44   22   41 1
    45   23   24 1
@<TRIPOS>MOLECULE
ZINC00000848
   42    44     0     0     0
SMALL
USER_CHARGES
4-amino-5-chloro-2-methoxy-N-quinuclidin-3-yl-benzamide
@<TRIPOS>ATOM
      1 C1         -3.6215    3.3204    0.0535 C.3       1 <0>         0.0170
      2 O1         -2.4317    4.1119    0.0464 O.3       1 <0>        -0.2774
      3 C2         -1.2494    3.4465    0.0316 C.ar      1 <0>         0.2496
      4 C3         -1.2303    2.0627    0.0191 C.ar      1 <0>        -0.2975
      5 C4         -0.0168    1.3870    0.0097 C.ar      1 <0>         0.3064
      6 C5          1.1828    2.0983    0.0020 C.ar      1 <0>        -0.1593
      7 C6          1.1749    3.4637    0.0090 C.ar      1 <0>         0.0113
      8 C7         -0.0398    4.1582    0.0239 C.ar      1 <0>        -0.2423
      9 C8         -0.0489    5.6303    0.0318 C.2       1 <0>         0.5767
     10 O2         -1.1059    6.2319    0.0448 O.2       1 <0>        -0.5095
     11 N1          1.1141    6.3114    0.0248 N.am      1 <0>        -0.7377
     12 C9          1.1051    7.7764    0.0328 C.3       1 <0>         0.1419
     13 H1          0.2535    8.1395   -0.5427 H         1 <0>         0.1262
     14 C10         1.0059    8.2811    1.4752 C.3       1 <0>        -0.0171
     15 C11         2.2521   10.2826    0.9188 C.3       1 <0>        -0.0029
     16 C12         2.3863    9.8348   -0.5394 C.3       1 <0>        -0.1335
     17 C13         2.4060    8.3018   -0.5871 C.3       1 <0>        -0.1103
     18 C14         3.5863    7.8012    0.2551 C.3       1 <0>        -0.1391
     19 C15         3.4186    8.3060    1.6910 C.3       1 <0>        -0.0021
     20 Cl1         2.6937    1.2435   -0.0158 Cl        1 <0>        -0.0590
     21 N2          0.0021   -0.0041    0.0020 N.pl3     1 <0>        -0.8484
     22 H2         -3.6480    2.6961   -0.8396 H         1 <0>         0.0619
     23 H3         -3.6310    2.6866    0.9402 H         1 <0>         0.0613
     24 H4         -4.4932    3.9748    0.0653 H         1 <0>         0.1085
     25 H5         -2.1576    1.5090    0.0208 H         1 <0>         0.1468
     26 H6          2.1074    4.0084    0.0034 H         1 <0>         0.1363
     27 H7          1.9571    5.8317    0.0145 H         1 <0>         0.4018
     28 H8          0.1049    8.8841    1.5884 H         1 <0>         0.1370
     29 H9          0.9626    7.4309    2.1559 H         1 <0>         0.1317
     30 H10         3.1157   10.8879    1.1943 H         1 <0>         0.1301
     31 H11         1.3426   10.8719    1.0360 H         1 <0>         0.1303
     32 H12         3.3143   10.2251   -0.9574 H         1 <0>         0.1066
     33 H13         1.5404   10.2074   -1.1172 H         1 <0>         0.1047
     34 H14         2.4946    7.9599   -1.6183 H         1 <0>         0.1242
     35 H15         3.6018    6.7113    0.2506 H         1 <0>         0.0960
     36 H16         4.5190    8.1833   -0.1598 H         1 <0>         0.1076
     37 H17         4.2727    8.9274    1.9601 H         1 <0>         0.1308
     38 H18         3.3583    7.4560    2.3706 H         1 <0>         0.1276
     39 H19         0.8486   -0.4776   -0.0086 H         1 <0>         0.4095
     40 H20        -0.8313   -0.5005    0.0073 H         1 <0>         0.4100
     41 N3          2.1833    9.1087    1.8150 N.4       1 <0>        -0.3901
     42 H21         2.0932    9.4343    2.7846 H         1 <0>         0.4343
@<TRIPOS>BOND
     1    1    2 1
     2    1   22 1
     3    1   23 1
     4    1   24 1
     5    2    3 1
     6    3    8 ar
     7    3    4 ar
     8    4    5 ar
     9    4   25 1
    10    5    6 ar
    11    5   21 1
    12    6    7 ar
    13    6   20 1
    14    7    8 ar
    15    7   26 1
    16    8    9 1
    17    9   10 2
    18    9   11 am
    19   11   12 1
    20   11   27 1
    21   12   13 1
    22   12   17 1
    23   12   14 1
    24   14   28 1
    25   14   29 1
    26   14   41 1
    27   15   16 1
    28   15   30 1
    29   15   31 1
    30   15   41 1
    31   16   17 1
    32   16   32 1
    33   16   33 1
    34   17   18 1
    35   17   34 1
    36   18   19 1
    37   18   35 1
    38   18   36 1
    39   19   37 1
    40   19   38 1
    41   19   41 1
    42   21   39 1
    43   21   40 1
    44   41   42 1
@<TRIPOS>MOLECULE
ZINC00003961
   42    44     0     0     0
SMALL
USER_CHARGES

@<TRIPOS>ATOM
      1 C1         -0.0173    1.4248    0.0099 C.3       1 <0>         0.0170
      2 O1          0.0021   -0.0041    0.0020 O.3       1 <0>        -0.2774
      3 C2         -1.1983   -0.6364    0.0101 C.ar      1 <0>         0.2497
      4 C3         -2.3712    0.0982    0.0194 C.ar      1 <0>        -0.2976
      5 C4         -3.5971   -0.5547    0.0272 C.ar      1 <0>         0.3065
      6 C5         -3.6504   -1.9484    0.0260 C.ar      1 <0>        -0.1594
      7 C6         -2.4991   -2.6824    0.0173 C.ar      1 <0>         0.0113
      8 C7         -1.2567   -2.0387    0.0031 C.ar      1 <0>        -0.2425
      9 C8         -0.0151   -2.8296   -0.0130 C.2       1 <0>         0.5766
     10 O2          1.0637   -2.2679   -0.0202 O.2       1 <0>        -0.5096
     11 N1         -0.0739   -4.1760   -0.0196 N.am      1 <0>        -0.7377
     12 C9          1.1616   -4.9631   -0.0357 C.3       1 <0>         0.1404
     13 H1          1.9273   -4.4530    0.5489 H         1 <0>         0.1257
     14 C10         1.6444   -5.1305   -1.4782 C.3       1 <0>        -0.0230
     15 N2          1.6981   -6.5521   -1.8273 N.4       1 <0>        -0.3745
     16 C11         0.3665   -7.1558   -1.7375 C.3       1 <0>        -0.0085
     17 C12        -0.1588   -7.0555   -0.3036 C.3       1 <0>        -0.1412
     18 C13         0.8956   -6.3500    0.5644 C.3       1 <0>        -0.1094
     19 C14         2.1956   -7.1625    0.5001 C.3       1 <0>        -0.1333
     20 C15         2.6449   -7.2601   -0.9624 C.3       1 <0>        -0.0090
     21 Cl1        -5.1881   -2.7540    0.0363 Cl        1 <0>        -0.0589
     22 N3         -4.7760    0.1840    0.0366 N.pl3     1 <0>        -0.8483
     23 H2          1.0053    1.8021    0.0021 H         1 <0>         0.1085
     24 H3         -0.5445    1.7859   -0.8732 H         1 <0>         0.0613
     25 H4         -0.5275    1.7763    0.9067 H         1 <0>         0.0620
     26 H5         -2.3333    1.1775    0.0211 H         1 <0>         0.1468
     27 H6         -2.5474   -3.7613    0.0172 H         1 <0>         0.1363
     28 H7         -0.9342   -4.6240   -0.0138 H         1 <0>         0.4019
     29 H8          0.9568   -4.6185   -2.1514 H         1 <0>         0.1336
     30 H9          2.6386   -4.6953   -1.5796 H         1 <0>         0.1391
     31 H10        -0.3139   -6.6324   -2.4093 H         1 <0>         0.1295
     32 H11         0.4244   -8.2045   -2.0290 H         1 <0>         0.1328
     33 H12        -1.0843   -6.4799   -0.2931 H         1 <0>         0.0959
     34 H13        -0.3439   -8.0556    0.0883 H         1 <0>         0.1074
     35 H14         0.5425   -6.2558    1.5913 H         1 <0>         0.1255
     36 H15         2.9675   -6.6636    1.0860 H         1 <0>         0.1045
     37 H16         2.0215   -8.1623    0.8976 H         1 <0>         0.1068
     38 H17         2.6909   -8.3082   -1.2582 H         1 <0>         0.1321
     39 H18         3.6336   -6.8130   -1.0663 H         1 <0>         0.1322
     40 H19        -4.7409    1.1534    0.0377 H         1 <0>         0.4100
     41 H20        -5.6330   -0.2703    0.0420 H         1 <0>         0.4095
     42 H21         2.0144   -6.6347   -2.7818 H         1 <0>         0.4276
@<TRIPOS>BOND
     1    1    2 1
     2    1   23 1
     3    1   24 1
     4    1   25 1
     5    2    3 1
     6    3    8 ar
     7    3    4 ar
     8    4    5 ar
     9    4   26 1
    10    5    6 ar
    11    5   22 1
    12    6    7 ar
    13    6   21 1
    14    7    8 ar
    15    7   27 1
    16    8    9 1
    17    9   10 2
    18    9   11 am
    19   11   12 1
    20   11   28 1
    21   12   13 1
    22   12   18 1
    23   12   14 1
    24   14   15 1
    25   14   29 1
    26   14   30 1
    27   15   20 1
    28   15   16 1
    29   15   42 1
    30   16   17 1
    31   16   31 1
    32   16   32 1
    33   17   18 1
    34   17   33 1
    35   17   34 1
    36   18   19 1
    37   18   35 1
    38   19   20 1
    39   19   36 1
    40   19   37 1
    41   20   38 1
    42   20   39 1
    43   22   40 1
    44   22   41 1
@<TRIPOS>MOLECULE
ZINC00385637
   45    48     0     0     0
SMALL
USER_CHARGES
6-chloro-N-(9-methyl-9-azabicyclo[3.3.1]non-7-yl)-1H-benzoimidazole-4-carboxamide
@<TRIPOS>ATOM
      1 C1         -0.8779    2.0186    1.0489 C.3       1 <0>        -0.0418
      2 C2          0.0021   -0.0041    0.0020 C.3       1 <0>         0.0426
      3 H1         -1.0202   -0.3816    0.0208 H         1 <0>         0.1359
      4 C3          0.7602   -0.5385    1.2172 C.3       1 <0>        -0.1325
      5 C4          2.1826    0.0256    1.2260 C.3       1 <0>        -0.1383
      6 C5          2.1289    1.5543    1.2099 C.3       1 <0>        -0.1324
      7 C6          1.3271    2.0340    0.0003 C.3       1 <0>         0.0440
      8 H2          1.2558    3.1216    0.0232 H         1 <0>         0.1375
      9 C7          2.0462    1.6081   -1.2851 C.3       1 <0>        -0.1582
     10 C8          1.1116    0.7227   -2.1139 C.3       1 <0>         0.1369
     11 C9          0.6888   -0.4892   -1.2796 C.3       1 <0>        -0.1620
     12 N1          1.8094    0.2684   -3.3198 N.am      1 <0>        -0.7270
     13 C10         1.1056   -0.0755   -4.4166 C.2       1 <0>         0.5686
     14 O1         -0.1086   -0.0087   -4.4054 O.2       1 <0>        -0.4970
     15 C11         1.8076   -0.5324   -5.6295 C.ar      1 <0>        -0.0872
     16 C12         3.1980   -0.6110   -5.6485 C.ar      1 <0>        -0.0737
     17 C13         3.8582   -1.0397   -6.7862 C.ar      1 <0>        -0.0383
     18 C14         3.1505   -1.3958   -7.9191 C.ar      1 <0>        -0.0577
     19 C15         1.7653   -1.3260   -7.9261 C.ar      1 <0>         0.0431
     20 C16         1.0763   -0.8992   -6.7786 C.ar      1 <0>         0.1091
     21 N2         -0.2393   -0.9388   -7.0687 N.2       1 <0>        -0.4789
     22 C17        -0.4093   -1.3578   -8.2905 C.2       1 <0>         0.2866
     23 N3          0.7952   -1.6026   -8.8703 N.pl3     1 <0>        -0.5967
     24 H3          0.9503   -1.9228   -9.8049 H         1 <0>         0.4395
     25 Cl1         5.5918   -1.1317   -6.7910 Cl        1 <0>        -0.0444
     26 H4         -0.5274    1.6895    2.0271 H         1 <0>         0.1250
     27 H5         -0.8466    3.1070    0.9989 H         1 <0>         0.1211
     28 H6         -1.9017    1.6771    0.8960 H         1 <0>         0.1209
     29 H7          0.2463   -0.2628    2.1352 H         1 <0>         0.0897
     30 H8          0.8096   -1.6302    1.1532 H         1 <0>         0.1105
     31 H9          2.6986   -0.3086    2.1281 H         1 <0>         0.0940
     32 H10         2.7255   -0.3339    0.3521 H         1 <0>         0.0828
     33 H11         1.6753    1.9179    2.1297 H         1 <0>         0.0904
     34 H12         3.1475    1.9471    1.1386 H         1 <0>         0.1111
     35 H13         2.3169    2.4938   -1.8586 H         1 <0>         0.1092
     36 H14         2.9453    1.0502   -1.0291 H         1 <0>         0.1093
     37 H15         0.2281    1.2935   -2.4004 H         1 <0>         0.0926
     38 H16         1.5661   -1.0789   -1.0219 H         1 <0>         0.1056
     39 H17        -0.0072   -1.1014   -1.8520 H         1 <0>         0.1067
     40 H18         2.7779    0.2152   -3.3287 H         1 <0>         0.4073
     41 H19         3.7636   -0.3362   -4.7705 H         1 <0>         0.1416
     42 H20         3.6775   -1.7289   -8.8010 H         1 <0>         0.1444
     43 H21        -1.3664   -1.4816   -8.7752 H         1 <0>         0.2264
     44 N4         -0.0436    1.4746   -0.0524 N.4       1 <0>        -0.3974
     45 H22        -0.4704    1.7510   -0.9444 H         1 <0>         0.4312
@<TRIPOS>BOND
     1    1   26 1
     2    1   27 1
     3    1   28 1
     4    1   44 1
     5    2    3 1
     6    2   11 1
     7    2    4 1
     8    2   44 1
     9    4    5 1
    10    4   29 1
    11    4   30 1
    12    5    6 1
    13    5   31 1
    14    5   32 1
    15    6    7 1
    16    6   33 1
    17    6   34 1
    18    7    8 1
    19    7    9 1
    20    7   44 1
    21    9   10 1
    22    9   35 1
    23    9   36 1
    24   10   11 1
    25   10   12 1
    26   10   37 1
    27   11   38 1
    28   11   39 1
    29   12   13 am
    30   12   40 1
    31   13   14 2
    32   13   15 1
    33   15   20 ar
    34   15   16 ar
    35   16   17 ar
    36   16   41 1
    37   17   18 ar
    38   17   25 1
    39   18   19 ar
    40   18   42 1
    41   19   23 1
    42   19   20 ar
    43   20   21 1
    44   21   22 2
    45   22   23 1
    46   22   43 1
    47   23   24 1
    48   44   45 1
@<TRIPOS>MOLECULE
ZINC00006097
   43    44     0     0     0
SMALL
USER_CHARGES

@<TRIPOS>ATOM
      1 C1         -0.3605    1.4536   -0.2932 C.3       1 <0>         0.0169
      2 O1         -0.2728    0.0279   -0.2495 O.3       1 <0>        -0.2804
      3 C2          0.4248   -0.5150    0.7796 C.ar      1 <0>         0.2551
      4 C3          1.0086    0.3023    1.7317 C.ar      1 <0>        -0.2999
      5 C4          1.7217   -0.2593    2.7832 C.ar      1 <0>         0.3146
      6 C5          1.8520   -1.6446    2.8830 C.ar      1 <0>        -0.1645
      7 C6          1.2805   -2.4600    1.9491 C.ar      1 <0>         0.0315
      8 C7          0.5531   -1.9091    0.8874 C.ar      1 <0>        -0.2290
      9 C8         -0.0685   -2.7870   -0.1154 C.2       1 <0>         0.5255
     10 O2         -0.6948   -2.3061   -1.0396 O.2       1 <0>        -0.4759
     11 O3          0.0562   -4.1251   -0.0097 O.3       1 <0>        -0.3730
     12 C9         -0.5732   -4.9171   -1.0189 C.3       1 <0>         0.0343
     13 C10        -0.3243   -6.3994   -0.7330 C.3       1 <0>        -0.0013
     14 N1         -0.9600   -6.7661    0.5396 N.4       1 <0>        -0.3849
     15 C11        -0.5913   -8.1429    0.8901 C.3       1 <0>        -0.0071
     16 C12        -1.1845   -8.5023    2.2541 C.3       1 <0>        -0.1466
     17 C13        -2.7097   -8.3815    2.1891 C.3       1 <0>        -0.1389
     18 C14        -3.0813   -6.9621    1.7504 C.3       1 <0>        -0.1454
     19 C15        -2.4178   -6.6598    0.4051 C.3       1 <0>        -0.0143
     20 Cl1         2.7460   -2.3351    4.2011 Cl        1 <0>        -0.0562
     21 N2          2.3083    0.5625    3.7397 N.pl3     1 <0>        -0.8443
     22 H1          0.6414    1.8772   -0.3628 H         1 <0>         0.0641
     23 H2         -0.9437    1.7552   -1.1633 H         1 <0>         0.1105
     24 H3         -0.8460    1.8157    0.6130 H         1 <0>         0.0636
     25 H4          0.9103    1.3752    1.6570 H         1 <0>         0.1503
     26 H5          1.3855   -3.5316    2.0322 H         1 <0>         0.1480
     27 H6         -1.6456   -4.7219   -1.0178 H         1 <0>         0.0920
     28 H7         -0.1582   -4.6604   -1.9936 H         1 <0>         0.1149
     29 H8         -0.7481   -7.0007   -1.5374 H         1 <0>         0.1498
     30 H9          0.7484   -6.5820   -0.6692 H         1 <0>         0.1435
     31 H10        -0.9790   -8.8260    0.1344 H         1 <0>         0.1292
     32 H11         0.4946   -8.2281    0.9328 H         1 <0>         0.1315
     33 H12        -0.9111   -9.5255    2.5117 H         1 <0>         0.1127
     34 H13        -0.7972   -7.8199    3.0107 H         1 <0>         0.0882
     35 H14        -3.1019   -9.0999    1.4693 H         1 <0>         0.0820
     36 H15        -3.1335   -8.5815    3.1733 H         1 <0>         0.0943
     37 H16        -4.1637   -6.8844    1.6480 H         1 <0>         0.1122
     38 H17        -2.7334   -6.2477    2.4965 H         1 <0>         0.0879
     39 H18        -2.6804   -5.6500    0.0897 H         1 <0>         0.1283
     40 H19        -2.7666   -7.3745   -0.3403 H         1 <0>         0.1309
     41 H20         2.2191    1.5260    3.6718 H         1 <0>         0.4113
     42 H21         2.8067    0.1722    4.4747 H         1 <0>         0.4107
     43 H22        -0.6436   -6.1402    1.2650 H         1 <0>         0.4281
@<TRIPOS>BOND
     1    1    2 1
     2    1   22 1
     3    1   23 1
     4    1   24 1
     5    2    3 1
     6    3    8 ar
     7    3    4 ar
     8    4    5 ar
     9    4   25 1
    10    5    6 ar
    11    5   21 1
    12    6    7 ar
    13    6   20 1
    14    7    8 ar
    15    7   26 1
    16    8    9 1
    17    9   10 2
    18    9   11 1
    19   11   12 1
    20   12   13 1
    21   12   27 1
    22   12   28 1
    23   13   14 1
    24   13   29 1
    25   13   30 1
    26   14   19 1
    27   14   15 1
    28   14   43 1
    29   15   16 1
    30   15   31 1
    31   15   32 1
    32   16   17 1
    33   16   33 1
    34   16   34 1
    35   17   18 1
    36   17   35 1
    37   17   36 1
    38   18   19 1
    39   18   37 1
    40   18   38 1
    41   19   39 1
    42   19   40 1
    43   21   41 1
    44   21   42 1
@<TRIPOS>MOLECULE
ZINC01544798
   42    42     0     0     0
SMALL
USER_CHARGES

@<TRIPOS>ATOM
      1 C1         -0.2640    1.4459    0.0391 C.3       1 <0>        -0.1867
      2 C2         -0.0334   -0.0661   -0.0010 C.3       1 <0>        -0.0190
      3 N1          0.8227   -0.4609    1.1256 N.4       1 <0>        -0.3884
      4 C3          0.1113   -0.2220    2.3885 C.3       1 <0>        -0.0150
      5 C4          1.0526   -0.4946    3.5635 C.3       1 <0>        -0.1889
      6 C5          1.1539   -1.8876    1.0125 C.3       1 <0>        -0.0058
      7 C6          2.0022   -2.1165   -0.2401 C.3       1 <0>         0.0346
      8 O1          3.2566   -1.4476   -0.0947 O.3       1 <0>        -0.3722
      9 C7          4.1273   -1.5504   -1.1186 C.2       1 <0>         0.5252
     10 O2          3.8292   -2.1908   -2.1079 O.2       1 <0>        -0.4762
     11 C8          5.4378   -0.8879   -1.0388 C.ar      1 <0>        -0.2290
     12 C9          5.7859   -0.1546    0.1018 C.ar      1 <0>         0.0314
     13 C10         7.0028    0.4597    0.1754 C.ar      1 <0>        -0.1644
     14 C11         7.9064    0.3622   -0.8828 C.ar      1 <0>         0.3146
     15 C12         7.5753   -0.3618   -2.0210 C.ar      1 <0>        -0.2999
     16 C13         6.3467   -0.9934   -2.1039 C.ar      1 <0>         0.2550
     17 O3          6.0200   -1.7066   -3.2107 O.3       1 <0>        -0.2803
     18 C14         6.9953   -1.7693   -4.2533 C.3       1 <0>         0.0168
     19 N2          9.1433    0.9927   -0.7981 N.pl3     1 <0>        -0.8444
     20 Cl1         7.4276    1.3674    1.5929 Cl        1 <0>        -0.0562
     21 H1          0.6968    1.9590    0.0785 H         1 <0>         0.0802
     22 H2         -0.8045    1.7548   -0.8556 H         1 <0>         0.1064
     23 H3         -0.8486    1.7009    0.9230 H         1 <0>         0.0817
     24 H4         -0.9909   -0.5818    0.0722 H         1 <0>         0.1321
     25 H5          0.4532   -0.3347   -0.9386 H         1 <0>         0.1290
     26 H6         -0.2254    0.8140    2.4254 H         1 <0>         0.1329
     27 H7         -0.7503   -0.8866    2.4514 H         1 <0>         0.1303
     28 H8          1.3017   -1.5554    3.5909 H         1 <0>         0.0809
     29 H9          1.9645    0.0898    3.4417 H         1 <0>         0.0812
     30 H10         0.5619   -0.2124    4.4950 H         1 <0>         0.1062
     31 H11         1.7144   -2.2015    1.8931 H         1 <0>         0.1446
     32 H12         0.2350   -2.4693    0.9403 H         1 <0>         0.1502
     33 H13         2.1733   -3.1847   -0.3728 H         1 <0>         0.1146
     34 H14         1.4785   -1.7215   -1.1107 H         1 <0>         0.0920
     35 H15         5.0908   -0.0745    0.9244 H         1 <0>         0.1481
     36 H16         8.2771   -0.4350   -2.8386 H         1 <0>         0.1503
     37 H17         7.2134   -0.7619   -4.6078 H         1 <0>         0.0636
     38 H18         7.9082   -2.2252   -3.8700 H         1 <0>         0.0641
     39 H19         6.6082   -2.3686   -5.0774 H         1 <0>         0.1105
     40 H20         9.3762    1.4991   -0.0042 H         1 <0>         0.4107
     41 H21         9.7730    0.9261   -1.5329 H         1 <0>         0.4113
     42 H22         1.6719    0.0838    1.1097 H         1 <0>         0.4278
@<TRIPOS>BOND
     1    1    2 1
     2    1   21 1
     3    1   22 1
     4    1   23 1
     5    2    3 1
     6    2   24 1
     7    2   25 1
     8    3    4 1
     9    3    6 1
    10    3   42 1
    11    4    5 1
    12    4   26 1
    13    4   27 1
    14    5   28 1
    15    5   29 1
    16    5   30 1
    17    6    7 1
    18    6   31 1
    19    6   32 1
    20    7    8 1
    21    7   33 1
    22    7   34 1
    23    8    9 1
    24    9   10 2
    25    9   11 1
    26   11   16 ar
    27   11   12 ar
    28   12   13 ar
    29   12   35 1
    30   13   14 ar
    31   13   20 1
    32   14   15 ar
    33   14   19 1
    34   15   16 ar
    35   15   36 1
    36   16   17 1
    37   17   18 1
    38   18   37 1
    39   18   38 1
    40   18   39 1
    41   19   40 1
    42   19   41 1
@<TRIPOS>MOLECULE
ZINC03778441
   61    63     0     0     0
SMALL
USER_CHARGES
diethylsulfamoylamino-hydroxy-propyl-BLAH
@<TRIPOS>ATOM
      1 C1         -2.0685    7.1638    0.7922 C.3       1 <0>        -0.1551
      2 C2         -1.8026    5.6616    0.9081 C.3       1 <0>        -0.1549
      3 C3         -1.1393    5.1605   -0.3764 C.3       1 <0>        -0.0121
      4 C4         -0.3471    3.2955    0.9446 C.3       1 <0>        -0.0295
      5 C5         -0.3749    1.7671    1.0422 C.3       1 <0>         0.1369
      6 H1          0.0903    1.4532    1.9766 H         1 <0>         0.1305
      7 C6          0.4035    1.1863   -0.1387 C.3       1 <0>        -0.1381
      8 C7         -0.2182    1.6622   -1.4560 C.3       1 <0>        -0.1001
      9 H2         -1.2246    1.2570   -1.5610 H         1 <0>         0.0995
     10 C8         -0.2642    3.1940   -1.4868 C.3       1 <0>         0.0372
     11 H3          0.7486    3.5960   -1.5142 H         1 <0>         0.1504
     12 C9         -1.0337    3.6298   -2.7371 C.3       1 <0>        -0.0983
     13 C10        -0.5007    2.9491   -3.9676 C.ar      1 <0>        -0.0754
     14 C11        -0.8184    3.4998   -5.2033 C.ar      1 <0>        -0.1195
     15 C12        -0.3663    2.9186   -6.3699 C.ar      1 <0>        -0.0934
     16 C13         0.4092    1.7765   -6.3127 C.ar      1 <0>        -0.1322
     17 C14         0.7302    1.2256   -5.0841 C.ar      1 <0>         0.1143
     18 C15         0.2766    1.8161   -3.9055 C.ar      1 <0>        -0.1095
     19 C16         0.6765    1.1819   -2.6021 C.3       1 <0>        -0.0627
     20 O1          1.4929    0.1023   -5.0263 O.3       1 <0>        -0.4941
     21 N1         -1.7610    1.2952    0.9969 N.pl3     1 <0>        -1.1398
     22 S1         -2.5673    0.9583    2.4036 S.o2      1 <0>         2.7747
     23 O2         -2.3657    2.0712    3.2639 O.2       1 <0>        -0.9651
     24 O3         -3.8627    0.5080    2.0314 O.2       1 <0>        -0.9588
     25 N2         -1.8031   -0.3301    3.1095 N.pl3     1 <0>        -0.9984
     26 C17        -0.7862   -0.1041    4.1396 C.3       1 <0>         0.1173
     27 C18        -1.4325   -0.1971    5.5233 C.3       1 <0>        -0.1777
     28 C19        -2.1439   -1.6960    2.7038 C.3       1 <0>         0.1060
     29 C20        -1.1326   -2.1871    1.6660 C.3       1 <0>        -0.1734
     30 H4         -1.1254    7.6892    0.6414 H         1 <0>         0.0674
     31 H5         -2.7285    7.3517   -0.0547 H         1 <0>         0.0662
     32 H6         -2.5411    7.5208    1.7072 H         1 <0>         0.0781
     33 H7         -2.7457    5.1363    1.0588 H         1 <0>         0.0845
     34 H8         -1.1427    5.4737    1.7550 H         1 <0>         0.0914
     35 H9         -0.1588    5.6244   -0.4838 H         1 <0>         0.1353
     36 H10        -1.7610    5.4225   -1.2325 H         1 <0>         0.1302
     37 H11         0.6853    3.6448    0.9583 H         1 <0>         0.1472
     38 H12        -0.8895    3.7267    1.7860 H         1 <0>         0.1468
     39 H13         0.3691    0.0977   -0.0947 H         1 <0>         0.1064
     40 H14         1.4405    1.5181   -0.0871 H         1 <0>         0.1016
     41 H15        -2.0866    3.3753   -2.6156 H         1 <0>         0.0954
     42 H16        -0.9394    4.7092   -2.8566 H         1 <0>         0.1026
     43 H17        -1.4257    4.3916   -5.2509 H         1 <0>         0.1288
     44 H18        -0.6185    3.3547   -7.3252 H         1 <0>         0.1357
     45 H19         0.7631    1.3153   -7.2229 H         1 <0>         0.1369
     46 H20         1.7116    1.4422   -2.3806 H         1 <0>         0.0927
     47 H21         0.5927    0.0988   -2.6911 H         1 <0>         0.0955
     48 H22         0.9840   -0.7198   -5.0415 H         1 <0>         0.3951
     49 H23        -2.2065    1.1801    0.1430 H         1 <0>         0.4161
     50 H24        -0.0057   -0.8598    4.0516 H         1 <0>         0.0857
     51 H25        -0.3498    0.8860    4.0082 H         1 <0>         0.0790
     52 H26        -1.8689   -1.1872    5.6546 H         1 <0>         0.0642
     53 H27        -0.6759   -0.0289    6.2897 H         1 <0>         0.0745
     54 H28        -2.2130    0.5587    5.6112 H         1 <0>         0.0616
     55 H29        -2.1178   -2.3509    3.5748 H         1 <0>         0.0904
     56 H30        -3.1439   -1.7075    2.2704 H         1 <0>         0.0928
     57 H31        -1.0951   -1.4838    0.8341 H         1 <0>         0.0526
     58 H32        -0.1467   -2.2595    2.1253 H         1 <0>         0.0632
     59 H33        -1.4355   -3.1678    1.2993 H         1 <0>         0.0744
     60 N3         -1.0209    3.6917   -0.3126 N.4       1 <0>        -0.3919
     61 H34        -1.9618    3.2810   -0.3273 H         1 <0>         0.4208
@<TRIPOS>BOND
     1    1    2 1
     2    1   30 1
     3    1   31 1
     4    1   32 1
     5    2    3 1
     6    2   33 1
     7    2   34 1
     8    3   35 1
     9    3   36 1
    10    3   60 1
    11    4    5 1
    12    4   37 1
    13    4   38 1
    14    4   60 1
    15    5    6 1
    16    5    7 1
    17    5   21 1
    18    7    8 1
    19    7   39 1
    20    7   40 1
    21    8    9 1
    22    8   19 1
    23    8   10 1
    24   10   11 1
    25   10   12 1
    26   10   60 1
    27   12   13 1
    28   12   41 1
    29   12   42 1
    30   13   18 ar
    31   13   14 ar
    32   14   15 ar
    33   14   43 1
    34   15   16 ar
    35   15   44 1
    36   16   17 ar
    37   16   45 1
    38   17   18 ar
    39   17   20 1
    40   18   19 1
    41   19   46 1
    42   19   47 1
    43   20   48 1
    44   21   22 1
    45   21   49 1
    46   22   23 2
    47   22   24 2
    48   22   25 1
    49   25   26 1
    50   25   28 1
    51   26   27 1
    52   26   50 1
    53   26   51 1
    54   27   52 1
    55   27   53 1
    56   27   54 1
    57   28   29 1
    58   28   55 1
    59   28   56 1
    60   29   57 1
    61   29   58 1
    62   29   59 1
    63   60   61 1
@<TRIPOS>MOLECULE
ZINC00608261
   51    53     0     0     0
SMALL
USER_CHARGES

@<TRIPOS>ATOM
      1 C1         -0.0173    1.4248    0.0099 C.3       1 <0>         0.0173
      2 O1          0.0021   -0.0041    0.0020 O.3       1 <0>        -0.2771
      3 C2          0.6048   -0.6061   -1.0540 C.ar      1 <0>         0.2478
      4 C3          1.1714    0.1577   -2.0595 C.ar      1 <0>        -0.2977
      5 C4          1.7875   -0.4643   -3.1379 C.ar      1 <0>         0.3044
      6 C5          1.8368   -1.8562   -3.2112 C.ar      1 <0>        -0.1595
      7 C6          1.2804   -2.6188   -2.2247 C.ar      1 <0>         0.0118
      8 C7          0.6619   -2.0064   -1.1291 C.ar      1 <0>        -0.2392
      9 C8          0.0677   -2.8282   -0.0619 C.2       1 <0>         0.5777
     10 O2         -0.4739   -2.2937    0.8871 O.2       1 <0>        -0.5150
     11 N1          0.1238   -4.1727   -0.1363 N.am      1 <0>        -0.7348
     12 C9         -0.4675   -4.9905    0.9257 C.3       1 <0>         0.1399
     13 C10        -1.9593   -5.1933    0.6453 C.3       1 <0>        -0.1609
     14 C11        -2.5532   -6.1131    1.7143 C.3       1 <0>        -0.0026
     15 N2         -1.8673   -7.4105    1.6845 N.4       1 <0>        -0.3829
     16 C12        -0.4502   -7.2327    2.0231 C.3       1 <0>        -0.0069
     17 C13         0.2246   -6.3560    0.9660 C.3       1 <0>        -0.1547
     18 C14        -2.4921   -8.3155    2.6585 C.3       1 <0>         0.0441
     19 C15        -1.8711   -9.6837    2.5432 C.ar      1 <0>        -0.1614
     20 C16        -2.4070  -10.6150    1.6735 C.ar      1 <0>        -0.0939
     21 C17        -1.8373  -11.8701    1.5678 C.ar      1 <0>        -0.1130
     22 C18        -0.7314  -12.1937    2.3315 C.ar      1 <0>        -0.0844
     23 C19        -0.1950  -11.2621    3.2005 C.ar      1 <0>        -0.1134
     24 C20        -0.7621  -10.0056    3.3031 C.ar      1 <0>        -0.0981
     25 Cl1         2.6089   -2.6229   -4.5639 Cl        1 <0>        -0.0606
     26 N3          2.3569    0.3038   -4.1485 N.pl3     1 <0>        -0.8497
     27 H1          1.0053    1.8021    0.0021 H         1 <0>         0.0610
     28 H2         -0.5445    1.7859   -0.8732 H         1 <0>         0.0608
     29 H3         -0.5275    1.7763    0.9067 H         1 <0>         0.1075
     30 H4          1.1342    1.2357   -2.0059 H         1 <0>         0.1459
     31 H5          1.3215   -3.6961   -2.2880 H         1 <0>         0.1380
     32 H6          0.5557   -4.5989   -0.8931 H         1 <0>         0.4022
     33 H7         -0.3406   -4.4891    1.8852 H         1 <0>         0.1061
     34 H8         -2.4686   -4.2300    0.6703 H         1 <0>         0.1189
     35 H9         -2.0865   -5.6477   -0.3373 H         1 <0>         0.0900
     36 H10        -2.4257   -5.6578    2.6964 H         1 <0>         0.1327
     37 H11        -3.6153   -6.2595    1.5178 H         1 <0>         0.1342
     38 H12        -0.3676   -6.7535    2.9986 H         1 <0>         0.1323
     39 H13         0.0402   -8.2056    2.0545 H         1 <0>         0.1361
     40 H14         0.1427   -6.8345   -0.0100 H         1 <0>         0.0932
     41 H15         1.2762   -6.2237    1.2201 H         1 <0>         0.1193
     42 H16        -2.3359   -7.9292    3.6657 H         1 <0>         0.1362
     43 H17        -3.5613   -8.3837    2.4573 H         1 <0>         0.1377
     44 H18        -3.2710  -10.3622    1.0769 H         1 <0>         0.1311
     45 H19        -2.2565  -12.5979    0.8888 H         1 <0>         0.1360
     46 H20        -0.2868  -13.1745    2.2494 H         1 <0>         0.1357
     47 H21         0.6688  -11.5151    3.7974 H         1 <0>         0.1361
     48 H22        -0.3407   -9.2765    3.9793 H         1 <0>         0.1314
     49 H23         2.3233    1.2719   -4.0992 H         1 <0>         0.4092
     50 H24         2.7876   -0.1289   -4.9023 H         1 <0>         0.4090
     51 H25        -1.9439   -7.8092    0.7608 H         1 <0>         0.4219
@<TRIPOS>BOND
     1    1    2 1
     2    1   27 1
     3    1   28 1
     4    1   29 1
     5    2    3 1
     6    3    8 ar
     7    3    4 ar
     8    4    5 ar
     9    4   30 1
    10    5    6 ar
    11    5   26 1
    12    6    7 ar
    13    6   25 1
    14    7    8 ar
    15    7   31 1
    16    8    9 1
    17    9   10 2
    18    9   11 am
    19   11   12 1
    20   11   32 1
    21   12   17 1
    22   12   13 1
    23   12   33 1
    24   13   14 1
    25   13   34 1
    26   13   35 1
    27   14   15 1
    28   14   36 1
    29   14   37 1
    30   15   16 1
    31   15   18 1
    32   15   51 1
    33   16   17 1
    34   16   38 1
    35   16   39 1
    36   17   40 1
    37   17   41 1
    38   18   19 1
    39   18   42 1
    40   18   43 1
    41   19   24 ar
    42   19   20 ar
    43   20   21 ar
    44   20   44 1
    45   21   22 ar
    46   21   45 1
    47   22   23 ar
    48   22   46 1
    49   23   24 ar
    50   23   47 1
    51   24   48 1
    52   26   49 1
    53   26   50 1
@<TRIPOS>MOLECULE
ZINC00077360
   29    30     0     0     0
SMALL
USER_CHARGES

@<TRIPOS>ATOM
      1 C1         -0.0173    1.4248    0.0099 C.3       1 <0>         0.0260
      2 O1          0.0021   -0.0041    0.0020 O.3       1 <0>        -0.3138
      3 C2         -1.2006   -0.6377    0.0101 C.ar      1 <0>         0.1564
      4 C3         -2.3754    0.1105    0.0196 C.ar      1 <0>        -0.2121
      5 C4         -3.5918   -0.5101    0.0282 C.ar      1 <0>        -0.0422
      6 C5         -3.6602   -1.9049    0.0271 C.ar      1 <0>        -0.1363
      7 C6         -2.4782   -2.6674    0.0171 C.ar      1 <0>         0.1371
      8 C7         -1.2477   -2.0189    0.0031 C.ar      1 <0>        -0.1690
      9 N1         -2.8498   -3.9933    0.0179 N.pl3     1 <0>        -0.5876
     10 H1         -2.2357   -4.7442    0.0122 H         1 <0>         0.4244
     11 C8         -4.2157   -4.0937    0.0281 C.2       1 <0>         0.0794
     12 C9         -4.7641   -2.8690    0.0340 C.2       1 <0>        -0.1982
     13 C10        -6.2360   -2.5461    0.0463 C.3       1 <0>        -0.0616
     14 C11        -6.7186   -2.3112   -1.3864 C.3       1 <0>        -0.0083
     15 N2         -8.1535   -1.9965   -1.3744 N.4       1 <0>        -0.6389
     16 H2          1.0053    1.8021    0.0021 H         1 <0>         0.1060
     17 H3         -0.5445    1.7859   -0.8732 H         1 <0>         0.0580
     18 H4         -0.5275    1.7763    0.9067 H         1 <0>         0.0588
     19 H5         -2.3239    1.1893    0.0205 H         1 <0>         0.1340
     20 H6         -4.4986    0.0763    0.0363 H         1 <0>         0.1226
     21 H7         -0.3327   -2.5925   -0.0087 H         1 <0>         0.1339
     22 H8         -4.7693   -5.0210    0.0309 H         1 <0>         0.1736
     23 H9         -6.7870   -3.3788    0.4834 H         1 <0>         0.0921
     24 H10        -6.4058   -1.6471    0.6389 H         1 <0>         0.0920
     25 H11        -6.1676   -1.4785   -1.8235 H         1 <0>         0.1334
     26 H12        -6.5488   -3.2102   -1.9790 H         1 <0>         0.1332
     27 H13        -8.6635   -2.7673   -0.9698 H         1 <0>         0.4346
     28 H14        -8.3106   -1.1643   -0.8259 H         1 <0>         0.4348
     29 H15        -8.4717   -1.8416   -2.3193 H         1 <0>         0.4378
@<TRIPOS>BOND
     1    1    2 1
     2    1   16 1
     3    1   17 1
     4    1   18 1
     5    2    3 1
     6    3    8 ar
     7    3    4 ar
     8    4    5 ar
     9    4   19 1
    10    5    6 ar
    11    5   20 1
    12    6   12 1
    13    6    7 ar
    14    7    8 ar
    15    7    9 1
    16    8   21 1
    17    9   10 1
    18    9   11 1
    19   11   12 2
    20   11   22 1
    21   12   13 1
    22   13   14 1
    23   13   23 1
    24   13   24 1
    25   14   15 1
    26   14   25 1
    27   14   26 1
    28   15   27 1
    29   15   28 1
    30   15   29 1
@<TRIPOS>MOLECULE
ZINC00598220
   55    57     0     0     0
SMALL
USER_CHARGES

@<TRIPOS>ATOM
      1 C1         -0.0178    1.4608    0.0101 C.3       1 <0>         0.0677
      2 N1          0.0021   -0.0041    0.0020 N.pl3     1 <0>        -0.4662
      3 C2          0.0078   -0.7702   -1.1144 C.2       1 <0>         0.1447
      4 C3          0.0280   -2.0902   -0.7684 C.2       1 <0>        -0.2341
      5 C4          0.0354   -2.1352    0.7057 C.ar      1 <0>        -0.0593
      6 C5          0.0236   -0.7970    1.1310 C.ar      1 <0>         0.0821
      7 C6          0.0320   -0.5142    2.4927 C.ar      1 <0>        -0.1194
      8 C7          0.0549   -1.5436    3.4086 C.ar      1 <0>        -0.0951
      9 C8          0.0697   -2.8649    2.9867 C.ar      1 <0>        -0.1286
     10 C9          0.0537   -3.1654    1.6419 C.ar      1 <0>        -0.0730
     11 C10         0.0401   -3.2380   -1.6825 C.2       1 <0>         0.5447
     12 O1          0.0576   -4.3694   -1.2375 O.2       1 <0>        -0.5047
     13 O2          0.0317   -3.0380   -3.0160 O.3       1 <0>        -0.3583
     14 C11         0.0443   -4.2008   -3.8465 C.3       1 <0>         0.0704
     15 C12         0.0322   -3.7777   -5.3167 C.3       1 <0>        -0.0996
     16 C13        -1.2912   -3.0768   -5.6371 C.3       1 <0>        -0.1422
     17 C14        -1.3296   -2.7274   -7.1263 C.3       1 <0>        -0.0049
     18 N2         -1.2187   -3.9548   -7.9236 N.4       1 <0>        -0.3827
     19 C15         0.0788   -4.5945   -7.6753 C.3       1 <0>        -0.0135
     20 C16         0.1714   -5.0158   -6.2071 C.3       1 <0>        -0.1415
     21 C17        -1.3342   -3.6226   -9.3499 C.3       1 <0>        -0.0173
     22 C18        -1.3440   -4.9113  -10.1745 C.3       1 <0>         0.0887
     23 N3         -1.4592   -4.5800  -11.5969 N.pl3     1 <0>        -1.1191
     24 S1         -1.1253   -5.7269  -12.7439 S.o2      1 <0>         2.6133
     25 O3         -1.3133   -5.0629  -13.9861 O.2       1 <0>        -0.9381
     26 O4          0.1495   -6.2405  -12.3827 O.2       1 <0>        -0.9482
     27 C19        -2.3987   -6.9985  -12.5162 C.3       1 <0>        -0.6713
     28 H1          1.0048    1.8381    0.0023 H         1 <0>         0.0803
     29 H2         -0.5450    1.8219   -0.8730 H         1 <0>         0.0900
     30 H3         -0.5280    1.8123    0.9069 H         1 <0>         0.0902
     31 H4         -0.0021   -0.3934   -2.1265 H         1 <0>         0.1833
     32 H5          0.0209    0.5111    2.8319 H         1 <0>         0.1253
     33 H6          0.0617   -1.3195    4.4651 H         1 <0>         0.1326
     34 H7          0.0880   -3.6617    3.7154 H         1 <0>         0.1304
     35 H8          0.0664   -4.1949    1.3157 H         1 <0>         0.1328
     36 H9          0.9433   -4.7827   -3.6432 H         1 <0>         0.0784
     37 H10        -0.8365   -4.8074   -3.6357 H         1 <0>         0.0737
     38 H11         0.8619   -3.0968   -5.5069 H         1 <0>         0.1028
     39 H12        -2.1219   -3.7406   -5.3974 H         1 <0>         0.0905
     40 H13        -1.3718   -2.1640   -5.0468 H         1 <0>         0.1209
     41 H14        -2.2704   -2.2281   -7.3578 H         1 <0>         0.1338
     42 H15        -0.4987   -2.0634   -7.3648 H         1 <0>         0.1322
     43 H16         0.1778   -5.4737   -8.3120 H         1 <0>         0.1373
     44 H17         0.8797   -3.8908   -7.9021 H         1 <0>         0.1356
     45 H18         1.1362   -5.4889   -6.0244 H         1 <0>         0.1198
     46 H19        -0.6289   -5.7198   -5.9793 H         1 <0>         0.0944
     47 H20        -2.2606   -3.0744   -9.5214 H         1 <0>         0.1409
     48 H21        -0.4865   -3.0062   -9.6492 H         1 <0>         0.1412
     49 H22        -0.4176   -5.4595  -10.0030 H         1 <0>         0.1029
     50 H23        -2.1917   -5.5277   -9.8752 H         1 <0>         0.0875
     51 H24        -1.7311   -3.6889  -11.8669 H         1 <0>         0.4262
     52 H25        -3.3841   -6.5564  -12.6631 H         1 <0>         0.1334
     53 H26        -2.2475   -7.7981  -13.2414 H         1 <0>         0.1389
     54 H27        -2.3297   -7.4053  -11.5072 H         1 <0>         0.1256
     55 H28        -1.9600   -4.5894   -7.6670 H         1 <0>         0.4246
@<TRIPOS>BOND
     1    1    2 1
     2    1   28 1
     3    1   29 1
     4    1   30 1
     5    2    6 1
     6    2    3 1
     7    3    4 2
     8    3   31 1
     9    4    5 1
    10    4   11 1
    11    5   10 ar
    12    5    6 ar
    13    6    7 ar
    14    7    8 ar
    15    7   32 1
    16    8    9 ar
    17    8   33 1
    18    9   10 ar
    19    9   34 1
    20   10   35 1
    21   11   12 2
    22   11   13 1
    23   13   14 1
    24   14   15 1
    25   14   36 1
    26   14   37 1
    27   15   20 1
    28   15   16 1
    29   15   38 1
    30   16   17 1
    31   16   39 1
    32   16   40 1
    33   17   18 1
    34   17   41 1
    35   17   42 1
    36   18   19 1
    37   18   21 1
    38   18   55 1
    39   19   20 1
    40   19   43 1
    41   19   44 1
    42   20   45 1
    43   20   46 1
    44   21   22 1
    45   21   47 1
    46   21   48 1
    47   22   23 1
    48   22   49 1
    49   22   50 1
    50   23   24 1
    51   23   51 1
    52   24   25 2
    53   24   26 2
    54   24   27 1
    55   27   52 1
    56   27   53 1
    57   27   54 1
@<TRIPOS>MOLECULE
ZINC29224384
   40    41     0     0     0
SMALL
USER_CHARGES
(1-methyl-4-piperidyl) 4-amino-5-chloro-2-methoxy-benzoate
@<TRIPOS>ATOM
      1 C1          6.4818    0.2473    0.7714 C.3       1 <0>        -0.0458
      2 N1          5.1611    0.8859    0.6935 N.4       1 <0>        -0.4029
      3 C2          4.7720    1.1214   -0.7028 C.3       1 <0>         0.0008
      4 C3          3.4644    1.9154   -0.7424 C.3       1 <0>        -0.1457
      5 C4          2.3720    1.1270   -0.0145 C.3       1 <0>         0.0760
      6 C5          2.8229    0.8532    1.4229 C.3       1 <0>        -0.1665
      7 C6          4.1492    0.0900    1.3997 C.3       1 <0>         0.0015
      8 O1          1.1437    1.9012    0.0013 O.3       1 <0>        -0.3499
      9 C7         -0.0144    1.2114    0.0087 C.2       1 <0>         0.5226
     10 O2          0.0021   -0.0041    0.0020 O.2       1 <0>        -0.4921
     11 C8         -1.2979    1.9293    0.0187 C.ar      1 <0>        -0.2349
     12 C9         -1.3197    3.3290    0.0322 C.ar      1 <0>         0.0359
     13 C10        -2.5115    3.9948    0.0351 C.ar      1 <0>        -0.1698
     14 C11        -3.7138    3.2874    0.0374 C.ar      1 <0>         0.3228
     15 C12        -3.7081    1.8984    0.0299 C.ar      1 <0>        -0.3086
     16 C13        -2.5057    1.2133    0.0205 C.ar      1 <0>         0.2539
     17 O3         -2.4941   -0.1433    0.0136 O.3       1 <0>        -0.2817
     18 C14        -3.7617   -0.8030    0.0160 C.3       1 <0>         0.0146
     19 N2         -4.9225    3.9754    0.0469 N.pl3     1 <0>        -0.8687
     20 Cl1        -2.5309    5.7307    0.0440 Cl        1 <0>        -0.0589
     21 H1          7.2190    0.8631    0.2354 H         1 <0>         0.1258
     22 H2          6.4341   -0.7508    0.3115 H         1 <0>         0.1195
     23 H3          6.7811    0.1514    1.8255 H         1 <0>         0.1256
     24 H4          5.5624    1.6919   -1.2124 H         1 <0>         0.1408
     25 H5          4.6301    0.1565   -1.2116 H         1 <0>         0.1296
     26 H6          3.6101    2.8866   -0.2469 H         1 <0>         0.1030
     27 H7          3.1660    2.0786   -1.7885 H         1 <0>         0.1220
     28 H8          2.1428    0.1894   -0.5421 H         1 <0>         0.1035
     29 H9          2.9562    1.8075    1.9534 H         1 <0>         0.1010
     30 H10         2.0602    0.2508    1.9380 H         1 <0>         0.1184
     31 H11         4.0102   -0.8700    0.8810 H         1 <0>         0.1298
     32 H12         4.4830   -0.0956    2.4313 H         1 <0>         0.1383
     33 H13        -0.3926    3.8829    0.0353 H         1 <0>         0.1500
     34 H14        -4.6408    1.3538    0.0310 H         1 <0>         0.1468
     35 H15        -3.6082   -1.8922    0.0098 H         1 <0>         0.1095
     36 H16        -4.3304   -0.5078   -0.8781 H         1 <0>         0.0633
     37 H17        -4.3223   -0.5168    0.9182 H         1 <0>         0.0631
     38 H18        -5.8717    3.4196    0.0487 H         1 <0>         0.4315
     39 H19        -4.9292    5.0754    0.0526 H         1 <0>         0.4310
     40 H20         5.2266    1.8638    1.1928 H         1 <0>         0.4451
@<TRIPOS>BOND
     1    1    2 1
     2    1   21 1
     3    1   22 1
     4    1   23 1
     5    2    7 1
     6    2    3 1
     7    2   40 1
     8    3    4 1
     9    3   24 1
    10    3   25 1
    11    4    5 1
    12    4   26 1
    13    4   27 1
    14    5    6 1
    15    5    8 1
    16    5   28 1
    17    6    7 1
    18    6   29 1
    19    6   30 1
    20    7   31 1
    21    7   32 1
    22    8    9 1
    23    9   10 2
    24    9   11 1
    25   11   16 ar
    26   11   12 ar
    27   12   13 ar
    28   12   33 1
    29   13   14 ar
    30   13   20 1
    31   14   15 ar
    32   14   19 1
    33   15   16 ar
    34   15   34 1
    35   16   17 1
    36   17   18 1
    37   18   35 1
    38   18   36 1
    39   18   37 1
    40   19   38 1
    41   19   39 1
@<TRIPOS>MOLECULE
ZINC05734222
   29    30     0     0     0
SMALL
USER_CHARGES
2-(4-methoxy-1H-indol-3-yl)ethanamine
@<TRIPOS>ATOM
      1 C1         -0.0127    1.0858    0.0080 C.3       1 <0>         0.0231
      2 O1         -0.6816    1.5467    1.1837 O.3       1 <0>        -0.3249
      3 C2         -1.9747    1.1631    1.3482 C.ar      1 <0>         0.1656
      4 C3         -2.5883    0.3629    0.4036 C.ar      1 <0>        -0.2308
      5 C4         -3.9086   -0.0299    0.5696 C.ar      1 <0>        -0.0517
      6 C5         -4.6280    0.3694    1.6745 C.ar      1 <0>        -0.1608
      7 C6         -4.0317    1.1756    2.6397 C.ar      1 <0>         0.1330
      8 C7         -2.6925    1.5713    2.4789 C.ar      1 <0>        -0.1273
      9 C8         -2.3681    2.3913    3.6486 C.2       1 <0>        -0.1850
     10 C9         -3.4702    2.4375    4.4131 C.2       1 <0>         0.0740
     11 N1         -4.4777    1.7227    3.8220 N.pl3     1 <0>        -0.5870
     12 H1         -5.3695    1.6105    4.1866 H         1 <0>         0.4256
     13 C10        -1.0473    3.0563    3.9388 C.3       1 <0>        -0.0617
     14 C11        -0.9906    4.4098    3.2277 C.3       1 <0>        -0.0009
     15 H2          0.3589    5.9545    3.0517 H         1 <0>         0.4386
     16 H3          0.4451    5.1495    4.5044 H         1 <0>         0.4353
     17 H4          0.0021   -0.0041    0.0020 H         1 <0>         0.0614
     18 H5          1.0099    1.4631    0.0003 H         1 <0>         0.1012
     19 H6         -0.5399    1.4469   -0.8751 H         1 <0>         0.0597
     20 H7         -2.0376    0.0420   -0.4683 H         1 <0>         0.1328
     21 H8         -4.3776   -0.6551   -0.1757 H         1 <0>         0.1348
     22 H9         -5.6549    0.0564    1.7919 H         1 <0>         0.1279
     23 H10        -3.5530    2.9670    5.3507 H         1 <0>         0.1746
     24 H11        -0.9442    3.2059    5.0136 H         1 <0>         0.0895
     25 H12        -0.2354    2.4234    3.5806 H         1 <0>         0.0967
     26 H13        -1.0937    4.2602    2.1530 H         1 <0>         0.1318
     27 H14        -1.8025    5.0427    3.5860 H         1 <0>         0.1318
     28 N2          0.3127    5.0411    3.5002 N.4       1 <0>        -0.6469
     29 H15         1.0609    4.4458    3.1260 H         1 <0>         0.4395
@<TRIPOS>BOND
     1    1    2 1
     2    1   17 1
     3    1   18 1
     4    1   19 1
     5    2    3 1
     6    3    8 ar
     7    3    4 ar
     8    4    5 ar
     9    4   20 1
    10    5    6 ar
    11    5   21 1
    12    6    7 ar
    13    6   22 1
    14    7   11 1
    15    7    8 ar
    16    8    9 1
    17    9   10 2
    18    9   13 1
    19   10   11 1
    20   10   23 1
    21   11   12 1
    22   13   14 1
    23   13   24 1
    24   13   25 1
    25   14   26 1
    26   14   27 1
    27   14   28 1
    28   15   28 1
    29   16   28 1
    30   28   29 1
@<TRIPOS>MOLECULE
ZINC00057058
   26    27     0     0     0
SMALL
USER_CHARGES

@<TRIPOS>ATOM
      1 C1         -0.0168    1.3880    0.0097 C.ar      1 <0>        -0.1182
      2 C2          1.1587    2.1055    0.0023 C.ar      1 <0>        -0.1024
      3 C3          2.3795    1.4398   -0.0129 C.ar      1 <0>         0.0862
      4 C4          2.4019    0.0334   -0.0206 C.ar      1 <0>        -0.0842
      5 C5          1.2039   -0.6838   -0.0130 C.ar      1 <0>        -0.1143
      6 C6          0.0021   -0.0041    0.0020 C.ar      1 <0>         0.0953
      7 O1         -1.1679   -0.6972    0.0094 O.3       1 <0>        -0.4959
      8 C7          3.8159   -0.3493   -0.0361 C.2       1 <0>        -0.2101
      9 C8          4.5307    0.7870   -0.0369 C.2       1 <0>         0.0918
     10 N1          3.6908    1.8667   -0.0231 N.pl3     1 <0>        -0.5866
     11 H1          3.9751    2.7941   -0.0208 H         1 <0>         0.4248
     12 C9          4.3642   -1.7530   -0.0489 C.3       1 <0>        -0.0616
     13 C10         4.4190   -2.2661   -1.4892 C.3       1 <0>        -0.0080
     14 N2          4.9535   -3.6343   -1.5017 N.4       1 <0>        -0.6389
     15 H2         -0.9621    1.9101    0.0260 H         1 <0>         0.1389
     16 H3          1.1325    3.1852    0.0080 H         1 <0>         0.1315
     17 H4          1.2172   -1.7637   -0.0192 H         1 <0>         0.1256
     18 H5         -1.5147   -0.8930   -0.8718 H         1 <0>         0.3922
     19 H6          5.6093    0.8408   -0.0472 H         1 <0>         0.1750
     20 H7          5.3681   -1.7548    0.3759 H         1 <0>         0.0927
     21 H8          3.7180   -2.4009    0.5433 H         1 <0>         0.0925
     22 H9          3.4152   -2.2643   -1.9140 H         1 <0>         0.1329
     23 H10         5.0652   -1.6182   -2.0814 H         1 <0>         0.1331
     24 H11         5.8827   -3.6360   -1.1085 H         1 <0>         0.4347
     25 H12         4.3553   -4.2341   -0.9535 H         1 <0>         0.4353
     26 H13         4.9896   -3.9727   -2.4515 H         1 <0>         0.4379
@<TRIPOS>BOND
     1    1    6 ar
     2    1    2 ar
     3    1   15 1
     4    2    3 ar
     5    2   16 1
     6    3   10 1
     7    3    4 ar
     8    4    5 ar
     9    4    8 1
    10    5    6 ar
    11    5   17 1
    12    6    7 1
    13    7   18 1
    14    8    9 2
    15    8   12 1
    16    9   10 1
    17    9   19 1
    18   10   11 1
    19   12   13 1
    20   12   20 1
    21   12   21 1
    22   13   14 1
    23   13   22 1
    24   13   23 1
    25   14   24 1
    26   14   25 1
    27   14   26 1
@<TRIPOS>MOLECULE
ZINC00020248
   46    48     0     0     0
SMALL
USER_CHARGES

@<TRIPOS>ATOM
      1 C1         -5.6600    1.3618    0.4597 C.3       1 <0>        -0.0474
      2 N1         -5.6471   -0.0878    0.2218 N.4       1 <0>        -0.3867
      3 C2         -6.3574   -0.3850   -1.0293 C.3       1 <0>        -0.0523
      4 C3         -4.2581   -0.5548    0.1191 C.3       1 <0>        -0.0083
      5 C4         -4.2405   -2.0797   -0.0038 C.3       1 <0>        -0.1741
      6 C5         -2.7938   -2.5661   -0.1108 C.3       1 <0>         0.1309
      7 N2         -2.7704   -4.0309   -0.1190 N.pl3     1 <0>        -0.5935
      8 C6         -2.7303   -4.6837   -1.3451 C.ar      1 <0>         0.1859
      9 C7         -1.8260   -4.1660   -2.2811 C.ar      1 <0>        -0.1574
     10 C8         -1.6797   -4.7476   -3.5192 C.ar      1 <0>        -0.0952
     11 C9         -2.4365   -5.8609   -3.8384 C.ar      1 <0>        -0.1332
     12 C10        -3.3330   -6.3646   -2.9249 C.ar      1 <0>        -0.0999
     13 C11        -3.5037   -5.7750   -1.6688 C.ar      1 <0>        -0.1089
     14 C12        -4.5743   -6.4166   -0.8216 C.3       1 <0>        -0.0721
     15 C13        -4.9918   -5.6033    0.3783 C.3       1 <0>        -0.0690
     16 C14        -3.8887   -5.4681    1.3836 C.ar      1 <0>        -0.0980
     17 C15        -2.7839   -4.6994    1.1019 C.ar      1 <0>         0.1741
     18 C16        -1.7322   -4.5882    1.9998 C.ar      1 <0>        -0.1187
     19 C17        -1.8086   -5.2524    3.2126 C.ar      1 <0>        -0.0223
     20 C18        -2.9248   -6.0132    3.5136 C.ar      1 <0>        -0.1131
     21 C19        -3.9754   -6.1256    2.6005 C.ar      1 <0>        -0.0889
     22 Cl1        -0.5058   -5.1313    4.3535 Cl        1 <0>        -0.0554
     23 H1         -6.6906    1.7083    0.5359 H         1 <0>         0.1247
     24 H2         -5.1330    1.5823    1.3879 H         1 <0>         0.1236
     25 H3         -5.1660    1.8703   -0.3683 H         1 <0>         0.1224
     26 H4         -5.8633    0.1235   -1.8572 H         1 <0>         0.1230
     27 H5         -6.3478   -1.4606   -1.2058 H         1 <0>         0.1233
     28 H6         -7.3880   -0.0385   -0.9531 H         1 <0>         0.1247
     29 H7         -3.7907   -0.1139   -0.7614 H         1 <0>         0.1315
     30 H8         -3.7074   -0.2558    1.0110 H         1 <0>         0.1322
     31 H9         -4.7079   -2.5206    0.8766 H         1 <0>         0.0896
     32 H10        -4.7912   -2.3787   -0.8957 H         1 <0>         0.0908
     33 H11        -2.3515   -2.1905   -1.0335 H         1 <0>         0.0902
     34 H12        -2.2229   -2.1984    0.7418 H         1 <0>         0.0815
     35 H13        -1.2357   -3.2979   -2.0274 H         1 <0>         0.1217
     36 H14        -0.9815   -4.3392   -4.2348 H         1 <0>         0.1273
     37 H15        -2.3238   -6.3333   -4.8030 H         1 <0>         0.1262
     38 H16        -3.9182   -7.2346   -3.1839 H         1 <0>         0.1241
     39 H17        -5.4518   -6.5884   -1.4450 H         1 <0>         0.0825
     40 H18        -4.2074   -7.3823   -0.4739 H         1 <0>         0.0763
     41 H19        -5.2905   -4.6094    0.0453 H         1 <0>         0.0673
     42 H20        -5.8457   -6.0866    0.8532 H         1 <0>         0.0790
     43 H21        -0.8653   -3.9919    1.7562 H         1 <0>         0.1372
     44 H22        -2.9858   -6.5230    4.4638 H         1 <0>         0.1382
     45 H23        -4.8449   -6.7215    2.8354 H         1 <0>         0.1390
     46 H24        -6.1044   -0.5585    0.9882 H         1 <0>         0.4269
@<TRIPOS>BOND
     1    1    2 1
     2    1   23 1
     3    1   24 1
     4    1   25 1
     5    2    3 1
     6    2    4 1
     7    2   46 1
     8    3   26 1
     9    3   27 1
    10    3   28 1
    11    4    5 1
    12    4   29 1
    13    4   30 1
    14    5    6 1
    15    5   31 1
    16    5   32 1
    17    6    7 1
    18    6   33 1
    19    6   34 1
    20    7   17 1
    21    7    8 1
    22    8   13 ar
    23    8    9 ar
    24    9   10 ar
    25    9   35 1
    26   10   11 ar
    27   10   36 1
    28   11   12 ar
    29   11   37 1
    30   12   13 ar
    31   12   38 1
    32   13   14 1
    33   14   15 1
    34   14   39 1
    35   14   40 1
    36   15   16 1
    37   15   41 1
    38   15   42 1
    39   16   21 ar
    40   16   17 ar
    41   17   18 ar
    42   18   19 ar
    43   18   43 1
    44   19   20 ar
    45   19   22 1
    46   20   21 ar
    47   20   44 1
    48   21   45 1
@<TRIPOS>MOLECULE
ZINC01542113
   61    65     0     0     0
SMALL
USER_CHARGES
5-[4-[4-(5-cyano-1H-indol-3-yl)butyl]piperazin-1-yl]benzofuran-2-carboxamide
@<TRIPOS>ATOM
      1 C1         -0.6908   -1.8418   -9.9564 C.ar      1 <0>        -0.0533
      2 C2          0.2910   -0.9109  -10.1276 C.ar      1 <0>        -0.1223
      3 C3          0.4306    0.1367   -9.2201 C.ar      1 <0>         0.1217
      4 C4         -0.4445    0.2270   -8.1198 C.ar      1 <0>        -0.1088
      5 C5         -1.4499   -0.7217   -7.9498 C.ar      1 <0>        -0.0176
      6 C6         -1.5715   -1.7604   -8.8687 C.ar      1 <0>        -0.0509
      7 C7         -2.5971   -2.7459   -8.7030 C.1       1 <0>         0.2516
      8 N1         -3.4107   -3.5277   -8.5716 N.1       1 <0>        -0.4148
      9 C8         -0.0376    1.4225   -7.3759 C.2       1 <0>        -0.1737
     10 C9          1.0082    1.9522   -8.0291 C.2       1 <0>         0.0644
     11 N2          1.3011    1.1974   -9.1324 N.pl3     1 <0>        -0.5878
     12 H1          2.0171    1.3832   -9.7598 H         1 <0>         0.4230
     13 C10        -0.6691    1.9522   -6.1143 C.3       1 <0>        -0.0421
     14 C11        -0.0683    1.2355   -4.9034 C.3       1 <0>        -0.1132
     15 C12        -0.7095    1.7734   -3.6226 C.3       1 <0>        -0.1528
     16 C13        -0.1087    1.0567   -2.4117 C.3       1 <0>        -0.0044
     17 C14        -0.0127    1.0858    0.0080 C.3       1 <0>         0.0031
     18 C15        -0.7300    1.5798    1.2666 C.3       1 <0>         0.0230
     19 N3         -0.7832    3.0484    1.2523 N.pl3     1 <0>        -0.4826
     20 C16        -1.4948    3.5356    0.0624 C.3       1 <0>         0.0189
     21 C17        -0.7771    3.0416   -1.1959 C.3       1 <0>        -0.0039
     22 C18        -1.3696    3.5402    2.4236 C.ar      1 <0>         0.0698
     23 C19        -2.4823    4.3771    2.3463 C.ar      1 <0>        -0.1261
     24 C20        -3.0715    4.8698    3.4890 C.ar      1 <0>        -0.0768
     25 C21        -2.5589    4.5359    4.7374 C.ar      1 <0>         0.0632
     26 C22        -1.4363    3.6918    4.8192 C.ar      1 <0>        -0.1171
     27 C23        -0.8480    3.1911    3.6550 C.ar      1 <0>        -0.0686
     28 C24        -1.1565    3.5406    6.2468 C.2       1 <0>        -0.1139
     29 C25        -2.0959    4.2771    6.8946 C.2       1 <0>        -0.0141
     30 O1         -2.9174    4.8595    5.9964 O.3       1 <0>        -0.1814
     31 C26        -2.2018    4.4184    8.3536 C.2       1 <0>         0.6027
     32 O2         -1.4080    3.8496    9.0791 O.2       1 <0>        -0.5088
     33 N4         -3.1784    5.1782    8.8880 N.am      1 <0>        -0.8362
     34 H2         -0.7910   -2.6497  -10.6661 H         1 <0>         0.1384
     35 H3          0.9625   -0.9859  -10.9702 H         1 <0>         0.1339
     36 H4         -2.1260   -0.6548   -7.1103 H         1 <0>         0.1300
     37 H5          1.5403    2.8426   -7.7283 H         1 <0>         0.1729
     38 H6         -1.7443    1.7758   -6.1444 H         1 <0>         0.0747
     39 H7         -0.4787    3.0225   -6.0344 H         1 <0>         0.0746
     40 H8          1.0069    1.4120   -4.8733 H         1 <0>         0.0747
     41 H9         -0.2587    0.1653   -4.9833 H         1 <0>         0.0754
     42 H10        -1.7847    1.5969   -3.6527 H         1 <0>         0.0872
     43 H11        -0.5191    2.8436   -3.5426 H         1 <0>         0.0900
     44 H12         0.9665    1.2331   -2.3816 H         1 <0>         0.1321
     45 H13        -0.2991   -0.0136   -2.4916 H         1 <0>         0.1300
     46 H14         0.0021   -0.0041    0.0020 H         1 <0>         0.1381
     47 H15         1.0098    1.4634    0.0003 H         1 <0>         0.1410
     48 H16        -1.7436    1.1797    1.2882 H         1 <0>         0.0704
     49 H17        -0.1871    1.2439    2.1500 H         1 <0>         0.1282
     50 H18        -1.5096    4.6255    0.0684 H         1 <0>         0.1303
     51 H19        -2.5172    3.1577    0.0699 H         1 <0>         0.0721
     52 H20         0.2366    3.4417   -1.2171 H         1 <0>         0.1411
     53 H21        -1.3193    3.3776   -2.0798 H         1 <0>         0.1421
     54 H22        -2.8860    4.6416    1.3801 H         1 <0>         0.1422
     55 H23        -3.9329    5.5171    3.4154 H         1 <0>         0.1438
     56 H24         0.0111    2.5395    3.7168 H         1 <0>         0.1379
     57 H25        -0.3635    2.9604    6.6952 H         1 <0>         0.1760
     58 H26        -3.8114    5.6317    8.3096 H         1 <0>         0.4096
     59 H27        -3.2483    5.2714    9.8509 H         1 <0>         0.4159
     60 N5         -0.7506    1.5637   -1.1801 N.4       1 <0>        -0.3985
     61 H28        -1.7146    1.2130   -1.1376 H         1 <0>         0.4256
@<TRIPOS>BOND
     1    1    6 ar
     2    1    2 ar
     3    1   34 1
     4    2    3 ar
     5    2   35 1
     6    3   11 1
     7    3    4 ar
     8    4    5 ar
     9    4    9 1
    10    5    6 ar
    11    5   36 1
    12    6    7 1
    13    7    8 3
    14    9   10 2
    15    9   13 1
    16   10   11 1
    17   10   37 1
    18   11   12 1
    19   13   14 1
    20   13   38 1
    21   13   39 1
    22   14   15 1
    23   14   40 1
    24   14   41 1
    25   15   16 1
    26   15   42 1
    27   15   43 1
    28   16   44 1
    29   16   45 1
    30   16   60 1
    31   17   18 1
    32   17   46 1
    33   17   47 1
    34   17   60 1
    35   18   19 1
    36   18   48 1
    37   18   49 1
    38   19   20 1
    39   19   22 1
    40   20   21 1
    41   20   50 1
    42   20   51 1
    43   21   52 1
    44   21   53 1
    45   21   60 1
    46   22   27 ar
    47   22   23 ar
    48   23   24 ar
    49   23   54 1
    50   24   25 ar
    51   24   55 1
    52   25   30 1
    53   25   26 ar
    54   26   27 ar
    55   26   28 1
    56   27   56 1
    57   28   29 2
    58   28   57 1
    59   29   30 1
    60   29   31 1
    61   31   32 2
    62   31   33 am
    63   33   58 1
    64   33   59 1
    65   60   61 1
@<TRIPOS>MOLECULE
ZINC01530741
   42    44     0     0     0
SMALL
USER_CHARGES

@<TRIPOS>ATOM
      1 C1         -0.0178    1.4648    0.0101 C.3       1 <0>        -0.0473
      2 N1          0.0021   -0.0041    0.0020 N.4       1 <0>        -0.5104
      3 C2         -1.3761   -0.5125    0.0124 C.3       1 <0>        -0.0075
      4 C3         -1.3553   -2.0424    0.0040 C.3       1 <0>        -0.1205
      5 C4         -2.7691   -2.5640    0.0147 C.2       1 <0>        -0.1701
      6 C5         -3.1759   -3.4141   -0.9354 C.2       1 <0>         0.0084
      7 C6         -2.2617   -3.8737   -2.0162 C.ar      1 <0>        -0.0603
      8 C7         -1.0502   -4.4584   -1.6510 C.ar      1 <0>        -0.1120
      9 C8         -0.1817   -4.9254   -2.6144 C.ar      1 <0>        -0.1225
     10 C9         -0.5309   -4.8091   -3.9481 C.ar      1 <0>        -0.1072
     11 C10        -1.7216   -4.2226   -4.3099 C.ar      1 <0>        -0.1263
     12 C11        -2.6129   -3.7258   -3.3561 C.ar      1 <0>        -0.0535
     13 C12        -3.8344   -3.0498   -3.9297 C.3       1 <0>        -0.0765
     14 C13        -4.7567   -2.4533   -2.8869 C.3       1 <0>        -0.0806
     15 C14        -5.3648   -3.4987   -1.9877 C.ar      1 <0>        -0.0737
     16 C15        -4.5615   -3.9515   -0.9605 C.ar      1 <0>        -0.0697
     17 C16        -5.0352   -4.8627   -0.0270 C.ar      1 <0>        -0.0955
     18 C17        -6.3272   -5.3414   -0.1696 C.ar      1 <0>        -0.1191
     19 C18        -7.1195   -4.9199   -1.2225 C.ar      1 <0>        -0.1080
     20 C19        -6.6408   -3.9814   -2.1491 C.ar      1 <0>        -0.1083
     21 H1          1.0047    1.8421    0.0024 H         1 <0>         0.1266
     22 H2         -0.5450    1.8259   -0.8730 H         1 <0>         0.1232
     23 H3         -0.5280    1.8163    0.9069 H         1 <0>         0.1239
     24 H4          0.4744   -0.3295   -0.8281 H         1 <0>         0.4301
     25 H5         -1.8863   -0.1610    0.9092 H         1 <0>         0.1332
     26 H6         -1.9033   -0.1515   -0.8706 H         1 <0>         0.1314
     27 H7         -0.8451   -2.3939   -0.8928 H         1 <0>         0.0991
     28 H8         -0.8281   -2.4035    0.8871 H         1 <0>         0.0962
     29 H9         -3.4541   -2.2517    0.7892 H         1 <0>         0.1310
     30 H10        -0.7900   -4.5458   -0.6065 H         1 <0>         0.1235
     31 H11         0.7582   -5.3762   -2.3319 H         1 <0>         0.1290
     32 H12         0.1367   -5.1814   -4.7112 H         1 <0>         0.1265
     33 H13        -1.9733   -4.1443   -5.3573 H         1 <0>         0.1247
     34 H14        -3.5084   -2.2546   -4.6003 H         1 <0>         0.0855
     35 H15        -4.3952   -3.7815   -4.5113 H         1 <0>         0.0834
     36 H16        -4.1905   -1.7497   -2.2766 H         1 <0>         0.0703
     37 H17        -5.5577   -1.9136   -3.3920 H         1 <0>         0.0793
     38 H18        -4.4114   -5.1904    0.7915 H         1 <0>         0.1267
     39 H19        -6.7188   -6.0491    0.5460 H         1 <0>         0.1278
     40 H20        -8.1181   -5.3161   -1.3327 H         1 <0>         0.1275
     41 H21        -7.2557   -3.6486   -2.9723 H         1 <0>         0.1315
     42 H22         0.4901   -0.3383    0.8195 H         1 <0>         0.4302
@<TRIPOS>BOND
     1    1    2 1
     2    1   21 1
     3    1   22 1
     4    1   23 1
     5    2    3 1
     6    2   24 1
     7    2   42 1
     8    3    4 1
     9    3   25 1
    10    3   26 1
    11    4    5 1
    12    4   27 1
    13    4   28 1
    14    5    6 2
    15    5   29 1
    16    6   16 1
    17    6    7 1
    18    7   12 ar
    19    7    8 ar
    20    8    9 ar
    21    8   30 1
    22    9   10 ar
    23    9   31 1
    24   10   11 ar
    25   10   32 1
    26   11   12 ar
    27   11   33 1
    28   12   13 1
    29   13   14 1
    30   13   34 1
    31   13   35 1
    32   14   15 1
    33   14   36 1
    34   14   37 1
    35   15   20 ar
    36   15   16 ar
    37   16   17 ar
    38   17   18 ar
    39   17   38 1
    40   18   19 ar
    41   18   39 1
    42   19   20 ar
    43   19   40 1
    44   20   41 1
@<TRIPOS>MOLECULE
ZINC00004448
   42    45     0     0     0
SMALL
USER_CHARGES

@<TRIPOS>ATOM
      1 C1         -0.4391   -3.3377    1.8722 C.3       1 <0>        -0.1123
      2 C2         -0.1697   -2.2466    0.8683 C.cat     1 <0>         0.2989
      3 N1         -0.0089   -2.4170   -0.4155 N.pl3     1 <0>        -0.4743
      4 C3          0.2118   -1.2278   -0.9953 C.2       1 <0>        -0.0131
      5 C4          0.1869   -0.2847   -0.0343 C.2       1 <0>         0.0706
      6 N2         -0.0604   -0.9298    1.1473 N.pl3     1 <0>        -0.3998
      7 C5         -0.1811   -0.3082    2.4684 C.3       1 <0>         0.1079
      8 C6         -1.6568   -0.2375    2.8660 C.3       1 <0>        -0.1546
      9 H1         -2.1022   -1.2287    2.7806 H         1 <0>         0.1154
     10 C7         -1.7700    0.2464    4.3115 C.3       1 <0>        -0.1029
     11 C8         -3.2416    0.3294    4.7350 C.3       1 <0>        -0.0678
     12 C9         -3.9618    1.2252    3.7555 C.2       1 <0>         0.1597
     13 C10        -3.5215    1.3875    2.4463 C.2       1 <0>        -0.2921
     14 C11        -4.4444    2.3149    1.8134 C.ar      1 <0>        -0.0463
     15 C12        -4.5189    2.8565    0.5307 C.ar      1 <0>        -0.0763
     16 C13        -5.5626    3.7304    0.2795 C.ar      1 <0>        -0.1250
     17 C14        -6.4928    4.0558    1.2516 C.ar      1 <0>        -0.1030
     18 C15        -6.4370    3.5295    2.5307 C.ar      1 <0>        -0.1113
     19 C16        -5.3960    2.6468    2.8098 C.ar      1 <0>         0.0678
     20 N3         -5.0642    1.9669    3.9526 N.pl3     1 <0>        -0.4390
     21 C17        -5.8081    2.0387    5.2127 C.3       1 <0>         0.0582
     22 C18        -2.3800    0.7188    1.9432 C.2       1 <0>         0.4331
     23 O1         -1.9955    0.9054    0.8069 O.2       1 <0>        -0.4805
     24 H2         -1.5134   -3.4249    2.0346 H         1 <0>         0.1174
     25 H3         -0.0509   -4.2834    1.4940 H         1 <0>         0.1154
     26 H4          0.0521   -3.0941    2.8143 H         1 <0>         0.1145
     27 H5          0.3800   -1.0566   -2.0483 H         1 <0>         0.2213
     28 H6          0.3302    0.7771   -0.1704 H         1 <0>         0.2190
     29 H7          0.3645   -0.9030    3.2010 H         1 <0>         0.1257
     30 H8          0.2350    0.6987    2.4355 H         1 <0>         0.1281
     31 H9         -1.2451   -0.4489    4.9665 H         1 <0>         0.0978
     32 H10        -1.3139    1.2326    4.3982 H         1 <0>         0.0859
     33 H11        -3.6859   -0.6659    4.7191 H         1 <0>         0.1031
     34 H12        -3.3127    0.7488    5.7386 H         1 <0>         0.1005
     35 H13        -3.7956    2.6061   -0.2312 H         1 <0>         0.1359
     36 H14        -5.6535    4.1710   -0.7023 H         1 <0>         0.1265
     37 H15        -7.2882    4.7431    1.0040 H         1 <0>         0.1296
     38 H16        -7.1689    3.7920    3.2802 H         1 <0>         0.1330
     39 H17        -5.4075    2.8462    5.8256 H         1 <0>         0.0854
     40 H18        -6.8605    2.2295    5.0030 H         1 <0>         0.0945
     41 H19        -5.7096    1.0938    5.7471 H         1 <0>         0.0927
     42 H20        -0.0436   -3.2691   -0.8775 H         1 <0>         0.4603
@<TRIPOS>BOND
     1    1    2 1
     2    1   24 1
     3    1   25 1
     4    1   26 1
     5    2    6 1
     6    2    3 2
     7    3    4 1
     8    3   42 1
     9    4    5 2
    10    4   27 1
    11    5    6 1
    12    5   28 1
    13    6    7 1
    14    7    8 1
    15    7   29 1
    16    7   30 1
    17    8    9 1
    18    8   22 1
    19    8   10 1
    20   10   11 1
    21   10   31 1
    22   10   32 1
    23   11   12 1
    24   11   33 1
    25   11   34 1
    26   12   20 1
    27   12   13 2
    28   13   14 1
    29   13   22 1
    30   14   19 ar
    31   14   15 ar
    32   15   16 ar
    33   15   35 1
    34   16   17 ar
    35   16   36 1
    36   17   18 ar
    37   17   37 1
    38   18   19 ar
    39   18   38 1
    40   19   20 1
    41   20   21 1
    42   21   39 1
    43   21   40 1
    44   21   41 1
    45   22   23 2
@<TRIPOS>MOLECULE
ZINC00004448
   41    44     0     0     0
SMALL
USER_CHARGES

@<TRIPOS>ATOM
      1 C1         -0.4391   -3.3377    1.8722 C.3       1 <0>        -0.0665
      2 C2         -0.1697   -2.2466    0.8683 C.2       1 <0>         0.1894
      3 N1         -0.0089   -2.4170   -0.4155 N.2       1 <0>        -0.4892
      4 C3          0.2118   -1.2278   -0.9953 C.2       1 <0>        -0.0442
      5 C4          0.1868   -0.2847   -0.0343 C.2       1 <0>        -0.0089
      6 N2         -0.0604   -0.9298    1.1473 N.pl3     1 <0>        -0.4502
      7 C5         -0.1811   -0.3082    2.4684 C.3       1 <0>         0.1208
      8 C6         -1.6568   -0.2375    2.8660 C.3       1 <0>        -0.1505
      9 H1         -2.1022   -1.2287    2.7806 H         1 <0>         0.1106
     10 C7         -1.7700    0.2464    4.3115 C.3       1 <0>        -0.1021
     11 C8         -3.2416    0.3294    4.7350 C.3       1 <0>        -0.0641
     12 C9         -3.9618    1.2252    3.7555 C.2       1 <0>         0.1486
     13 C10        -3.5215    1.3875    2.4463 C.2       1 <0>        -0.2760
     14 C11        -4.4444    2.3149    1.8134 C.ar      1 <0>        -0.0490
     15 C12        -4.5189    2.8565    0.5307 C.ar      1 <0>        -0.0694
     16 C13        -5.5626    3.7304    0.2795 C.ar      1 <0>        -0.1333
     17 C14        -6.4928    4.0558    1.2516 C.ar      1 <0>        -0.1057
     18 C15        -6.4370    3.5295    2.5307 C.ar      1 <0>        -0.1186
     19 C16        -5.3960    2.6468    2.8098 C.ar      1 <0>         0.0711
     20 N3         -5.0642    1.9669    3.9526 N.pl3     1 <0>        -0.4472
     21 C17        -5.8081    2.0387    5.2127 C.3       1 <0>         0.0636
     22 C18        -2.3800    0.7188    1.9432 C.2       1 <0>         0.4253
     23 O1         -1.9955    0.9054    0.8069 O.2       1 <0>        -0.4537
     24 H2         -1.5134   -3.4248    2.0346 H         1 <0>         0.0742
     25 H3         -0.0510   -4.2834    1.4939 H         1 <0>         0.0891
     26 H4          0.0522   -3.0941    2.8143 H         1 <0>         0.0704
     27 H5          0.3800   -1.0566   -2.0483 H         1 <0>         0.1656
     28 H6          0.3302    0.7771   -0.1704 H         1 <0>         0.1690
     29 H7          0.3645   -0.9030    3.2010 H         1 <0>         0.0973
     30 H8          0.2350    0.6987    2.4355 H         1 <0>         0.0958
     31 H9         -1.2451   -0.4489    4.9665 H         1 <0>         0.0916
     32 H10        -1.3139    1.2326    4.3982 H         1 <0>         0.0786
     33 H11        -3.6859   -0.6659    4.7191 H         1 <0>         0.0996
     34 H12        -3.3127    0.7488    5.7386 H         1 <0>         0.0928
     35 H13        -3.7956    2.6061   -0.2312 H         1 <0>         0.1375
     36 H14        -5.6535    4.1710   -0.7023 H         1 <0>         0.1236
     37 H15        -7.2882    4.7431    1.0040 H         1 <0>         0.1251
     38 H16        -7.1689    3.7920    3.2802 H         1 <0>         0.1289
     39 H17        -5.4075    2.8462    5.8256 H         1 <0>         0.0801
     40 H18        -6.8605    2.2295    5.0030 H         1 <0>         0.0900
     41 H19        -5.7096    1.0938    5.7471 H         1 <0>         0.0899
@<TRIPOS>BOND
     1    1    2 1
     2    1   24 1
     3    1   25 1
     4    1   26 1
     5    2    6 1
     6    2    3 2
     7    3    4 1
     8    4    5 2
     9    4   27 1
    10    5    6 1
    11    5   28 1
    12    6    7 1
    13    7    8 1
    14    7   29 1
    15    7   30 1
    16    8    9 1
    17    8   22 1
    18    8   10 1
    19   10   11 1
    20   10   31 1
    21   10   32 1
    22   11   12 1
    23   11   33 1
    24   11   34 1
    25   12   20 1
    26   12   13 2
    27   13   14 1
    28   13   22 1
    29   14   19 ar
    30   14   15 ar
    31   15   16 ar
    32   15   35 1
    33   16   17 ar
    34   16   36 1
    35   17   18 ar
    36   17   37 1
    37   18   19 ar
    38   18   38 1
    39   19   20 1
    40   20   21 1
    41   21   39 1
    42   21   40 1
    43   21   41 1
    44   22   23 2
@<TRIPOS>MOLECULE
ZINC00075126
   42    45     0     0     0
SMALL
USER_CHARGES

@<TRIPOS>ATOM
      1 C1         -0.0184    1.5028    0.0103 C.3       1 <0>        -0.1124
      2 C2          0.0021   -0.0041    0.0020 C.cat     1 <0>         0.2979
      3 N1          0.0080   -0.7588   -1.0626 N.pl3     1 <0>        -0.4737
      4 C3          0.0275   -2.0475   -0.6911 C.2       1 <0>        -0.0205
      5 C4          0.0339   -2.0930    0.6548 C.2       1 <0>         0.0808
      6 N2          0.0232   -0.7970    1.0950 N.pl3     1 <0>        -0.4033
      7 C5          0.0304   -0.3529    2.4910 C.3       1 <0>         0.1075
      8 C6         -1.4059   -0.0982    2.9525 C.3       1 <0>        -0.1549
      9 H1         -1.8841    0.6077    2.2734 H         1 <0>         0.1159
     10 C7         -1.3885    0.4885    4.3640 C.3       1 <0>        -0.1033
     11 C8         -2.8183    0.7509    4.8527 C.3       1 <0>        -0.0678
     12 C9         -3.5900   -0.5440    4.7622 C.2       1 <0>         0.1608
     13 C10        -3.2525   -1.5391    3.8511 C.2       1 <0>        -0.2929
     14 C11        -4.1973   -2.6242    4.0575 C.ar      1 <0>        -0.0457
     15 C12        -4.3599   -3.8715    3.4560 C.ar      1 <0>        -0.0764
     16 C13        -5.3958   -4.6619    3.9235 C.ar      1 <0>        -0.1247
     17 C14        -6.2353   -4.2398    4.9399 C.ar      1 <0>        -0.1031
     18 C15        -6.0913   -3.0056    5.5500 C.ar      1 <0>        -0.1109
     19 C16        -5.0557   -2.1905    5.0985 C.ar      1 <0>         0.0674
     20 N3         -4.6518   -0.9388    5.4840 N.pl3     1 <0>        -0.4386
     21 C17        -5.2885   -0.1432    6.5366 C.3       1 <0>         0.0582
     22 C18        -2.1743   -1.4014    2.9445 C.2       1 <0>         0.4351
     23 O1         -1.8781   -2.2996    2.1833 O.2       1 <0>        -0.4834
     24 H2          1.0042    1.8801    0.0026 H         1 <0>         0.1202
     25 H3         -0.5455    1.8639   -0.8728 H         1 <0>         0.1154
     26 H4         -0.5286    1.8543    0.9071 H         1 <0>         0.1111
     27 H5          0.0365   -2.8993   -1.3550 H         1 <0>         0.2206
     28 H6          0.0489   -2.9814    1.2688 H         1 <0>         0.2208
     29 H7          0.4812   -1.1244    3.1154 H         1 <0>         0.1274
     30 H8          0.6082    0.5674    2.5767 H         1 <0>         0.1264
     31 H9         -0.8997   -0.2132    5.0399 H         1 <0>         0.0860
     32 H10        -0.8320    1.4257    4.3579 H         1 <0>         0.0979
     33 H11        -2.7965    1.0950    5.8867 H         1 <0>         0.1003
     34 H12        -3.2899    1.5053    4.2230 H         1 <0>         0.1037
     35 H13        -3.7083   -4.2053    2.6621 H         1 <0>         0.1362
     36 H14        -5.5535   -5.6351    3.4825 H         1 <0>         0.1266
     37 H15        -7.0290   -4.8948    5.2675 H         1 <0>         0.1297
     38 H16        -6.7537   -2.6880    6.3417 H         1 <0>         0.1330
     39 H17        -6.0755    0.4723    6.1009 H         1 <0>         0.0853
     40 H18        -5.7197   -0.8087    7.2844 H         1 <0>         0.0946
     41 H19        -4.5439    0.4986    7.0075 H         1 <0>         0.0930
     42 H20        -0.0004   -0.4384   -1.9781 H         1 <0>         0.4599
@<TRIPOS>BOND
     1    1    2 1
     2    1   24 1
     3    1   25 1
     4    1   26 1
     5    2    6 1
     6    2    3 2
     7    3    4 1
     8    3   42 1
     9    4    5 2
    10    4   27 1
    11    5    6 1
    12    5   28 1
    13    6    7 1
    14    7    8 1
    15    7   29 1
    16    7   30 1
    17    8    9 1
    18    8   22 1
    19    8   10 1
    20   10   11 1
    21   10   31 1
    22   10   32 1
    23   11   12 1
    24   11   33 1
    25   11   34 1
    26   12   20 1
    27   12   13 2
    28   13   14 1
    29   13   22 1
    30   14   19 ar
    31   14   15 ar
    32   15   16 ar
    33   15   35 1
    34   16   17 ar
    35   16   36 1
    36   17   18 ar
    37   17   37 1
    38   18   19 ar
    39   18   38 1
    40   19   20 1
    41   20   21 1
    42   21   39 1
    43   21   40 1
    44   21   41 1
    45   22   23 2
@<TRIPOS>MOLECULE
ZINC00075126
   41    44     0     0     0
SMALL
USER_CHARGES

@<TRIPOS>ATOM
      1 C1         -0.0184    1.5028    0.0103 C.3       1 <0>        -0.0661
      2 C2          0.0021   -0.0041    0.0020 C.2       1 <0>         0.1869
      3 N1          0.0080   -0.7588   -1.0626 N.2       1 <0>        -0.4889
      4 C3          0.0275   -2.0475   -0.6911 C.2       1 <0>        -0.0505
      5 C4          0.0339   -2.0930    0.6548 C.2       1 <0>         0.0014
      6 N2          0.0232   -0.7970    1.0950 N.pl3     1 <0>        -0.4534
      7 C5          0.0304   -0.3529    2.4910 C.3       1 <0>         0.1206
      8 C6         -1.4059   -0.0982    2.9525 C.3       1 <0>        -0.1509
      9 H1         -1.8841    0.6077    2.2734 H         1 <0>         0.1102
     10 C7         -1.3885    0.4885    4.3640 C.3       1 <0>        -0.1025
     11 C8         -2.8183    0.7509    4.8527 C.3       1 <0>        -0.0640
     12 C9         -3.5900   -0.5440    4.7622 C.2       1 <0>         0.1489
     13 C10        -3.2525   -1.5391    3.8511 C.2       1 <0>        -0.2766
     14 C11        -4.1973   -2.6242    4.0575 C.ar      1 <0>        -0.0486
     15 C12        -4.3599   -3.8715    3.4560 C.ar      1 <0>        -0.0694
     16 C13        -5.3958   -4.6619    3.9235 C.ar      1 <0>        -0.1332
     17 C14        -6.2353   -4.2398    4.9399 C.ar      1 <0>        -0.1059
     18 C15        -6.0913   -3.0056    5.5500 C.ar      1 <0>        -0.1184
     19 C16        -5.0557   -2.1905    5.0985 C.ar      1 <0>         0.0708
     20 N3         -4.6518   -0.9388    5.4840 N.pl3     1 <0>        -0.4469
     21 C17        -5.2885   -0.1432    6.5366 C.3       1 <0>         0.0636
     22 C18        -2.1743   -1.4014    2.9445 C.2       1 <0>         0.4259
     23 O1         -1.8781   -2.2996    2.1833 O.2       1 <0>        -0.4545
     24 H2          1.0042    1.8801    0.0026 H         1 <0>         0.0774
     25 H3         -0.5455    1.8639   -0.8728 H         1 <0>         0.0878
     26 H4         -0.5286    1.8543    0.9071 H         1 <0>         0.0677
     27 H5          0.0365   -2.8993   -1.3550 H         1 <0>         0.1650
     28 H6          0.0489   -2.9814    1.2688 H         1 <0>         0.1714
     29 H7          0.4812   -1.1244    3.1154 H         1 <0>         0.0947
     30 H8          0.6082    0.5674    2.5767 H         1 <0>         0.0991
     31 H9         -0.8997   -0.2132    5.0399 H         1 <0>         0.0787
     32 H10        -0.8320    1.4257    4.3579 H         1 <0>         0.0916
     33 H11        -2.7965    1.0950    5.8867 H         1 <0>         0.0925
     34 H12        -3.2899    1.5053    4.2230 H         1 <0>         0.0998
     35 H13        -3.7083   -4.2053    2.6621 H         1 <0>         0.1378
     36 H14        -5.5535   -5.6351    3.4825 H         1 <0>         0.1237
     37 H15        -7.0290   -4.8948    5.2675 H         1 <0>         0.1251
     38 H16        -6.7537   -2.6880    6.3417 H         1 <0>         0.1289
     39 H17        -6.0755    0.4723    6.1009 H         1 <0>         0.0805
     40 H18        -5.7197   -0.8087    7.2844 H         1 <0>         0.0898
     41 H19        -4.5439    0.4986    7.0075 H         1 <0>         0.0898
@<TRIPOS>BOND
     1    1    2 1
     2    1   24 1
     3    1   25 1
     4    1   26 1
     5    2    6 1
     6    2    3 2
     7    3    4 1
     8    4    5 2
     9    4   27 1
    10    5    6 1
    11    5   28 1
    12    6    7 1
    13    7    8 1
    14    7   29 1
    15    7   30 1
    16    8    9 1
    17    8   22 1
    18    8   10 1
    19   10   11 1
    20   10   31 1
    21   10   32 1
    22   11   12 1
    23   11   33 1
    24   11   34 1
    25   12   20 1
    26   12   13 2
    27   13   14 1
    28   13   22 1
    29   14   19 ar
    30   14   15 ar
    31   15   16 ar
    32   15   35 1
    33   16   17 ar
    34   16   36 1
    35   17   18 ar
    36   17   37 1
    37   18   19 ar
    38   18   38 1
    39   19   20 1
    40   20   21 1
    41   21   39 1
    42   21   40 1
    43   21   41 1
    44   22   23 2
@<TRIPOS>MOLECULE
ZINC04832953
   39    40     0     0     0
SMALL
USER_CHARGES
2-(1-piperidyl)ethyl anilinoformate
@<TRIPOS>ATOM
      1 C1          0.1794    4.1069    0.2523 C.ar      1 <0>        -0.1198
      2 C2          1.1457    3.4043    0.9486 C.ar      1 <0>        -0.0991
      3 C3          1.1340    2.0232    0.9456 C.ar      1 <0>        -0.1343
      4 C4          0.1508    1.3402    0.2420 C.ar      1 <0>         0.1358
      5 C5         -0.8145    2.0487   -0.4613 C.ar      1 <0>        -0.1164
      6 C6         -0.8007    3.4297   -0.4497 C.ar      1 <0>        -0.0998
      7 N1          0.1361   -0.0592    0.2370 N.am      1 <0>        -0.6407
      8 C7         -1.0380   -0.7208    0.2243 C.2       1 <0>         0.6537
      9 O1         -2.0812   -0.1052    0.1276 O.2       1 <0>        -0.5368
     10 O2         -1.0551   -2.0639    0.3186 O.3       1 <0>        -0.3850
     11 C8         -2.3554   -2.7096    0.2984 C.3       1 <0>         0.0519
     12 C9         -2.1745   -4.2244    0.4150 C.3       1 <0>         0.0027
     13 C10        -1.1313   -5.9484    1.7567 C.3       1 <0>        -0.0019
     14 C11        -0.3746   -6.2085    3.0612 C.3       1 <0>        -0.1478
     15 C12        -1.2924   -5.9017    4.2478 C.3       1 <0>        -0.1390
     16 C13        -1.7695   -4.4499    4.1518 C.3       1 <0>        -0.1466
     17 C14        -2.4858   -4.2407    2.8157 C.3       1 <0>        -0.0090
     18 H1          0.1905    5.1868    0.2565 H         1 <0>         0.1305
     19 H2          1.9101    3.9361    1.4957 H         1 <0>         0.1333
     20 H3          1.8890    1.4751    1.4896 H         1 <0>         0.1285
     21 H4         -1.5777    1.5203   -1.0135 H         1 <0>         0.1389
     22 H5         -1.5538    3.9813   -0.9928 H         1 <0>         0.1316
     23 H6          0.9710   -0.5530    0.2427 H         1 <0>         0.4189
     24 H7         -2.9530   -2.3496    1.1358 H         1 <0>         0.0985
     25 H8         -2.8629   -2.4753   -0.6374 H         1 <0>         0.1209
     26 H9         -3.1456   -4.7134    0.3378 H         1 <0>         0.1557
     27 H10        -1.5260   -4.5757   -0.3876 H         1 <0>         0.1428
     28 H11        -2.0032   -6.6006    1.7063 H         1 <0>         0.1317
     29 H12        -0.4760   -6.1523    0.9099 H         1 <0>         0.1294
     30 H13         0.5050   -5.5664    3.1060 H         1 <0>         0.0872
     31 H14        -0.0652   -7.2529    3.1011 H         1 <0>         0.1132
     32 H15        -0.7439   -6.0440    5.1789 H         1 <0>         0.0945
     33 H16        -2.1531   -6.5701    4.2262 H         1 <0>         0.0826
     34 H17        -0.9118   -3.7801    4.2137 H         1 <0>         0.0867
     35 H18        -2.4573   -4.2379    4.9705 H         1 <0>         0.1128
     36 H19        -2.8142   -3.2043    2.7380 H         1 <0>         0.1258
     37 H20        -3.3512   -4.9010    2.7604 H         1 <0>         0.1336
     38 N2         -1.5418   -4.5286    1.7151 N.4       1 <0>        -0.3967
     39 H21        -0.7095   -3.9379    1.8271 H         1 <0>         0.4318
@<TRIPOS>BOND
     1    1    6 ar
     2    1    2 ar
     3    1   18 1
     4    2    3 ar
     5    2   19 1
     6    3    4 ar
     7    3   20 1
     8    4    5 ar
     9    4    7 1
    10    5    6 ar
    11    5   21 1
    12    6   22 1
    13    7    8 am
    14    7   23 1
    15    8    9 2
    16    8   10 1
    17   10   11 1
    18   11   12 1
    19   11   24 1
    20   11   25 1
    21   12   26 1
    22   12   27 1
    23   12   38 1
    24   13   14 1
    25   13   28 1
    26   13   29 1
    27   13   38 1
    28   14   15 1
    29   14   30 1
    30   14   31 1
    31   15   16 1
    32   15   32 1
    33   15   33 1
    34   16   17 1
    35   16   34 1
    36   16   35 1
    37   17   36 1
    38   17   37 1
    39   17   38 1
    40   38   39 1
@<TRIPOS>MOLECULE
ZINC00009073
   38    41     0     0     0
SMALL
USER_CHARGES

@<TRIPOS>ATOM
      1 C1         -0.0178    1.4648    0.0101 C.3       1 <0>        -0.0530
      2 N1          0.0021   -0.0041    0.0020 N.4       1 <0>        -0.3818
      3 C2         -1.3707   -0.5099    0.0093 C.3       1 <0>        -0.0045
      4 C3         -1.3945   -2.0165   -0.1908 C.3       1 <0>        -0.1054
      5 C4         -0.2778   -2.7021    0.5444 C.ar      1 <0>        -0.0840
      6 C5         -0.2629   -4.0910    0.5709 C.ar      1 <0>        -0.1053
      7 C6          0.7244   -4.7743    1.2518 C.ar      1 <0>        -0.0885
      8 C7          1.7146   -4.0754    1.9128 C.ar      1 <0>        -0.0992
      9 C8          1.7194   -2.6860    1.8733 C.ar      1 <0>        -0.0068
     10 C9          0.7130   -1.9965    1.1919 C.ar      1 <0>        -0.1248
     11 C10         0.7133   -0.4906    1.1934 C.3       1 <0>         0.0895
     12 H1          0.2077   -0.1297    2.0890 H         1 <0>         0.1464
     13 C11         2.1391    0.0560    1.1696 C.3       1 <0>        -0.0929
     14 C12         2.9742   -0.5785    2.2479 C.ar      1 <0>        -0.0798
     15 C13         2.7759   -1.9188    2.5745 C.ar      1 <0>        -0.0653
     16 C14         3.5639   -2.5230    3.5530 C.ar      1 <0>         0.1042
     17 C15         4.5367   -1.7751    4.2088 C.ar      1 <0>         0.0998
     18 C16         4.7147   -0.4388    3.8881 C.ar      1 <0>        -0.1167
     19 C17         3.9357    0.1560    2.9107 C.ar      1 <0>        -0.0938
     20 O1          5.3124   -2.3551    5.1634 O.3       1 <0>        -0.4826
     21 O2          3.3828   -3.8338    3.8646 O.3       1 <0>        -0.4754
     22 H2          1.0047    1.8421    0.0024 H         1 <0>         0.1274
     23 H3         -0.5450    1.8259   -0.8730 H         1 <0>         0.1292
     24 H4         -0.5280    1.8163    0.9069 H         1 <0>         0.1253
     25 H5         -1.8367   -0.2679    0.9645 H         1 <0>         0.1303
     26 H6         -1.9326   -0.0329   -0.7937 H         1 <0>         0.1395
     27 H7         -2.3469   -2.4064    0.1685 H         1 <0>         0.1232
     28 H8         -1.3037   -2.2338   -1.2551 H         1 <0>         0.1049
     29 H9         -1.0333   -4.6427    0.0527 H         1 <0>         0.1363
     30 H10         0.7220   -5.8542    1.2677 H         1 <0>         0.1404
     31 H11         2.4813   -4.6056    2.4582 H         1 <0>         0.1525
     32 H12         2.5874   -0.1542    0.1986 H         1 <0>         0.1009
     33 H13         2.1121    1.1345    1.3252 H         1 <0>         0.1081
     34 H14         5.4652    0.1418    4.4038 H         1 <0>         0.1453
     35 H15         4.0810    1.1979    2.6663 H         1 <0>         0.1401
     36 H16         6.1269   -2.7493    4.8224 H         1 <0>         0.3972
     37 H17         3.9208   -4.4411    3.3384 H         1 <0>         0.3936
     38 H18         0.4752   -0.3291   -0.8278 H         1 <0>         0.4258
@<TRIPOS>BOND
     1    1    2 1
     2    1   22 1
     3    1   23 1
     4    1   24 1
     5    2   11 1
     6    2    3 1
     7    2   38 1
     8    3    4 1
     9    3   25 1
    10    3   26 1
    11    4    5 1
    12    4   27 1
    13    4   28 1
    14    5   10 ar
    15    5    6 ar
    16    6    7 ar
    17    6   29 1
    18    7    8 ar
    19    7   30 1
    20    8    9 ar
    21    8   31 1
    22    9   15 1
    23    9   10 ar
    24   10   11 1
    25   11   12 1
    26   11   13 1
    27   13   14 1
    28   13   32 1
    29   13   33 1
    30   14   19 ar
    31   14   15 ar
    32   15   16 ar
    33   16   17 ar
    34   16   21 1
    35   17   18 ar
    36   17   20 1
    37   18   19 ar
    38   18   34 1
    39   19   35 1
    40   20   36 1
    41   21   37 1
@<TRIPOS>MOLECULE
ZINC00009073
   37    40     0     0     0
SMALL
USER_CHARGES

@<TRIPOS>ATOM
      1 C1         -0.0178    1.4648    0.0101 C.3       1 <0>         0.0190
      2 N1          0.0021   -0.0041    0.0020 N.3       1 <0>        -0.5347
      3 C2         -1.3554   -0.5468   -0.0771 C.3       1 <0>         0.0548
      4 C3         -1.3255   -2.0437   -0.3363 C.3       1 <0>        -0.0776
      5 C4         -0.2136   -2.7298    0.4050 C.ar      1 <0>        -0.0660
      6 C5         -0.1676   -4.1185    0.3764 C.ar      1 <0>        -0.1168
      7 C6          0.8160   -4.8083    1.0555 C.ar      1 <0>        -0.1183
      8 C7          1.7732   -4.1167    1.7707 C.ar      1 <0>        -0.1100
      9 C8          1.7473   -2.7271    1.7884 C.ar      1 <0>        -0.0402
     10 C9          0.7422   -2.0318    1.1101 C.ar      1 <0>        -0.0602
     11 C10         0.7070   -0.5281    1.1816 C.3       1 <0>         0.1292
     12 H1          0.1788   -0.2212    2.0843 H         1 <0>         0.0565
     13 C11         2.1199    0.0508    1.2084 C.3       1 <0>        -0.0723
     14 C12         2.9454   -0.6100    2.2786 C.ar      1 <0>        -0.0656
     15 C13         2.7694   -1.9666    2.5450 C.ar      1 <0>        -0.0523
     16 C14         3.5484   -2.5938    3.5165 C.ar      1 <0>         0.0945
     17 C15         4.4897   -1.8532    4.2246 C.ar      1 <0>         0.0806
     18 C16         4.6455   -0.5013    3.9627 C.ar      1 <0>        -0.1259
     19 C17         3.8757    0.1166    2.9923 C.ar      1 <0>        -0.1047
     20 O1          5.2558   -2.4554    5.1733 O.3       1 <0>        -0.4864
     21 O2          3.3897   -3.9199    3.7698 O.3       1 <0>        -0.4768
     22 H2          1.0047    1.8421    0.0024 H         1 <0>         0.0749
     23 H3         -0.5450    1.8259   -0.8730 H         1 <0>         0.0732
     24 H4         -0.5280    1.8163    0.9069 H         1 <0>         0.0286
     25 H5         -1.8730   -0.3560    0.8630 H         1 <0>         0.0357
     26 H6         -1.8920   -0.0533   -0.8874 H         1 <0>         0.0839
     27 H7         -2.2767   -2.4752   -0.0246 H         1 <0>         0.0807
     28 H8         -1.1956   -2.2145   -1.4050 H         1 <0>         0.0833
     29 H9         -0.9115   -4.6650   -0.1844 H         1 <0>         0.1227
     30 H10         0.8367   -5.8878    1.0279 H         1 <0>         0.1259
     31 H11         2.5378   -4.6525    2.3137 H         1 <0>         0.1407
     32 H12         2.5925   -0.1106    0.2395 H         1 <0>         0.0936
     33 H13         2.0656    1.1213    1.4066 H         1 <0>         0.0843
     34 H14         5.3712    0.0734    4.5190 H         1 <0>         0.1363
     35 H15         4.0042    1.1703    2.7931 H         1 <0>         0.1343
     36 H16         6.0862   -2.8185    4.8360 H         1 <0>         0.3882
     37 H17         3.9530   -4.4932    3.2322 H         1 <0>         0.3868
@<TRIPOS>BOND
     1    1    2 1
     2    1   22 1
     3    1   23 1
     4    1   24 1
     5    2   11 1
     6    2    3 1
     7    3    4 1
     8    3   25 1
     9    3   26 1
    10    4    5 1
    11    4   27 1
    12    4   28 1
    13    5   10 ar
    14    5    6 ar
    15    6    7 ar
    16    6   29 1
    17    7    8 ar
    18    7   30 1
    19    8    9 ar
    20    8   31 1
    21    9   15 1
    22    9   10 ar
    23   10   11 1
    24   11   12 1
    25   11   13 1
    26   13   14 1
    27   13   32 1
    28   13   33 1
    29   14   19 ar
    30   14   15 ar
    31   15   16 ar
    32   16   17 ar
    33   16   21 1
    34   17   18 ar
    35   17   20 1
    36   18   19 ar
    37   18   34 1
    38   19   35 1
    39   20   36 1
    40   21   37 1
@<TRIPOS>MOLECULE
ZINC00014556
   52    55     0     0     0
SMALL
USER_CHARGES
3-isopropyl-N,N-bis(3-isopropyl-2-oxo-benzoimidazol-7a-yl)-2-oxo-benzoimidazole-1-carboxamide
@<TRIPOS>ATOM
      1 C1          4.2160    4.5064   -1.2636 C.3       1 <0>        -0.1703
      2 C2          3.5992    3.8795   -0.0117 C.3       1 <0>         0.1528
      3 C3          4.2394    4.4939    1.2347 C.3       1 <0>        -0.1707
      4 N1          2.1569    4.1362    0.0031 N.am      1 <0>        -0.5238
      5 C4          1.1565    3.1662    0.0076 C.ar      1 <0>         0.1055
      6 C5          1.1757    1.7798    0.0004 C.ar      1 <0>        -0.1080
      7 C6         -0.0126    1.0758    0.0080 C.ar      1 <0>        -0.0859
      8 C7         -1.2222    1.7487    0.0173 C.ar      1 <0>        -0.1122
      9 C8         -1.2507    3.1297    0.0299 C.ar      1 <0>        -0.0723
     10 C9         -0.0634    3.8444    0.0224 C.ar      1 <0>         0.0720
     11 N2          0.2343    5.2085    0.0265 N.am      1 <0>        -0.5069
     12 C10         1.5733    5.3493    0.0147 C.2       1 <0>         0.6906
     13 O1          2.1657    6.4115    0.0141 O.2       1 <0>        -0.5394
     14 C11        -0.6648    6.2124    0.0399 C.2       1 <0>         0.7300
     15 O2         -1.8542    5.9629    0.0498 O.2       1 <0>        -0.5391
     16 N3         -0.2449    7.4931    0.0425 N.am      1 <0>        -0.7233
     17 C12        -1.2222    8.5844    0.0571 C.3       1 <0>         0.1469
     18 C13        -1.6742    8.8827   -1.3753 C.3       1 <0>        -0.1621
     19 C14        -2.5829   10.1224   -1.3625 C.3       1 <0>         0.0377
     20 H1         -3.0523   10.3080   -2.3285 H         1 <0>         0.1595
     21 C15        -3.6226    9.9349   -0.2337 C.3       1 <0>        -0.1473
     22 C16        -2.9494   10.5208    1.0249 C.3       1 <0>        -0.1457
     23 C17        -1.5642   11.0091    0.5422 C.3       1 <0>         0.0380
     24 H2         -1.2185   11.8925    1.0791 H         1 <0>         0.1615
     25 C18        -0.5813    9.8339    0.6678 C.3       1 <0>        -0.1556
     26 C19        -2.4554   12.5438   -1.1268 C.3       1 <0>        -0.0370
     27 H3          4.0384    5.5819   -1.2565 H         1 <0>         0.0729
     28 H4          5.2891    4.3154   -1.2746 H         1 <0>         0.0825
     29 H5          3.7599    4.0687   -2.1516 H         1 <0>         0.0619
     30 H6          3.7767    2.8040   -0.0188 H         1 <0>         0.1067
     31 H7          5.3124    4.3028    1.2237 H         1 <0>         0.0824
     32 H8          4.0618    5.5693    1.2418 H         1 <0>         0.0732
     33 H9          3.7999    4.0472    2.1266 H         1 <0>         0.0623
     34 H10         2.1177    1.2516   -0.0114 H         1 <0>         0.1378
     35 H11         0.0021   -0.0041    0.0020 H         1 <0>         0.1424
     36 H12        -2.1475    1.1916    0.0191 H         1 <0>         0.1417
     37 H13        -2.1963    3.6514    0.0417 H         1 <0>         0.1451
     38 H14         0.7044    7.6923    0.0346 H         1 <0>         0.4210
     39 H15        -2.0850    8.2904    0.6549 H         1 <0>         0.1135
     40 H16        -0.8023    9.0755   -2.0005 H         1 <0>         0.0928
     41 H17        -2.2263    8.0294   -1.7691 H         1 <0>         0.1184
     42 H18        -4.5363   10.4824   -0.4648 H         1 <0>         0.1016
     43 H19        -3.8396    8.8764   -0.0899 H         1 <0>         0.1156
     44 H20        -2.8354    9.7504    1.7876 H         1 <0>         0.1123
     45 H21        -3.5322   11.3563    1.4127 H         1 <0>         0.1025
     46 H22        -0.3602    9.6538    1.7198 H         1 <0>         0.1208
     47 H23         0.3396   10.0696    0.1345 H         1 <0>         0.0978
     48 H24        -1.8714   13.3583   -0.6982 H         1 <0>         0.1238
     49 H25        -2.5815   12.7109   -2.1965 H         1 <0>         0.1249
     50 H26        -3.4335   12.5066   -0.6472 H         1 <0>         0.1189
     51 N4         -1.7607   11.2378   -0.8850 N.4       1 <0>        -0.3949
     52 H27        -0.8554   11.2424   -1.3692 H         1 <0>         0.4274
@<TRIPOS>BOND
     1    1    2 1
     2    1   27 1
     3    1   28 1
     4    1   29 1
     5    2    3 1
     6    2    4 1
     7    2   30 1
     8    3   31 1
     9    3   32 1
    10    3   33 1
    11    4   12 am
    12    4    5 1
    13    5   10 ar
    14    5    6 ar
    15    6    7 ar
    16    6   34 1
    17    7    8 ar
    18    7   35 1
    19    8    9 ar
    20    8   36 1
    21    9   10 ar
    22    9   37 1
    23   10   11 1
    24   11   12 am
    25   11   14 am
    26   12   13 2
    27   14   15 2
    28   14   16 am
    29   16   17 1
    30   16   38 1
    31   17   25 1
    32   17   18 1
    33   17   39 1
    34   18   19 1
    35   18   40 1
    36   18   41 1
    37   19   20 1
    38   19   21 1
    39   19   51 1
    40   21   22 1
    41   21   42 1
    42   21   43 1
    43   22   23 1
    44   22   44 1
    45   22   45 1
    46   23   24 1
    47   23   25 1
    48   23   51 1
    49   25   46 1
    50   25   47 1
    51   26   48 1
    52   26   49 1
    53   26   50 1
    54   26   51 1
    55   51   52 1
@<TRIPOS>MOLECULE
ZINC00968257
   45    47     0     0     0
SMALL
USER_CHARGES

@<TRIPOS>ATOM
      1 C1         -0.0178    1.4648    0.0101 C.3       1 <0>        -0.0532
      2 N1          0.0021   -0.0041    0.0020 N.4       1 <0>        -0.3871
      3 C2         -1.3761   -0.5125    0.0124 C.3       1 <0>        -0.0473
      4 C3          0.6897   -0.4778   -1.2066 C.3       1 <0>        -0.0075
      5 C4          2.1588   -0.0534   -1.1571 C.3       1 <0>        -0.1202
      6 C5          2.8641   -0.5394   -2.3970 C.2       1 <0>        -0.1679
      7 C6          3.5250    0.3270   -3.1738 C.2       1 <0>         0.0063
      8 C7          3.5927    1.7771   -2.8453 C.ar      1 <0>        -0.0588
      9 C8          4.0673    2.1470   -1.5880 C.ar      1 <0>        -0.1130
     10 C9          4.1752    3.4781   -1.2462 C.ar      1 <0>        -0.1230
     11 C10         3.8096    4.4415   -2.1695 C.ar      1 <0>        -0.1074
     12 C11         3.3311    4.0773   -3.4068 C.ar      1 <0>        -0.1261
     13 C12         3.1954    2.7364   -3.7740 C.ar      1 <0>        -0.0534
     14 C13         2.5869    2.5170   -5.1377 C.3       1 <0>        -0.0764
     15 C14         2.3799    1.0595   -5.4939 C.3       1 <0>        -0.0807
     16 C15         3.6776    0.3005   -5.5991 C.ar      1 <0>        -0.0737
     17 C16         4.2334   -0.1117   -4.4047 C.ar      1 <0>        -0.0690
     18 C17         5.3905   -0.8775   -4.3777 C.ar      1 <0>        -0.0956
     19 C18         6.0025   -1.1900   -5.5806 C.ar      1 <0>        -0.1191
     20 C19         5.4694   -0.7426   -6.7762 C.ar      1 <0>        -0.1081
     21 C20         4.2868    0.0121   -6.7962 C.ar      1 <0>        -0.1083
     22 H1          1.0047    1.8421    0.0024 H         1 <0>         0.1238
     23 H2         -0.5450    1.8259   -0.8730 H         1 <0>         0.1221
     24 H3         -0.5280    1.8163    0.9069 H         1 <0>         0.1250
     25 H4         -1.9033   -0.1515   -0.8706 H         1 <0>         0.1216
     26 H5         -1.3613   -1.6024    0.0065 H         1 <0>         0.1236
     27 H6         -1.8863   -0.1610    0.9092 H         1 <0>         0.1246
     28 H7          0.6270   -1.5648   -1.2578 H         1 <0>         0.1321
     29 H8          0.2158   -0.0447   -2.0875 H         1 <0>         0.1294
     30 H9          2.2214    1.0336   -1.1059 H         1 <0>         0.0996
     31 H10         2.6326   -0.4865   -0.2761 H         1 <0>         0.0954
     32 H11         2.8363   -1.5868   -2.6585 H         1 <0>         0.1308
     33 H12         4.3519    1.3857   -0.8767 H         1 <0>         0.1233
     34 H13         4.5405    3.7651   -0.2712 H         1 <0>         0.1290
     35 H14         3.9003    5.4876   -1.9168 H         1 <0>         0.1264
     36 H15         3.0534    4.8470   -4.1116 H         1 <0>         0.1247
     37 H16         1.6223    3.0233   -5.1729 H         1 <0>         0.0854
     38 H17         3.2393    2.9678   -5.8855 H         1 <0>         0.0834
     39 H18         1.7604    0.5939   -4.7274 H         1 <0>         0.0703
     40 H19         1.8587    1.0007   -6.4494 H         1 <0>         0.0792
     41 H20         5.8038   -1.2219   -3.4413 H         1 <0>         0.1267
     42 H21         6.9025   -1.7870   -5.5850 H         1 <0>         0.1278
     43 H22         5.9677   -0.9772   -7.7052 H         1 <0>         0.1274
     44 H23         3.8663    0.3630   -7.7270 H         1 <0>         0.1314
     45 H24         0.4901   -0.3383    0.8195 H         1 <0>         0.4266
@<TRIPOS>BOND
     1    1    2 1
     2    1   22 1
     3    1   23 1
     4    1   24 1
     5    2    3 1
     6    2    4 1
     7    2   45 1
     8    3   25 1
     9    3   26 1
    10    3   27 1
    11    4    5 1
    12    4   28 1
    13    4   29 1
    14    5    6 1
    15    5   30 1
    16    5   31 1
    17    6    7 2
    18    6   32 1
    19    7   17 1
    20    7    8 1
    21    8   13 ar
    22    8    9 ar
    23    9   10 ar
    24    9   33 1
    25   10   11 ar
    26   10   34 1
    27   11   12 ar
    28   11   35 1
    29   12   13 ar
    30   12   36 1
    31   13   14 1
    32   14   15 1
    33   14   37 1
    34   14   38 1
    35   15   16 1
    36   15   39 1
    37   15   40 1
    38   16   21 ar
    39   16   17 ar
    40   17   18 ar
    41   18   19 ar
    42   18   41 1
    43   19   20 ar
    44   19   42 1
    45   20   21 ar
    46   20   43 1
    47   21   44 1
@<TRIPOS>MOLECULE
ZINC01530611
   43    45     0     0     0
SMALL
USER_CHARGES

@<TRIPOS>ATOM
      1 C1         -5.6811    1.3607   -0.3895 C.3       1 <0>        -0.0475
      2 N1         -5.6577   -0.0983   -0.2206 N.4       1 <0>        -0.5096
      3 C2         -4.2653   -0.5656   -0.1914 C.3       1 <0>        -0.0084
      4 C3         -4.2409   -2.0853   -0.0155 C.3       1 <0>        -0.1794
      5 C4         -2.7907   -2.5720    0.0149 C.3       1 <0>         0.1487
      6 N2         -2.7680   -4.0325    0.1272 N.pl3     1 <0>        -0.6107
      7 C5         -2.6913   -4.8424   -1.0108 C.ar      1 <0>         0.1751
      8 C6         -1.6220   -4.6466   -1.8788 C.ar      1 <0>        -0.1410
      9 C7         -1.4736   -5.4397   -2.9971 C.ar      1 <0>        -0.1023
     10 C8         -2.4002   -6.4363   -3.2444 C.ar      1 <0>        -0.1264
     11 C9         -3.4660   -6.6200   -2.3938 C.ar      1 <0>        -0.1102
     12 C10        -3.6460   -5.8156   -1.2664 C.ar      1 <0>        -0.0994
     13 C11        -4.9119   -6.0915   -0.4880 C.3       1 <0>        -0.0689
     14 C12        -5.1138   -5.1475    0.6844 C.3       1 <0>        -0.0774
     15 C13        -4.0023   -5.2798    1.6948 C.ar      1 <0>        -0.0996
     16 C14        -2.8165   -4.6605    1.3756 C.ar      1 <0>         0.1518
     17 C15        -1.7436   -4.6795    2.2507 C.ar      1 <0>        -0.1184
     18 C16        -1.8773   -5.3599    3.4502 C.ar      1 <0>        -0.1095
     19 C17        -3.0600   -6.0057    3.7614 C.ar      1 <0>        -0.1164
     20 C18        -4.1454   -5.9689    2.8764 C.ar      1 <0>        -0.1028
     21 H1         -6.7143    1.7075   -0.4111 H         1 <0>         0.1266
     22 H2         -5.1573    1.8313    0.4426 H         1 <0>         0.1238
     23 H3         -5.1891    1.6261   -1.3252 H         1 <0>         0.1238
     24 H4         -6.1131   -0.3440    0.6456 H         1 <0>         0.4303
     25 H5         -3.7733   -0.3002   -1.1272 H         1 <0>         0.1329
     26 H6         -3.7415   -0.0951    0.6406 H         1 <0>         0.1330
     27 H7         -4.7329   -2.3506    0.9203 H         1 <0>         0.0915
     28 H8         -4.7647   -2.5558   -0.8475 H         1 <0>         0.0913
     29 H9         -2.2869   -2.2703   -0.9034 H         1 <0>         0.0828
     30 H10        -2.2782   -2.1337    0.8713 H         1 <0>         0.0803
     31 H11        -0.9026   -3.8672   -1.6754 H         1 <0>         0.1215
     32 H12        -0.6444   -5.2844   -3.6715 H         1 <0>         0.1277
     33 H13        -2.2869   -7.0730   -4.1093 H         1 <0>         0.1251
     34 H14        -4.1790   -7.4039   -2.6024 H         1 <0>         0.1223
     35 H15        -5.7638   -5.9997   -1.1617 H         1 <0>         0.0796
     36 H16        -4.8754   -7.1138   -0.1117 H         1 <0>         0.0764
     37 H17        -5.1407   -4.1220    0.3160 H         1 <0>         0.0728
     38 H18        -6.0638   -5.3767    1.1673 H         1 <0>         0.0709
     39 H19        -0.8216   -4.1746    2.0032 H         1 <0>         0.1257
     40 H20        -1.0526   -5.3858    4.1470 H         1 <0>         0.1276
     41 H21        -3.1485   -6.5434    4.6939 H         1 <0>         0.1270
     42 H22        -5.0720   -6.4709    3.1123 H         1 <0>         0.1291
     43 H23        -6.1426   -0.5339   -0.9908 H         1 <0>         0.4303
@<TRIPOS>BOND
     1    1    2 1
     2    1   21 1
     3    1   22 1
     4    1   23 1
     5    2    3 1
     6    2   24 1
     7    2   43 1
     8    3    4 1
     9    3   25 1
    10    3   26 1
    11    4    5 1
    12    4   27 1
    13    4   28 1
    14    5    6 1
    15    5   29 1
    16    5   30 1
    17    6   16 1
    18    6    7 1
    19    7   12 ar
    20    7    8 ar
    21    8    9 ar
    22    8   31 1
    23    9   10 ar
    24    9   32 1
    25   10   11 ar
    26   10   33 1
    27   11   12 ar
    28   11   34 1
    29   12   13 1
    30   13   14 1
    31   13   35 1
    32   13   36 1
    33   14   15 1
    34   14   37 1
    35   14   38 1
    36   15   20 ar
    37   15   16 ar
    38   16   17 ar
    39   17   18 ar
    40   17   39 1
    41   18   19 ar
    42   18   40 1
    43   19   20 ar
    44   19   41 1
    45   20   42 1
@<TRIPOS>MOLECULE
ZINC01534779
   46    47     0     0     0
SMALL
USER_CHARGES

@<TRIPOS>ATOM
      1 C1         -0.0173    1.4248    0.0099 C.3       1 <0>         0.0174
      2 O1          0.0021   -0.0041    0.0020 O.3       1 <0>        -0.2801
      3 C2         -1.1982   -0.6364    0.0101 C.ar      1 <0>         0.2521
      4 C3         -2.3710    0.0981    0.0195 C.ar      1 <0>        -0.3004
      5 C4         -3.5971   -0.5548    0.0278 C.ar      1 <0>         0.3115
      6 C5         -3.6506   -1.9487    0.0271 C.ar      1 <0>        -0.1647
      7 C6         -2.4998   -2.6830    0.0183 C.ar      1 <0>         0.0341
      8 C7         -1.2567   -2.0392    0.0031 C.ar      1 <0>        -0.2247
      9 C8         -0.0166   -2.8295   -0.0130 C.2       1 <0>         0.5227
     10 O2          1.0617   -2.2684   -0.0204 O.2       1 <0>        -0.4868
     11 O3         -0.0756   -4.1762   -0.0197 O.3       1 <0>        -0.3550
     12 C9          1.1680   -4.8800   -0.0354 C.3       1 <0>         0.0714
     13 C10         0.9014   -6.3866   -0.0410 C.3       1 <0>        -0.1506
     14 C11         2.2328   -7.1401   -0.0578 C.3       1 <0>        -0.0066
     15 N1          1.9768   -8.5866   -0.0631 N.4       1 <0>        -0.3813
     16 C12         1.3197   -8.9703    1.1921 C.3       1 <0>        -0.0140
     17 C13         0.9777  -10.4614    1.1581 C.3       1 <0>        -0.1457
     18 C14         2.2660  -11.2713    0.9862 C.3       1 <0>        -0.1399
     19 C15         2.9808  -10.8106   -0.2874 C.3       1 <0>        -0.1463
     20 C16         3.2486   -9.3066   -0.1999 C.3       1 <0>        -0.0066
     21 Cl1        -5.1886   -2.7538    0.0381 Cl        1 <0>        -0.0587
     22 N2         -4.7755    0.1839    0.0372 N.pl3     1 <0>        -0.8469
     23 H1          1.0053    1.8021    0.0021 H         1 <0>         0.1088
     24 H2         -0.5445    1.7859   -0.8732 H         1 <0>         0.0626
     25 H3         -0.5275    1.7763    0.9067 H         1 <0>         0.0626
     26 H4         -2.3332    1.1775    0.0208 H         1 <0>         0.1488
     27 H5         -2.5485   -3.7619    0.0182 H         1 <0>         0.1513
     28 H6          1.7287   -4.6070   -0.9294 H         1 <0>         0.0779
     29 H7          1.7458   -4.6165    0.8505 H         1 <0>         0.0776
     30 H8          0.3407   -6.6596    0.8530 H         1 <0>         0.0991
     31 H9          0.3236   -6.6500   -0.9269 H         1 <0>         0.0996
     32 H10         2.7936   -6.8671   -0.9518 H         1 <0>         0.1359
     33 H11         2.8107   -6.8766    0.8281 H         1 <0>         0.1340
     34 H12         1.9898   -8.7707    2.0283 H         1 <0>         0.1294
     35 H13         0.4047   -8.3908    1.3145 H         1 <0>         0.1326
     36 H14         0.4915  -10.7447    2.0916 H         1 <0>         0.1122
     37 H15         0.3073  -10.6621    0.3223 H         1 <0>         0.0879
     38 H16         2.9151  -11.1105    1.8469 H         1 <0>         0.0818
     39 H17         2.0224  -12.3306    0.9046 H         1 <0>         0.0942
     40 H18         3.9264  -11.3435   -0.3871 H         1 <0>         0.1125
     41 H19         2.3520  -11.0186   -1.1532 H         1 <0>         0.0878
     42 H20         3.7576   -8.9753   -1.1050 H         1 <0>         0.1309
     43 H21         3.8776   -9.0998    0.6660 H         1 <0>         0.1290
     44 H22        -4.7403    1.1533    0.0381 H         1 <0>         0.4099
     45 H23        -5.6326   -0.2703    0.0430 H         1 <0>         0.4098
     46 H24         1.3754   -8.8178   -0.8396 H         1 <0>         0.4234
@<TRIPOS>BOND
     1    1    2 1
     2    1   23 1
     3    1   24 1
     4    1   25 1
     5    2    3 1
     6    3    8 ar
     7    3    4 ar
     8    4    5 ar
     9    4   26 1
    10    5    6 ar
    11    5   22 1
    12    6    7 ar
    13    6   21 1
    14    7    8 ar
    15    7   27 1
    16    8    9 1
    17    9   10 2
    18    9   11 1
    19   11   12 1
    20   12   13 1
    21   12   28 1
    22   12   29 1
    23   13   14 1
    24   13   30 1
    25   13   31 1
    26   14   15 1
    27   14   32 1
    28   14   33 1
    29   15   20 1
    30   15   16 1
    31   15   46 1
    32   16   17 1
    33   16   34 1
    34   16   35 1
    35   17   18 1
    36   17   36 1
    37   17   37 1
    38   18   19 1
    39   18   38 1
    40   18   39 1
    41   19   20 1
    42   19   40 1
    43   19   41 1
    44   20   42 1
    45   20   43 1
    46   22   44 1
    47   22   45 1
@<TRIPOS>MOLECULE
ZINC01530716
   43    43     0     0     0
SMALL
USER_CHARGES

@<TRIPOS>ATOM
      1 C1          0.0823    1.4510   -0.2163 C.3       1 <0>        -0.1873
      2 C2          0.0237   -0.0664   -0.0289 C.3       1 <0>        -0.0192
      3 N1         -1.3740   -0.4850    0.1418 N.4       1 <0>        -0.3820
      4 C3         -2.1159   -0.2330   -1.1009 C.3       1 <0>        -0.0140
      5 C4         -3.5996   -0.5332   -0.8788 C.3       1 <0>        -0.1894
      6 C5         -1.4206   -1.9189    0.4577 C.3       1 <0>        -0.0272
      7 C6         -0.7562   -2.1642    1.8139 C.3       1 <0>         0.1000
      8 N2         -0.8026   -3.5942    2.1289 N.am      1 <0>        -0.7385
      9 C7         -0.2733   -4.0476    3.2824 C.2       1 <0>         0.5796
     10 O1          0.2431   -3.2696    4.0619 O.2       1 <0>        -0.5100
     11 C8         -0.3200   -5.4846    3.5990 C.ar      1 <0>        -0.2394
     12 C9         -0.9083   -6.3825    2.7014 C.ar      1 <0>         0.0118
     13 C10        -0.9514   -7.7152    2.9955 C.ar      1 <0>        -0.1594
     14 C11        -0.4107   -8.1907    4.1899 C.ar      1 <0>         0.3057
     15 C12         0.1761   -7.3113    5.0909 C.ar      1 <0>        -0.2971
     16 C13         0.2305   -5.9594    4.7995 C.ar      1 <0>         0.2493
     17 O2          0.8078   -5.0965    5.6730 O.3       1 <0>        -0.2775
     18 C14         1.3467   -5.6527    6.8740 C.3       1 <0>         0.0171
     19 N3         -0.4597   -9.5504    4.4802 N.pl3     1 <0>        -0.8488
     20 Cl1        -1.6834   -8.8231    1.8773 Cl        1 <0>        -0.0598
     21 H1          1.1228    1.7753   -0.2311 H         1 <0>         0.1073
     22 H2         -0.3953    1.7194   -1.1586 H         1 <0>         0.0809
     23 H3         -0.4388    1.9392    0.6072 H         1 <0>         0.0808
     24 H4          0.4455   -0.5574   -0.9059 H         1 <0>         0.1316
     25 H5          0.5971   -0.3457    0.8550 H         1 <0>         0.1339
     26 H6         -1.9958    0.8109   -1.3904 H         1 <0>         0.1348
     27 H7         -1.7294   -0.8761   -1.8915 H         1 <0>         0.1306
     28 H8         -3.7314   -1.6000   -0.6980 H         1 <0>         0.0804
     29 H9         -3.9590    0.0285   -0.0166 H         1 <0>         0.0808
     30 H10        -4.1656   -0.2421   -1.7637 H         1 <0>         0.1072
     31 H11        -2.4588   -2.2488    0.4968 H         1 <0>         0.1395
     32 H12        -0.8905   -2.4782   -0.3132 H         1 <0>         0.1374
     33 H13         0.2820   -1.8343    1.7748 H         1 <0>         0.0888
     34 H14        -1.2864   -1.6049    2.5847 H         1 <0>         0.0887
     35 H15        -1.2144   -4.2146    1.5073 H         1 <0>         0.4036
     36 H16        -1.3292   -6.0208    1.7749 H         1 <0>         0.1376
     37 H17         0.5936   -7.6827    6.0151 H         1 <0>         0.1469
     38 H18         0.5529   -6.1481    7.4331 H         1 <0>         0.0616
     39 H19         2.1212   -6.3775    6.6232 H         1 <0>         0.0615
     40 H20         1.7770   -4.8568    7.4819 H         1 <0>         0.1082
     41 H21        -0.8694  -10.1659    3.8524 H         1 <0>         0.4093
     42 H22        -0.0842   -9.8829    5.3105 H         1 <0>         0.4097
     43 H23        -1.7925    0.0392    0.8955 H         1 <0>         0.4250
@<TRIPOS>BOND
     1    1    2 1
     2    1   21 1
     3    1   22 1
     4    1   23 1
     5    2    3 1
     6    2   24 1
     7    2   25 1
     8    3    4 1
     9    3    6 1
    10    3   43 1
    11    4    5 1
    12    4   26 1
    13    4   27 1
    14    5   28 1
    15    5   29 1
    16    5   30 1
    17    6    7 1
    18    6   31 1
    19    6   32 1
    20    7    8 1
    21    7   33 1
    22    7   34 1
    23    8    9 am
    24    8   35 1
    25    9   10 2
    26    9   11 1
    27   11   16 ar
    28   11   12 ar
    29   12   13 ar
    30   12   36 1
    31   13   14 ar
    32   13   20 1
    33   14   15 ar
    34   14   19 1
    35   15   16 ar
    36   15   37 1
    37   16   17 1
    38   17   18 1
    39   18   38 1
    40   18   39 1
    41   18   40 1
    42   19   41 1
    43   19   42 1
