@<TRIPOS>MOLECULE
ZINC00020245
   46    48     0     0     0
SMALL
USER_CHARGES

@<TRIPOS>ATOM
      1 C1         -5.6836    1.3838    0.0162 C.3       1 <0>        -0.0473
      2 N1         -5.6620   -0.0833   -0.0564 N.4       1 <0>        -0.3868
      3 C2         -6.3713   -0.5242   -1.2649 C.3       1 <0>        -0.0522
      4 C3         -4.2702   -0.5505   -0.1076 C.3       1 <0>        -0.0086
      5 C4         -4.2434   -2.0795   -0.0575 C.3       1 <0>        -0.1781
      6 C5         -2.7938   -2.5661   -0.1108 C.3       1 <0>         0.1490
      7 N2         -2.7704   -4.0309   -0.1190 N.pl3     1 <0>        -0.6108
      8 C6         -2.7295   -4.7451   -1.3212 C.ar      1 <0>         0.1758
      9 C7         -1.6865   -4.4783   -2.2022 C.ar      1 <0>        -0.1411
     10 C8         -1.5734   -5.1772   -3.3856 C.ar      1 <0>        -0.1022
     11 C9         -2.5089   -6.1508   -3.6854 C.ar      1 <0>        -0.1266
     12 C10        -3.5489   -6.4041   -2.8209 C.ar      1 <0>        -0.1101
     13 C11        -3.6933   -5.6947   -1.6266 C.ar      1 <0>        -0.0998
     14 C12        -4.9357   -6.0340   -0.8354 C.3       1 <0>        -0.0687
     15 C13        -5.1005   -5.1892    0.4158 C.3       1 <0>        -0.0773
     16 C14        -3.9592   -5.4030    1.3779 C.ar      1 <0>        -0.0996
     17 C15        -2.7824   -4.7590    1.0748 C.ar      1 <0>         0.1523
     18 C16        -1.6837   -4.8488    1.9126 C.ar      1 <0>        -0.1184
     19 C17        -1.7825   -5.6251    3.0560 C.ar      1 <0>        -0.1094
     20 C18        -2.9565   -6.2950    3.3488 C.ar      1 <0>        -0.1165
     21 C19        -4.0679   -6.1865    2.5030 C.ar      1 <0>        -0.1028
     22 H1         -6.7163    1.7305    0.0542 H         1 <0>         0.1245
     23 H2         -5.1573    1.7109    0.9129 H         1 <0>         0.1235
     24 H3         -5.1933    1.7984   -0.8646 H         1 <0>         0.1221
     25 H4         -6.3552   -1.6128   -1.3188 H         1 <0>         0.1231
     26 H5         -7.4040   -0.1775   -1.2269 H         1 <0>         0.1246
     27 H6         -5.8810   -0.1096   -2.1457 H         1 <0>         0.1227
     28 H7         -3.8061   -0.2091   -1.0329 H         1 <0>         0.1308
     29 H8         -3.7207   -0.1494    0.7440 H         1 <0>         0.1320
     30 H9         -4.7075   -2.4209    0.8678 H         1 <0>         0.0908
     31 H10        -4.7929   -2.4806   -0.9091 H         1 <0>         0.0915
     32 H11        -2.3174   -2.1901   -1.0161 H         1 <0>         0.0824
     33 H12        -2.2550   -2.1990    0.7627 H         1 <0>         0.0801
     34 H13        -0.9599   -3.7176   -1.9576 H         1 <0>         0.1215
     35 H14        -0.7646   -4.9667   -4.0697 H         1 <0>         0.1276
     36 H15        -2.4229   -6.7145   -4.6025 H         1 <0>         0.1250
     37 H16        -4.2693   -7.1687   -3.0712 H         1 <0>         0.1222
     38 H17        -5.8074   -5.8880   -1.4734 H         1 <0>         0.0793
     39 H18        -4.8898   -7.0837   -0.5452 H         1 <0>         0.0765
     40 H19        -5.1365   -4.1371    0.1334 H         1 <0>         0.0724
     41 H20        -6.0358   -5.4578    0.9068 H         1 <0>         0.0709
     42 H21        -0.7686   -4.3248    1.6795 H         1 <0>         0.1257
     43 H22        -0.9372   -5.7074    3.7231 H         1 <0>         0.1275
     44 H23        -3.0178   -6.9071    4.2365 H         1 <0>         0.1269
     45 H24        -4.9880   -6.7067    2.7249 H         1 <0>         0.1290
     46 H25        -6.1159   -0.4671    0.7589 H         1 <0>         0.4268
@<TRIPOS>BOND
     1    1    2 1
     2    1   22 1
     3    1   23 1
     4    1   24 1
     5    2    3 1
     6    2    4 1
     7    2   46 1
     8    3   25 1
     9    3   26 1
    10    3   27 1
    11    4    5 1
    12    4   28 1
    13    4   29 1
    14    5    6 1
    15    5   30 1
    16    5   31 1
    17    6    7 1
    18    6   32 1
    19    6   33 1
    20    7   17 1
    21    7    8 1
    22    8   13 ar
    23    8    9 ar
    24    9   10 ar
    25    9   34 1
    26   10   11 ar
    27   10   35 1
    28   11   12 ar
    29   11   36 1
    30   12   13 ar
    31   12   37 1
    32   13   14 1
    33   14   15 1
    34   14   38 1
    35   14   39 1
    36   15   16 1
    37   15   40 1
    38   15   41 1
    39   16   21 ar
    40   16   17 ar
    41   17   18 ar
    42   18   19 ar
    43   18   42 1
    44   19   20 ar
    45   19   43 1
    46   20   21 ar
    47   20   44 1
    48   21   45 1
@<TRIPOS>MOLECULE
ZINC03778441
   61    63     0     0     0
SMALL
USER_CHARGES
diethylsulfamoylamino-hydroxy-propyl-BLAH
@<TRIPOS>ATOM
      1 C1         -2.0685    7.1638    0.7922 C.3       1 <0>        -0.1551
      2 C2         -1.8026    5.6616    0.9081 C.3       1 <0>        -0.1549
      3 C3         -1.1393    5.1605   -0.3764 C.3       1 <0>        -0.0121
      4 C4         -0.3471    3.2955    0.9446 C.3       1 <0>        -0.0295
      5 C5         -0.3749    1.7671    1.0422 C.3       1 <0>         0.1369
      6 H1          0.0903    1.4532    1.9766 H         1 <0>         0.1305
      7 C6          0.4035    1.1863   -0.1387 C.3       1 <0>        -0.1381
      8 C7         -0.2182    1.6622   -1.4560 C.3       1 <0>        -0.1001
      9 H2         -1.2246    1.2570   -1.5610 H         1 <0>         0.0995
     10 C8         -0.2642    3.1940   -1.4868 C.3       1 <0>         0.0372
     11 H3          0.7486    3.5960   -1.5142 H         1 <0>         0.1504
     12 C9         -1.0337    3.6298   -2.7371 C.3       1 <0>        -0.0983
     13 C10        -0.5007    2.9491   -3.9676 C.ar      1 <0>        -0.0754
     14 C11        -0.8184    3.4998   -5.2033 C.ar      1 <0>        -0.1195
     15 C12        -0.3663    2.9186   -6.3699 C.ar      1 <0>        -0.0934
     16 C13         0.4092    1.7765   -6.3127 C.ar      1 <0>        -0.1322
     17 C14         0.7302    1.2256   -5.0841 C.ar      1 <0>         0.1143
     18 C15         0.2766    1.8161   -3.9055 C.ar      1 <0>        -0.1095
     19 C16         0.6765    1.1819   -2.6021 C.3       1 <0>        -0.0627
     20 O1          1.4929    0.1023   -5.0263 O.3       1 <0>        -0.4941
     21 N1         -1.7610    1.2952    0.9969 N.pl3     1 <0>        -1.1398
     22 S1         -2.5673    0.9583    2.4036 S.o2      1 <0>         2.7747
     23 O2         -2.3657    2.0712    3.2639 O.2       1 <0>        -0.9651
     24 O3         -3.8627    0.5080    2.0314 O.2       1 <0>        -0.9588
     25 N2         -1.8031   -0.3301    3.1095 N.pl3     1 <0>        -0.9984
     26 C17        -0.7862   -0.1041    4.1396 C.3       1 <0>         0.1173
     27 C18        -1.4325   -0.1971    5.5233 C.3       1 <0>        -0.1777
     28 C19        -2.1439   -1.6960    2.7038 C.3       1 <0>         0.1060
     29 C20        -1.1326   -2.1871    1.6660 C.3       1 <0>        -0.1734
     30 H4         -1.1254    7.6892    0.6414 H         1 <0>         0.0674
     31 H5         -2.7285    7.3517   -0.0547 H         1 <0>         0.0662
     32 H6         -2.5411    7.5208    1.7072 H         1 <0>         0.0781
     33 H7         -2.7457    5.1363    1.0588 H         1 <0>         0.0845
     34 H8         -1.1427    5.4737    1.7550 H         1 <0>         0.0914
     35 H9         -0.1588    5.6244   -0.4838 H         1 <0>         0.1353
     36 H10        -1.7610    5.4225   -1.2325 H         1 <0>         0.1302
     37 H11         0.6853    3.6448    0.9583 H         1 <0>         0.1472
     38 H12        -0.8895    3.7267    1.7860 H         1 <0>         0.1468
     39 H13         0.3691    0.0977   -0.0947 H         1 <0>         0.1064
     40 H14         1.4405    1.5181   -0.0871 H         1 <0>         0.1016
     41 H15        -2.0866    3.3753   -2.6156 H         1 <0>         0.0954
     42 H16        -0.9394    4.7092   -2.8566 H         1 <0>         0.1026
     43 H17        -1.4257    4.3916   -5.2509 H         1 <0>         0.1288
     44 H18        -0.6185    3.3547   -7.3252 H         1 <0>         0.1357
     45 H19         0.7631    1.3153   -7.2229 H         1 <0>         0.1369
     46 H20         1.7116    1.4422   -2.3806 H         1 <0>         0.0927
     47 H21         0.5927    0.0988   -2.6911 H         1 <0>         0.0955
     48 H22         0.9840   -0.7198   -5.0415 H         1 <0>         0.3951
     49 H23        -2.2065    1.1801    0.1430 H         1 <0>         0.4161
     50 H24        -0.0057   -0.8598    4.0516 H         1 <0>         0.0857
     51 H25        -0.3498    0.8860    4.0082 H         1 <0>         0.0790
     52 H26        -1.8689   -1.1872    5.6546 H         1 <0>         0.0642
     53 H27        -0.6759   -0.0289    6.2897 H         1 <0>         0.0745
     54 H28        -2.2130    0.5587    5.6112 H         1 <0>         0.0616
     55 H29        -2.1178   -2.3509    3.5748 H         1 <0>         0.0904
     56 H30        -3.1439   -1.7075    2.2704 H         1 <0>         0.0928
     57 H31        -1.0951   -1.4838    0.8341 H         1 <0>         0.0526
     58 H32        -0.1467   -2.2595    2.1253 H         1 <0>         0.0632
     59 H33        -1.4355   -3.1678    1.2993 H         1 <0>         0.0744
     60 N3         -1.0209    3.6917   -0.3126 N.4       1 <0>        -0.3919
     61 H34        -1.9618    3.2810   -0.3273 H         1 <0>         0.4208
@<TRIPOS>BOND
     1    1    2 1
     2    1   30 1
     3    1   31 1
     4    1   32 1
     5    2    3 1
     6    2   33 1
     7    2   34 1
     8    3   35 1
     9    3   36 1
    10    3   60 1
    11    4    5 1
    12    4   37 1
    13    4   38 1
    14    4   60 1
    15    5    6 1
    16    5    7 1
    17    5   21 1
    18    7    8 1
    19    7   39 1
    20    7   40 1
    21    8    9 1
    22    8   19 1
    23    8   10 1
    24   10   11 1
    25   10   12 1
    26   10   60 1
    27   12   13 1
    28   12   41 1
    29   12   42 1
    30   13   18 ar
    31   13   14 ar
    32   14   15 ar
    33   14   43 1
    34   15   16 ar
    35   15   44 1
    36   16   17 ar
    37   16   45 1
    38   17   18 ar
    39   17   20 1
    40   18   19 1
    41   19   46 1
    42   19   47 1
    43   20   48 1
    44   21   22 1
    45   21   49 1
    46   22   23 2
    47   22   24 2
    48   22   25 1
    49   25   26 1
    50   25   28 1
    51   26   27 1
    52   26   50 1
    53   26   51 1
    54   27   52 1
    55   27   53 1
    56   27   54 1
    57   28   29 1
    58   28   55 1
    59   28   56 1
    60   29   57 1
    61   29   58 1
    62   29   59 1
    63   60   61 1
@<TRIPOS>MOLECULE
ZINC00077360
   29    30     0     0     0
SMALL
USER_CHARGES

@<TRIPOS>ATOM
      1 C1         -0.0173    1.4248    0.0099 C.3       1 <0>         0.0260
      2 O1          0.0021   -0.0041    0.0020 O.3       1 <0>        -0.3138
      3 C2         -1.2006   -0.6377    0.0101 C.ar      1 <0>         0.1564
      4 C3         -2.3754    0.1105    0.0196 C.ar      1 <0>        -0.2121
      5 C4         -3.5918   -0.5101    0.0282 C.ar      1 <0>        -0.0422
      6 C5         -3.6602   -1.9049    0.0271 C.ar      1 <0>        -0.1363
      7 C6         -2.4782   -2.6674    0.0171 C.ar      1 <0>         0.1371
      8 C7         -1.2477   -2.0189    0.0031 C.ar      1 <0>        -0.1690
      9 N1         -2.8498   -3.9933    0.0179 N.pl3     1 <0>        -0.5876
     10 H1         -2.2357   -4.7442    0.0122 H         1 <0>         0.4244
     11 C8         -4.2157   -4.0937    0.0281 C.2       1 <0>         0.0794
     12 C9         -4.7641   -2.8690    0.0340 C.2       1 <0>        -0.1982
     13 C10        -6.2360   -2.5461    0.0463 C.3       1 <0>        -0.0616
     14 C11        -6.7186   -2.3112   -1.3864 C.3       1 <0>        -0.0083
     15 N2         -8.1535   -1.9965   -1.3744 N.4       1 <0>        -0.6389
     16 H2          1.0053    1.8021    0.0021 H         1 <0>         0.1060
     17 H3         -0.5445    1.7859   -0.8732 H         1 <0>         0.0580
     18 H4         -0.5275    1.7763    0.9067 H         1 <0>         0.0588
     19 H5         -2.3239    1.1893    0.0205 H         1 <0>         0.1340
     20 H6         -4.4986    0.0763    0.0363 H         1 <0>         0.1226
     21 H7         -0.3327   -2.5925   -0.0087 H         1 <0>         0.1339
     22 H8         -4.7693   -5.0210    0.0309 H         1 <0>         0.1736
     23 H9         -6.7870   -3.3788    0.4834 H         1 <0>         0.0921
     24 H10        -6.4058   -1.6471    0.6389 H         1 <0>         0.0920
     25 H11        -6.1676   -1.4785   -1.8235 H         1 <0>         0.1334
     26 H12        -6.5488   -3.2102   -1.9790 H         1 <0>         0.1332
     27 H13        -8.6635   -2.7673   -0.9698 H         1 <0>         0.4346
     28 H14        -8.3106   -1.1643   -0.8259 H         1 <0>         0.4348
     29 H15        -8.4717   -1.8416   -2.3193 H         1 <0>         0.4378
@<TRIPOS>BOND
     1    1    2 1
     2    1   16 1
     3    1   17 1
     4    1   18 1
     5    2    3 1
     6    3    8 ar
     7    3    4 ar
     8    4    5 ar
     9    4   19 1
    10    5    6 ar
    11    5   20 1
    12    6   12 1
    13    6    7 ar
    14    7    8 ar
    15    7    9 1
    16    8   21 1
    17    9   10 1
    18    9   11 1
    19   11   12 2
    20   11   22 1
    21   12   13 1
    22   13   14 1
    23   13   23 1
    24   13   24 1
    25   14   15 1
    26   14   25 1
    27   14   26 1
    28   15   27 1
    29   15   28 1
    30   15   29 1
@<TRIPOS>MOLECULE
ZINC05734222
   29    30     0     0     0
SMALL
USER_CHARGES
2-(4-methoxy-1H-indol-3-yl)ethanamine
@<TRIPOS>ATOM
      1 C1         -0.0127    1.0858    0.0080 C.3       1 <0>         0.0231
      2 O1         -0.6816    1.5467    1.1837 O.3       1 <0>        -0.3249
      3 C2         -1.9747    1.1631    1.3482 C.ar      1 <0>         0.1656
      4 C3         -2.5883    0.3629    0.4036 C.ar      1 <0>        -0.2308
      5 C4         -3.9086   -0.0299    0.5696 C.ar      1 <0>        -0.0517
      6 C5         -4.6280    0.3694    1.6745 C.ar      1 <0>        -0.1608
      7 C6         -4.0317    1.1756    2.6397 C.ar      1 <0>         0.1330
      8 C7         -2.6925    1.5713    2.4789 C.ar      1 <0>        -0.1273
      9 C8         -2.3681    2.3913    3.6486 C.2       1 <0>        -0.1850
     10 C9         -3.4702    2.4375    4.4131 C.2       1 <0>         0.0740
     11 N1         -4.4777    1.7227    3.8220 N.pl3     1 <0>        -0.5870
     12 H1         -5.3695    1.6105    4.1866 H         1 <0>         0.4256
     13 C10        -1.0473    3.0563    3.9388 C.3       1 <0>        -0.0617
     14 C11        -0.9906    4.4098    3.2277 C.3       1 <0>        -0.0009
     15 H2          0.3589    5.9545    3.0517 H         1 <0>         0.4386
     16 H3          0.4451    5.1495    4.5044 H         1 <0>         0.4353
     17 H4          0.0021   -0.0041    0.0020 H         1 <0>         0.0614
     18 H5          1.0099    1.4631    0.0003 H         1 <0>         0.1012
     19 H6         -0.5399    1.4469   -0.8751 H         1 <0>         0.0597
     20 H7         -2.0376    0.0420   -0.4683 H         1 <0>         0.1328
     21 H8         -4.3776   -0.6551   -0.1757 H         1 <0>         0.1348
     22 H9         -5.6549    0.0564    1.7919 H         1 <0>         0.1279
     23 H10        -3.5530    2.9670    5.3507 H         1 <0>         0.1746
     24 H11        -0.9442    3.2059    5.0136 H         1 <0>         0.0895
     25 H12        -0.2354    2.4234    3.5806 H         1 <0>         0.0967
     26 H13        -1.0937    4.2602    2.1530 H         1 <0>         0.1318
     27 H14        -1.8025    5.0427    3.5860 H         1 <0>         0.1318
     28 N2          0.3127    5.0411    3.5002 N.4       1 <0>        -0.6469
     29 H15         1.0609    4.4458    3.1260 H         1 <0>         0.4395
@<TRIPOS>BOND
     1    1    2 1
     2    1   17 1
     3    1   18 1
     4    1   19 1
     5    2    3 1
     6    3    8 ar
     7    3    4 ar
     8    4    5 ar
     9    4   20 1
    10    5    6 ar
    11    5   21 1
    12    6    7 ar
    13    6   22 1
    14    7   11 1
    15    7    8 ar
    16    8    9 1
    17    9   10 2
    18    9   13 1
    19   10   11 1
    20   10   23 1
    21   11   12 1
    22   13   14 1
    23   13   24 1
    24   13   25 1
    25   14   26 1
    26   14   27 1
    27   14   28 1
    28   15   28 1
    29   16   28 1
    30   28   29 1
@<TRIPOS>MOLECULE
ZINC00020248
   46    48     0     0     0
SMALL
USER_CHARGES

@<TRIPOS>ATOM
      1 C1         -5.6600    1.3618    0.4597 C.3       1 <0>        -0.0474
      2 N1         -5.6471   -0.0878    0.2218 N.4       1 <0>        -0.3867
      3 C2         -6.3574   -0.3850   -1.0293 C.3       1 <0>        -0.0523
      4 C3         -4.2581   -0.5548    0.1191 C.3       1 <0>        -0.0083
      5 C4         -4.2405   -2.0797   -0.0038 C.3       1 <0>        -0.1741
      6 C5         -2.7938   -2.5661   -0.1108 C.3       1 <0>         0.1309
      7 N2         -2.7704   -4.0309   -0.1190 N.pl3     1 <0>        -0.5935
      8 C6         -2.7303   -4.6837   -1.3451 C.ar      1 <0>         0.1859
      9 C7         -1.8260   -4.1660   -2.2811 C.ar      1 <0>        -0.1574
     10 C8         -1.6797   -4.7476   -3.5192 C.ar      1 <0>        -0.0952
     11 C9         -2.4365   -5.8609   -3.8384 C.ar      1 <0>        -0.1332
     12 C10        -3.3330   -6.3646   -2.9249 C.ar      1 <0>        -0.0999
     13 C11        -3.5037   -5.7750   -1.6688 C.ar      1 <0>        -0.1089
     14 C12        -4.5743   -6.4166   -0.8216 C.3       1 <0>        -0.0721
     15 C13        -4.9918   -5.6033    0.3783 C.3       1 <0>        -0.0690
     16 C14        -3.8887   -5.4681    1.3836 C.ar      1 <0>        -0.0980
     17 C15        -2.7839   -4.6994    1.1019 C.ar      1 <0>         0.1741
     18 C16        -1.7322   -4.5882    1.9998 C.ar      1 <0>        -0.1187
     19 C17        -1.8086   -5.2524    3.2126 C.ar      1 <0>        -0.0223
     20 C18        -2.9248   -6.0132    3.5136 C.ar      1 <0>        -0.1131
     21 C19        -3.9754   -6.1256    2.6005 C.ar      1 <0>        -0.0889
     22 Cl1        -0.5058   -5.1313    4.3535 Cl        1 <0>        -0.0554
     23 H1         -6.6906    1.7083    0.5359 H         1 <0>         0.1247
     24 H2         -5.1330    1.5823    1.3879 H         1 <0>         0.1236
     25 H3         -5.1660    1.8703   -0.3683 H         1 <0>         0.1224
     26 H4         -5.8633    0.1235   -1.8572 H         1 <0>         0.1230
     27 H5         -6.3478   -1.4606   -1.2058 H         1 <0>         0.1233
     28 H6         -7.3880   -0.0385   -0.9531 H         1 <0>         0.1247
     29 H7         -3.7907   -0.1139   -0.7614 H         1 <0>         0.1315
     30 H8         -3.7074   -0.2558    1.0110 H         1 <0>         0.1322
     31 H9         -4.7079   -2.5206    0.8766 H         1 <0>         0.0896
     32 H10        -4.7912   -2.3787   -0.8957 H         1 <0>         0.0908
     33 H11        -2.3515   -2.1905   -1.0335 H         1 <0>         0.0902
     34 H12        -2.2229   -2.1984    0.7418 H         1 <0>         0.0815
     35 H13        -1.2357   -3.2979   -2.0274 H         1 <0>         0.1217
     36 H14        -0.9815   -4.3392   -4.2348 H         1 <0>         0.1273
     37 H15        -2.3238   -6.3333   -4.8030 H         1 <0>         0.1262
     38 H16        -3.9182   -7.2346   -3.1839 H         1 <0>         0.1241
     39 H17        -5.4518   -6.5884   -1.4450 H         1 <0>         0.0825
     40 H18        -4.2074   -7.3823   -0.4739 H         1 <0>         0.0763
     41 H19        -5.2905   -4.6094    0.0453 H         1 <0>         0.0673
     42 H20        -5.8457   -6.0866    0.8532 H         1 <0>         0.0790
     43 H21        -0.8653   -3.9919    1.7562 H         1 <0>         0.1372
     44 H22        -2.9858   -6.5230    4.4638 H         1 <0>         0.1382
     45 H23        -4.8449   -6.7215    2.8354 H         1 <0>         0.1390
     46 H24        -6.1044   -0.5585    0.9882 H         1 <0>         0.4269
@<TRIPOS>BOND
     1    1    2 1
     2    1   23 1
     3    1   24 1
     4    1   25 1
     5    2    3 1
     6    2    4 1
     7    2   46 1
     8    3   26 1
     9    3   27 1
    10    3   28 1
    11    4    5 1
    12    4   29 1
    13    4   30 1
    14    5    6 1
    15    5   31 1
    16    5   32 1
    17    6    7 1
    18    6   33 1
    19    6   34 1
    20    7   17 1
    21    7    8 1
    22    8   13 ar
    23    8    9 ar
    24    9   10 ar
    25    9   35 1
    26   10   11 ar
    27   10   36 1
    28   11   12 ar
    29   11   37 1
    30   12   13 ar
    31   12   38 1
    32   13   14 1
    33   14   15 1
    34   14   39 1
    35   14   40 1
    36   15   16 1
    37   15   41 1
    38   15   42 1
    39   16   21 ar
    40   16   17 ar
    41   17   18 ar
    42   18   19 ar
    43   18   43 1
    44   19   20 ar
    45   19   22 1
    46   20   21 ar
    47   20   44 1
    48   21   45 1
@<TRIPOS>MOLECULE
ZINC01530741
   42    44     0     0     0
SMALL
USER_CHARGES

@<TRIPOS>ATOM
      1 C1         -0.0178    1.4648    0.0101 C.3       1 <0>        -0.0473
      2 N1          0.0021   -0.0041    0.0020 N.4       1 <0>        -0.5104
      3 C2         -1.3761   -0.5125    0.0124 C.3       1 <0>        -0.0075
      4 C3         -1.3553   -2.0424    0.0040 C.3       1 <0>        -0.1205
      5 C4         -2.7691   -2.5640    0.0147 C.2       1 <0>        -0.1701
      6 C5         -3.1759   -3.4141   -0.9354 C.2       1 <0>         0.0084
      7 C6         -2.2617   -3.8737   -2.0162 C.ar      1 <0>        -0.0603
      8 C7         -1.0502   -4.4584   -1.6510 C.ar      1 <0>        -0.1120
      9 C8         -0.1817   -4.9254   -2.6144 C.ar      1 <0>        -0.1225
     10 C9         -0.5309   -4.8091   -3.9481 C.ar      1 <0>        -0.1072
     11 C10        -1.7216   -4.2226   -4.3099 C.ar      1 <0>        -0.1263
     12 C11        -2.6129   -3.7258   -3.3561 C.ar      1 <0>        -0.0535
     13 C12        -3.8344   -3.0498   -3.9297 C.3       1 <0>        -0.0765
     14 C13        -4.7567   -2.4533   -2.8869 C.3       1 <0>        -0.0806
     15 C14        -5.3648   -3.4987   -1.9877 C.ar      1 <0>        -0.0737
     16 C15        -4.5615   -3.9515   -0.9605 C.ar      1 <0>        -0.0697
     17 C16        -5.0352   -4.8627   -0.0270 C.ar      1 <0>        -0.0955
     18 C17        -6.3272   -5.3414   -0.1696 C.ar      1 <0>        -0.1191
     19 C18        -7.1195   -4.9199   -1.2225 C.ar      1 <0>        -0.1080
     20 C19        -6.6408   -3.9814   -2.1491 C.ar      1 <0>        -0.1083
     21 H1          1.0047    1.8421    0.0024 H         1 <0>         0.1266
     22 H2         -0.5450    1.8259   -0.8730 H         1 <0>         0.1232
     23 H3         -0.5280    1.8163    0.9069 H         1 <0>         0.1239
     24 H4          0.4744   -0.3295   -0.8281 H         1 <0>         0.4301
     25 H5         -1.8863   -0.1610    0.9092 H         1 <0>         0.1332
     26 H6         -1.9033   -0.1515   -0.8706 H         1 <0>         0.1314
     27 H7         -0.8451   -2.3939   -0.8928 H         1 <0>         0.0991
     28 H8         -0.8281   -2.4035    0.8871 H         1 <0>         0.0962
     29 H9         -3.4541   -2.2517    0.7892 H         1 <0>         0.1310
     30 H10        -0.7900   -4.5458   -0.6065 H         1 <0>         0.1235
     31 H11         0.7582   -5.3762   -2.3319 H         1 <0>         0.1290
     32 H12         0.1367   -5.1814   -4.7112 H         1 <0>         0.1265
     33 H13        -1.9733   -4.1443   -5.3573 H         1 <0>         0.1247
     34 H14        -3.5084   -2.2546   -4.6003 H         1 <0>         0.0855
     35 H15        -4.3952   -3.7815   -4.5113 H         1 <0>         0.0834
     36 H16        -4.1905   -1.7497   -2.2766 H         1 <0>         0.0703
     37 H17        -5.5577   -1.9136   -3.3920 H         1 <0>         0.0793
     38 H18        -4.4114   -5.1904    0.7915 H         1 <0>         0.1267
     39 H19        -6.7188   -6.0491    0.5460 H         1 <0>         0.1278
     40 H20        -8.1181   -5.3161   -1.3327 H         1 <0>         0.1275
     41 H21        -7.2557   -3.6486   -2.9723 H         1 <0>         0.1315
     42 H22         0.4901   -0.3383    0.8195 H         1 <0>         0.4302
@<TRIPOS>BOND
     1    1    2 1
     2    1   21 1
     3    1   22 1
     4    1   23 1
     5    2    3 1
     6    2   24 1
     7    2   42 1
     8    3    4 1
     9    3   25 1
    10    3   26 1
    11    4    5 1
    12    4   27 1
    13    4   28 1
    14    5    6 2
    15    5   29 1
    16    6   16 1
    17    6    7 1
    18    7   12 ar
    19    7    8 ar
    20    8    9 ar
    21    8   30 1
    22    9   10 ar
    23    9   31 1
    24   10   11 ar
    25   10   32 1
    26   11   12 ar
    27   11   33 1
    28   12   13 1
    29   13   14 1
    30   13   34 1
    31   13   35 1
    32   14   15 1
    33   14   36 1
    34   14   37 1
    35   15   20 ar
    36   15   16 ar
    37   16   17 ar
    38   17   18 ar
    39   17   38 1
    40   18   19 ar
    41   18   39 1
    42   19   20 ar
    43   19   40 1
    44   20   41 1
@<TRIPOS>MOLECULE
ZINC00009073
   38    41     0     0     0
SMALL
USER_CHARGES

@<TRIPOS>ATOM
      1 C1         -0.0178    1.4648    0.0101 C.3       1 <0>        -0.0530
      2 N1          0.0021   -0.0041    0.0020 N.4       1 <0>        -0.3818
      3 C2         -1.3707   -0.5099    0.0093 C.3       1 <0>        -0.0045
      4 C3         -1.3945   -2.0165   -0.1908 C.3       1 <0>        -0.1054
      5 C4         -0.2778   -2.7021    0.5444 C.ar      1 <0>        -0.0840
      6 C5         -0.2629   -4.0910    0.5709 C.ar      1 <0>        -0.1053
      7 C6          0.7244   -4.7743    1.2518 C.ar      1 <0>        -0.0885
      8 C7          1.7146   -4.0754    1.9128 C.ar      1 <0>        -0.0992
      9 C8          1.7194   -2.6860    1.8733 C.ar      1 <0>        -0.0068
     10 C9          0.7130   -1.9965    1.1919 C.ar      1 <0>        -0.1248
     11 C10         0.7133   -0.4906    1.1934 C.3       1 <0>         0.0895
     12 H1          0.2077   -0.1297    2.0890 H         1 <0>         0.1464
     13 C11         2.1391    0.0560    1.1696 C.3       1 <0>        -0.0929
     14 C12         2.9742   -0.5785    2.2479 C.ar      1 <0>        -0.0798
     15 C13         2.7759   -1.9188    2.5745 C.ar      1 <0>        -0.0653
     16 C14         3.5639   -2.5230    3.5530 C.ar      1 <0>         0.1042
     17 C15         4.5367   -1.7751    4.2088 C.ar      1 <0>         0.0998
     18 C16         4.7147   -0.4388    3.8881 C.ar      1 <0>        -0.1167
     19 C17         3.9357    0.1560    2.9107 C.ar      1 <0>        -0.0938
     20 O1          5.3124   -2.3551    5.1634 O.3       1 <0>        -0.4826
     21 O2          3.3828   -3.8338    3.8646 O.3       1 <0>        -0.4754
     22 H2          1.0047    1.8421    0.0024 H         1 <0>         0.1274
     23 H3         -0.5450    1.8259   -0.8730 H         1 <0>         0.1292
     24 H4         -0.5280    1.8163    0.9069 H         1 <0>         0.1253
     25 H5         -1.8367   -0.2679    0.9645 H         1 <0>         0.1303
     26 H6         -1.9326   -0.0329   -0.7937 H         1 <0>         0.1395
     27 H7         -2.3469   -2.4064    0.1685 H         1 <0>         0.1232
     28 H8         -1.3037   -2.2338   -1.2551 H         1 <0>         0.1049
     29 H9         -1.0333   -4.6427    0.0527 H         1 <0>         0.1363
     30 H10         0.7220   -5.8542    1.2677 H         1 <0>         0.1404
     31 H11         2.4813   -4.6056    2.4582 H         1 <0>         0.1525
     32 H12         2.5874   -0.1542    0.1986 H         1 <0>         0.1009
     33 H13         2.1121    1.1345    1.3252 H         1 <0>         0.1081
     34 H14         5.4652    0.1418    4.4038 H         1 <0>         0.1453
     35 H15         4.0810    1.1979    2.6663 H         1 <0>         0.1401
     36 H16         6.1269   -2.7493    4.8224 H         1 <0>         0.3972
     37 H17         3.9208   -4.4411    3.3384 H         1 <0>         0.3936
     38 H18         0.4752   -0.3291   -0.8278 H         1 <0>         0.4258
@<TRIPOS>BOND
     1    1    2 1
     2    1   22 1
     3    1   23 1
     4    1   24 1
     5    2   11 1
     6    2    3 1
     7    2   38 1
     8    3    4 1
     9    3   25 1
    10    3   26 1
    11    4    5 1
    12    4   27 1
    13    4   28 1
    14    5   10 ar
    15    5    6 ar
    16    6    7 ar
    17    6   29 1
    18    7    8 ar
    19    7   30 1
    20    8    9 ar
    21    8   31 1
    22    9   15 1
    23    9   10 ar
    24   10   11 1
    25   11   12 1
    26   11   13 1
    27   13   14 1
    28   13   32 1
    29   13   33 1
    30   14   19 ar
    31   14   15 ar
    32   15   16 ar
    33   16   17 ar
    34   16   21 1
    35   17   18 ar
    36   17   20 1
    37   18   19 ar
    38   18   34 1
    39   19   35 1
    40   20   36 1
    41   21   37 1
@<TRIPOS>MOLECULE
ZINC00009073
   37    40     0     0     0
SMALL
USER_CHARGES

@<TRIPOS>ATOM
      1 C1         -0.0178    1.4648    0.0101 C.3       1 <0>         0.0190
      2 N1          0.0021   -0.0041    0.0020 N.3       1 <0>        -0.5347
      3 C2         -1.3554   -0.5468   -0.0771 C.3       1 <0>         0.0548
      4 C3         -1.3255   -2.0437   -0.3363 C.3       1 <0>        -0.0776
      5 C4         -0.2136   -2.7298    0.4050 C.ar      1 <0>        -0.0660
      6 C5         -0.1676   -4.1185    0.3764 C.ar      1 <0>        -0.1168
      7 C6          0.8160   -4.8083    1.0555 C.ar      1 <0>        -0.1183
      8 C7          1.7732   -4.1167    1.7707 C.ar      1 <0>        -0.1100
      9 C8          1.7473   -2.7271    1.7884 C.ar      1 <0>        -0.0402
     10 C9          0.7422   -2.0318    1.1101 C.ar      1 <0>        -0.0602
     11 C10         0.7070   -0.5281    1.1816 C.3       1 <0>         0.1292
     12 H1          0.1788   -0.2212    2.0843 H         1 <0>         0.0565
     13 C11         2.1199    0.0508    1.2084 C.3       1 <0>        -0.0723
     14 C12         2.9454   -0.6100    2.2786 C.ar      1 <0>        -0.0656
     15 C13         2.7694   -1.9666    2.5450 C.ar      1 <0>        -0.0523
     16 C14         3.5484   -2.5938    3.5165 C.ar      1 <0>         0.0945
     17 C15         4.4897   -1.8532    4.2246 C.ar      1 <0>         0.0806
     18 C16         4.6455   -0.5013    3.9627 C.ar      1 <0>        -0.1259
     19 C17         3.8757    0.1166    2.9923 C.ar      1 <0>        -0.1047
     20 O1          5.2558   -2.4554    5.1733 O.3       1 <0>        -0.4864
     21 O2          3.3897   -3.9199    3.7698 O.3       1 <0>        -0.4768
     22 H2          1.0047    1.8421    0.0024 H         1 <0>         0.0749
     23 H3         -0.5450    1.8259   -0.8730 H         1 <0>         0.0732
     24 H4         -0.5280    1.8163    0.9069 H         1 <0>         0.0286
     25 H5         -1.8730   -0.3560    0.8630 H         1 <0>         0.0357
     26 H6         -1.8920   -0.0533   -0.8874 H         1 <0>         0.0839
     27 H7         -2.2767   -2.4752   -0.0246 H         1 <0>         0.0807
     28 H8         -1.1956   -2.2145   -1.4050 H         1 <0>         0.0833
     29 H9         -0.9115   -4.6650   -0.1844 H         1 <0>         0.1227
     30 H10         0.8367   -5.8878    1.0279 H         1 <0>         0.1259
     31 H11         2.5378   -4.6525    2.3137 H         1 <0>         0.1407
     32 H12         2.5925   -0.1106    0.2395 H         1 <0>         0.0936
     33 H13         2.0656    1.1213    1.4066 H         1 <0>         0.0843
     34 H14         5.3712    0.0734    4.5190 H         1 <0>         0.1363
     35 H15         4.0042    1.1703    2.7931 H         1 <0>         0.1343
     36 H16         6.0862   -2.8185    4.8360 H         1 <0>         0.3882
     37 H17         3.9530   -4.4932    3.2322 H         1 <0>         0.3868
@<TRIPOS>BOND
     1    1    2 1
     2    1   22 1
     3    1   23 1
     4    1   24 1
     5    2   11 1
     6    2    3 1
     7    3    4 1
     8    3   25 1
     9    3   26 1
    10    4    5 1
    11    4   27 1
    12    4   28 1
    13    5   10 ar
    14    5    6 ar
    15    6    7 ar
    16    6   29 1
    17    7    8 ar
    18    7   30 1
    19    8    9 ar
    20    8   31 1
    21    9   15 1
    22    9   10 ar
    23   10   11 1
    24   11   12 1
    25   11   13 1
    26   13   14 1
    27   13   32 1
    28   13   33 1
    29   14   19 ar
    30   14   15 ar
    31   15   16 ar
    32   16   17 ar
    33   16   21 1
    34   17   18 ar
    35   17   20 1
    36   18   19 ar
    37   18   34 1
    38   19   35 1
    39   20   36 1
    40   21   37 1
@<TRIPOS>MOLECULE
ZINC00968257
   45    47     0     0     0
SMALL
USER_CHARGES

@<TRIPOS>ATOM
      1 C1         -0.0178    1.4648    0.0101 C.3       1 <0>        -0.0532
      2 N1          0.0021   -0.0041    0.0020 N.4       1 <0>        -0.3871
      3 C2         -1.3761   -0.5125    0.0124 C.3       1 <0>        -0.0473
      4 C3          0.6897   -0.4778   -1.2066 C.3       1 <0>        -0.0075
      5 C4          2.1588   -0.0534   -1.1571 C.3       1 <0>        -0.1202
      6 C5          2.8641   -0.5394   -2.3970 C.2       1 <0>        -0.1679
      7 C6          3.5250    0.3270   -3.1738 C.2       1 <0>         0.0063
      8 C7          3.5927    1.7771   -2.8453 C.ar      1 <0>        -0.0588
      9 C8          4.0673    2.1470   -1.5880 C.ar      1 <0>        -0.1130
     10 C9          4.1752    3.4781   -1.2462 C.ar      1 <0>        -0.1230
     11 C10         3.8096    4.4415   -2.1695 C.ar      1 <0>        -0.1074
     12 C11         3.3311    4.0773   -3.4068 C.ar      1 <0>        -0.1261
     13 C12         3.1954    2.7364   -3.7740 C.ar      1 <0>        -0.0534
     14 C13         2.5869    2.5170   -5.1377 C.3       1 <0>        -0.0764
     15 C14         2.3799    1.0595   -5.4939 C.3       1 <0>        -0.0807
     16 C15         3.6776    0.3005   -5.5991 C.ar      1 <0>        -0.0737
     17 C16         4.2334   -0.1117   -4.4047 C.ar      1 <0>        -0.0690
     18 C17         5.3905   -0.8775   -4.3777 C.ar      1 <0>        -0.0956
     19 C18         6.0025   -1.1900   -5.5806 C.ar      1 <0>        -0.1191
     20 C19         5.4694   -0.7426   -6.7762 C.ar      1 <0>        -0.1081
     21 C20         4.2868    0.0121   -6.7962 C.ar      1 <0>        -0.1083
     22 H1          1.0047    1.8421    0.0024 H         1 <0>         0.1238
     23 H2         -0.5450    1.8259   -0.8730 H         1 <0>         0.1221
     24 H3         -0.5280    1.8163    0.9069 H         1 <0>         0.1250
     25 H4         -1.9033   -0.1515   -0.8706 H         1 <0>         0.1216
     26 H5         -1.3613   -1.6024    0.0065 H         1 <0>         0.1236
     27 H6         -1.8863   -0.1610    0.9092 H         1 <0>         0.1246
     28 H7          0.6270   -1.5648   -1.2578 H         1 <0>         0.1321
     29 H8          0.2158   -0.0447   -2.0875 H         1 <0>         0.1294
     30 H9          2.2214    1.0336   -1.1059 H         1 <0>         0.0996
     31 H10         2.6326   -0.4865   -0.2761 H         1 <0>         0.0954
     32 H11         2.8363   -1.5868   -2.6585 H         1 <0>         0.1308
     33 H12         4.3519    1.3857   -0.8767 H         1 <0>         0.1233
     34 H13         4.5405    3.7651   -0.2712 H         1 <0>         0.1290
     35 H14         3.9003    5.4876   -1.9168 H         1 <0>         0.1264
     36 H15         3.0534    4.8470   -4.1116 H         1 <0>         0.1247
     37 H16         1.6223    3.0233   -5.1729 H         1 <0>         0.0854
     38 H17         3.2393    2.9678   -5.8855 H         1 <0>         0.0834
     39 H18         1.7604    0.5939   -4.7274 H         1 <0>         0.0703
     40 H19         1.8587    1.0007   -6.4494 H         1 <0>         0.0792
     41 H20         5.8038   -1.2219   -3.4413 H         1 <0>         0.1267
     42 H21         6.9025   -1.7870   -5.5850 H         1 <0>         0.1278
     43 H22         5.9677   -0.9772   -7.7052 H         1 <0>         0.1274
     44 H23         3.8663    0.3630   -7.7270 H         1 <0>         0.1314
     45 H24         0.4901   -0.3383    0.8195 H         1 <0>         0.4266
@<TRIPOS>BOND
     1    1    2 1
     2    1   22 1
     3    1   23 1
     4    1   24 1
     5    2    3 1
     6    2    4 1
     7    2   45 1
     8    3   25 1
     9    3   26 1
    10    3   27 1
    11    4    5 1
    12    4   28 1
    13    4   29 1
    14    5    6 1
    15    5   30 1
    16    5   31 1
    17    6    7 2
    18    6   32 1
    19    7   17 1
    20    7    8 1
    21    8   13 ar
    22    8    9 ar
    23    9   10 ar
    24    9   33 1
    25   10   11 ar
    26   10   34 1
    27   11   12 ar
    28   11   35 1
    29   12   13 ar
    30   12   36 1
    31   13   14 1
    32   14   15 1
    33   14   37 1
    34   14   38 1
    35   15   16 1
    36   15   39 1
    37   15   40 1
    38   16   21 ar
    39   16   17 ar
    40   17   18 ar
    41   18   19 ar
    42   18   41 1
    43   19   20 ar
    44   19   42 1
    45   20   21 ar
    46   20   43 1
    47   21   44 1
@<TRIPOS>MOLECULE
ZINC01530611
   43    45     0     0     0
SMALL
USER_CHARGES

@<TRIPOS>ATOM
      1 C1         -5.6811    1.3607   -0.3895 C.3       1 <0>        -0.0475
      2 N1         -5.6577   -0.0983   -0.2206 N.4       1 <0>        -0.5096
      3 C2         -4.2653   -0.5656   -0.1914 C.3       1 <0>        -0.0084
      4 C3         -4.2409   -2.0853   -0.0155 C.3       1 <0>        -0.1794
      5 C4         -2.7907   -2.5720    0.0149 C.3       1 <0>         0.1487
      6 N2         -2.7680   -4.0325    0.1272 N.pl3     1 <0>        -0.6107
      7 C5         -2.6913   -4.8424   -1.0108 C.ar      1 <0>         0.1751
      8 C6         -1.6220   -4.6466   -1.8788 C.ar      1 <0>        -0.1410
      9 C7         -1.4736   -5.4397   -2.9971 C.ar      1 <0>        -0.1023
     10 C8         -2.4002   -6.4363   -3.2444 C.ar      1 <0>        -0.1264
     11 C9         -3.4660   -6.6200   -2.3938 C.ar      1 <0>        -0.1102
     12 C10        -3.6460   -5.8156   -1.2664 C.ar      1 <0>        -0.0994
     13 C11        -4.9119   -6.0915   -0.4880 C.3       1 <0>        -0.0689
     14 C12        -5.1138   -5.1475    0.6844 C.3       1 <0>        -0.0774
     15 C13        -4.0023   -5.2798    1.6948 C.ar      1 <0>        -0.0996
     16 C14        -2.8165   -4.6605    1.3756 C.ar      1 <0>         0.1518
     17 C15        -1.7436   -4.6795    2.2507 C.ar      1 <0>        -0.1184
     18 C16        -1.8773   -5.3599    3.4502 C.ar      1 <0>        -0.1095
     19 C17        -3.0600   -6.0057    3.7614 C.ar      1 <0>        -0.1164
     20 C18        -4.1454   -5.9689    2.8764 C.ar      1 <0>        -0.1028
     21 H1         -6.7143    1.7075   -0.4111 H         1 <0>         0.1266
     22 H2         -5.1573    1.8313    0.4426 H         1 <0>         0.1238
     23 H3         -5.1891    1.6261   -1.3252 H         1 <0>         0.1238
     24 H4         -6.1131   -0.3440    0.6456 H         1 <0>         0.4303
     25 H5         -3.7733   -0.3002   -1.1272 H         1 <0>         0.1329
     26 H6         -3.7415   -0.0951    0.6406 H         1 <0>         0.1330
     27 H7         -4.7329   -2.3506    0.9203 H         1 <0>         0.0915
     28 H8         -4.7647   -2.5558   -0.8475 H         1 <0>         0.0913
     29 H9         -2.2869   -2.2703   -0.9034 H         1 <0>         0.0828
     30 H10        -2.2782   -2.1337    0.8713 H         1 <0>         0.0803
     31 H11        -0.9026   -3.8672   -1.6754 H         1 <0>         0.1215
     32 H12        -0.6444   -5.2844   -3.6715 H         1 <0>         0.1277
     33 H13        -2.2869   -7.0730   -4.1093 H         1 <0>         0.1251
     34 H14        -4.1790   -7.4039   -2.6024 H         1 <0>         0.1223
     35 H15        -5.7638   -5.9997   -1.1617 H         1 <0>         0.0796
     36 H16        -4.8754   -7.1138   -0.1117 H         1 <0>         0.0764
     37 H17        -5.1407   -4.1220    0.3160 H         1 <0>         0.0728
     38 H18        -6.0638   -5.3767    1.1673 H         1 <0>         0.0709
     39 H19        -0.8216   -4.1746    2.0032 H         1 <0>         0.1257
     40 H20        -1.0526   -5.3858    4.1470 H         1 <0>         0.1276
     41 H21        -3.1485   -6.5434    4.6939 H         1 <0>         0.1270
     42 H22        -5.0720   -6.4709    3.1123 H         1 <0>         0.1291
     43 H23        -6.1426   -0.5339   -0.9908 H         1 <0>         0.4303
@<TRIPOS>BOND
     1    1    2 1
     2    1   21 1
     3    1   22 1
     4    1   23 1
     5    2    3 1
     6    2   24 1
     7    2   43 1
     8    3    4 1
     9    3   25 1
    10    3   26 1
    11    4    5 1
    12    4   27 1
    13    4   28 1
    14    5    6 1
    15    5   29 1
    16    5   30 1
    17    6   16 1
    18    6    7 1
    19    7   12 ar
    20    7    8 ar
    21    8    9 ar
    22    8   31 1
    23    9   10 ar
    24    9   32 1
    25   10   11 ar
    26   10   33 1
    27   11   12 ar
    28   11   34 1
    29   12   13 1
    30   13   14 1
    31   13   35 1
    32   13   36 1
    33   14   15 1
    34   14   37 1
    35   14   38 1
    36   15   20 ar
    37   15   16 ar
    38   16   17 ar
    39   17   18 ar
    40   17   39 1
    41   18   19 ar
    42   18   40 1
    43   19   20 ar
    44   19   41 1
    45   20   42 1
