@<TRIPOS>MOLECULE
ZINC00643233
   56    59     0     0     0
SMALL
USER_CHARGES

@<TRIPOS>ATOM
      1 C1         -0.0167    1.3786    0.0096 C.ar      1 <0>        -0.1573
      2 C2          1.1695    2.0894    0.0021 C.ar      1 <0>        -0.0635
      3 C3          2.3774    1.4200   -0.0130 C.ar      1 <0>        -0.1784
      4 C4          2.3998    0.0311   -0.0206 C.ar      1 <0>         0.2317
      5 C5          1.2064   -0.6798   -0.0130 C.ar      1 <0>        -0.1988
      6 C6          0.0021   -0.0041    0.0020 C.ar      1 <0>        -0.0706
      7 N1          3.6196   -0.6492   -0.0363 N.pl3     1 <0>        -0.6334
      8 C7          4.9637   -0.0571   -0.0400 C.3       1 <0>         0.3326
      9 N2          5.9388   -1.1470   -0.0572 N.am      1 <0>        -0.7166
     10 C8          5.3099   -2.3344   -0.0641 C.2       1 <0>         0.5288
     11 O1          5.8532   -3.4187   -0.0778 O.2       1 <0>        -0.5133
     12 C9          3.8222   -2.1026   -0.0461 C.3       1 <0>         0.1361
     13 C10         3.1820   -2.7114   -1.2943 C.3       1 <0>        -0.1499
     14 C11         3.3480   -4.2326   -1.2552 C.3       1 <0>        -0.0132
     15 N3          2.7020   -4.7671   -0.0503 N.4       1 <0>        -0.3794
     16 C12         3.3698   -4.2457    1.1482 C.3       1 <0>        -0.0190
     17 C13         3.2050   -2.7250    1.2070 C.3       1 <0>        -0.1492
     18 C14         2.7905   -6.2335   -0.0591 C.3       1 <0>        -0.0094
     19 C15         2.0109   -6.7986    1.1299 C.3       1 <0>        -0.1425
     20 C16         2.1030   -8.3258    1.1207 C.3       1 <0>        -0.1654
     21 C17         1.3351   -8.8824    2.2919 C.2       1 <0>         0.4040
     22 O2          0.7698   -8.1316    3.0583 O.2       1 <0>        -0.4484
     23 C18         1.2712  -10.3355    2.5052 C.ar      1 <0>        -0.1962
     24 C19         1.9272  -11.2044    1.6259 C.ar      1 <0>        -0.0430
     25 C20         1.8634  -12.5650    1.8315 C.ar      1 <0>        -0.1669
     26 C21         1.1505  -13.0743    2.9070 C.ar      1 <0>         0.1434
     27 C22         0.4980  -12.2186    3.7823 C.ar      1 <0>        -0.1651
     28 C23         0.5590  -10.8557    3.5917 C.ar      1 <0>        -0.0262
     29 F1          1.0910  -14.4098    3.1025 F         1 <0>        -0.1261
     30 H1         -0.9598    1.9046    0.0260 H         1 <0>         0.1276
     31 H2          1.1513    3.1692    0.0077 H         1 <0>         0.1312
     32 H3          3.3034    1.9757   -0.0192 H         1 <0>         0.1257
     33 H4          1.2204   -1.7597   -0.0193 H         1 <0>         0.1144
     34 H5         -0.9261   -0.5561    0.0079 H         1 <0>         0.1276
     35 H6          5.0901    0.5643   -0.9265 H         1 <0>         0.0880
     36 H7          5.1025    0.5473    0.8564 H         1 <0>         0.0877
     37 H8          6.9016   -1.0295   -0.0627 H         1 <0>         0.4365
     38 H9          2.1214   -2.4613   -1.3183 H         1 <0>         0.1096
     39 H10         3.6706   -2.3147   -2.1843 H         1 <0>         0.1192
     40 H11         2.8858   -4.6710   -2.1397 H         1 <0>         0.1383
     41 H12         4.4090   -4.4817   -1.2391 H         1 <0>         0.1470
     42 H13         2.9238   -4.6937    2.0361 H         1 <0>         0.1399
     43 H14         4.4303   -4.4946    1.1101 H         1 <0>         0.1471
     44 H15         3.7099   -2.3380    2.0921 H         1 <0>         0.1189
     45 H16         2.1450   -2.4752    1.2532 H         1 <0>         0.1098
     46 H17         2.3668   -6.6175   -0.9870 H         1 <0>         0.1347
     47 H18         3.8354   -6.5348    0.0153 H         1 <0>         0.1347
     48 H19         2.4346   -6.4145    2.0578 H         1 <0>         0.0947
     49 H20         0.9660   -6.4972    1.0555 H         1 <0>         0.0950
     50 H21         1.6793   -8.7098    0.1928 H         1 <0>         0.1132
     51 H22         3.1479   -8.6271    1.1951 H         1 <0>         0.1132
     52 H23         2.4820  -10.8091    0.7879 H         1 <0>         0.1415
     53 H24         2.3692  -13.2366    1.1537 H         1 <0>         0.1468
     54 H25        -0.0554  -12.6215    4.6177 H         1 <0>         0.1475
     55 H26         0.0543  -10.1903    4.2765 H         1 <0>         0.1457
     56 H27         1.7315   -4.4913   -0.0400 H         1 <0>         0.4195
@<TRIPOS>BOND
     1    1    6 ar
     2    1    2 ar
     3    1   30 1
     4    2    3 ar
     5    2   31 1
     6    3    4 ar
     7    3   32 1
     8    4    5 ar
     9    4    7 1
    10    5    6 ar
    11    5   33 1
    12    6   34 1
    13    7   12 1
    14    7    8 1
    15    8    9 1
    16    8   35 1
    17    8   36 1
    18    9   10 am
    19    9   37 1
    20   10   11 2
    21   10   12 1
    22   12   17 1
    23   12   13 1
    24   13   14 1
    25   13   38 1
    26   13   39 1
    27   14   15 1
    28   14   40 1
    29   14   41 1
    30   15   16 1
    31   15   18 1
    32   15   56 1
    33   16   17 1
    34   16   42 1
    35   16   43 1
    36   17   44 1
    37   17   45 1
    38   18   19 1
    39   18   46 1
    40   18   47 1
    41   19   20 1
    42   19   48 1
    43   19   49 1
    44   20   21 1
    45   20   50 1
    46   20   51 1
    47   21   22 2
    48   21   23 1
    49   23   28 ar
    50   23   24 ar
    51   24   25 ar
    52   24   52 1
    53   25   26 ar
    54   25   53 1
    55   26   27 ar
    56   26   29 1
    57   27   28 ar
    58   27   54 1
    59   28   55 1
