@<TRIPOS>MOLECULE
ZINC07653962
   45    47     0     0     0
SMALL
USER_CHARGES

@<TRIPOS>ATOM
      1 C1         -0.0167    1.3777    0.0096 C.ar      1 <0>        -0.0981
      2 C2          1.1697    2.0876    0.0021 C.ar      1 <0>        -0.1086
      3 C3          2.3784    1.4177   -0.0116 C.ar      1 <0>        -0.1049
      4 C4          2.4042    0.0310   -0.0192 C.ar      1 <0>         0.0371
      5 C5          1.2117   -0.6826   -0.0141 C.ar      1 <0>         0.0507
      6 C6          0.0021   -0.0041    0.0020 C.ar      1 <0>        -0.1079
      7 O1          1.2143   -2.0435   -0.0292 O.3       1 <0>        -0.2930
      8 C7          2.4407   -2.6888    0.3305 C.3       1 <0>         0.0340
      9 C8          3.5869   -1.9932   -0.4162 C.3       1 <0>         0.0189
     10 H1          3.4262   -2.0716   -1.4914 H         1 <0>         0.1101
     11 O2          3.6023   -0.6148   -0.0295 O.3       1 <0>        -0.3187
     12 C9          4.9182   -2.6493   -0.0444 C.3       1 <0>         0.0069
     13 N1          6.0113   -1.9797   -0.7618 N.4       1 <0>        -0.5019
     14 C10         7.2895   -2.6096   -0.4048 C.3       1 <0>        -0.0419
     15 C11         8.4280   -1.9122   -1.1520 C.3       1 <0>         0.0853
     16 H2          8.4524   -0.8582   -0.8750 H         1 <0>         0.1375
     17 C12         9.7592   -2.5683   -0.7802 C.3       1 <0>         0.0291
     18 O3         10.8324   -1.8447   -1.3858 O.3       1 <0>        -0.2949
     19 C13        12.0923   -2.3000   -1.1537 C.ar      1 <0>         0.0843
     20 C14        12.2907   -3.4227   -0.3645 C.ar      1 <0>        -0.1824
     21 C15        13.5720   -3.8837   -0.1298 C.ar      1 <0>        -0.0890
     22 C16        14.6569   -3.2269   -0.6804 C.ar      1 <0>        -0.1166
     23 C17        14.4636   -2.1068   -1.4675 C.ar      1 <0>        -0.1127
     24 C18        13.1828   -1.6446   -1.7113 C.ar      1 <0>         0.0778
     25 F1         12.9931   -0.5538   -2.4854 F         1 <0>        -0.1285
     26 O4          8.2159   -2.0297   -2.5603 O.3       1 <0>        -0.5415
     27 H3         -0.9596    1.9040    0.0259 H         1 <0>         0.1418
     28 H4          1.1518    3.1674    0.0066 H         1 <0>         0.1410
     29 H5          3.3037    1.9746   -0.0169 H         1 <0>         0.1377
     30 H6         -0.9261   -0.5562    0.0086 H         1 <0>         0.1424
     31 H7          2.5984   -2.6053    1.4058 H         1 <0>         0.0892
     32 H8          2.4005   -3.7400    0.0450 H         1 <0>         0.1319
     33 H9          5.0799   -2.5596    1.0298 H         1 <0>         0.1471
     34 H10         4.8937   -3.7032   -0.3214 H         1 <0>         0.1566
     35 H11         5.8615   -2.0627   -1.7562 H         1 <0>         0.4349
     36 H12         7.4512   -2.5199    0.6694 H         1 <0>         0.1496
     37 H13         7.2650   -3.6635   -0.6818 H         1 <0>         0.1426
     38 H14         9.8795   -2.5576    0.3031 H         1 <0>         0.0843
     39 H15         9.7687   -3.5983   -1.1367 H         1 <0>         0.0792
     40 H16        11.4442   -3.9363    0.0668 H         1 <0>         0.1342
     41 H17        13.7262   -4.7582    0.4850 H         1 <0>         0.1371
     42 H18        15.6573   -3.5892   -0.4949 H         1 <0>         0.1412
     43 H19        15.3128   -1.5951   -1.8958 H         1 <0>         0.1487
     44 H20         8.1829   -2.9424   -2.8782 H         1 <0>         0.3899
     45 H21         6.0339   -1.0041   -0.5054 H         1 <0>         0.4393
@<TRIPOS>BOND
     1    1    6 ar
     2    1    2 ar
     3    1   27 1
     4    2    3 ar
     5    2   28 1
     6    3    4 ar
     7    3   29 1
     8    4   11 1
     9    4    5 ar
    10    5    6 ar
    11    5    7 1
    12    6   30 1
    13    7    8 1
    14    8    9 1
    15    8   31 1
    16    8   32 1
    17    9   10 1
    18    9   11 1
    19    9   12 1
    20   12   13 1
    21   12   33 1
    22   12   34 1
    23   13   14 1
    24   13   35 1
    25   13   45 1
    26   14   15 1
    27   14   36 1
    28   14   37 1
    29   15   16 1
    30   15   17 1
    31   15   26 1
    32   17   18 1
    33   17   38 1
    34   17   39 1
    35   18   19 1
    36   19   24 ar
    37   19   20 ar
    38   20   21 ar
    39   20   40 1
    40   21   22 ar
    41   21   41 1
    42   22   23 ar
    43   22   42 1
    44   23   24 ar
    45   23   43 1
    46   24   25 1
    47   26   44 1
@<TRIPOS>MOLECULE
ZINC07653962
   44    46     0     0     0
SMALL
USER_CHARGES

@<TRIPOS>ATOM
      1 C1         -0.0167    1.3777    0.0096 C.ar      1 <0>        -0.1176
      2 C2          1.1697    2.0876    0.0021 C.ar      1 <0>        -0.1143
      3 C3          2.3784    1.4177   -0.0116 C.ar      1 <0>        -0.1131
      4 C4          2.4042    0.0310   -0.0192 C.ar      1 <0>         0.0523
      5 C5          1.2117   -0.6826   -0.0141 C.ar      1 <0>         0.0426
      6 C6          0.0021   -0.0041    0.0020 C.ar      1 <0>        -0.1135
      7 O1          1.2143   -2.0435   -0.0292 O.3       1 <0>        -0.3054
      8 C7          2.4407   -2.6888    0.3305 C.3       1 <0>         0.0271
      9 C8          3.5869   -1.9932   -0.4162 C.3       1 <0>         0.0549
     10 H1          3.4262   -2.0716   -1.4914 H         1 <0>         0.0842
     11 O2          3.6023   -0.6148   -0.0295 O.3       1 <0>        -0.2850
     12 C9          4.9182   -2.6493   -0.0444 C.3       1 <0>         0.0688
     13 N1          6.0113   -1.9797   -0.7618 N.3       1 <0>        -0.6744
     14 C10         7.3079   -2.5845   -0.4286 C.3       1 <0>         0.0325
     15 C11         8.4191   -1.8622   -1.1931 C.3       1 <0>         0.1119
     16 H2          8.4270   -0.8087   -0.9134 H         1 <0>         0.1215
     17 C12         9.7695   -2.4921   -0.8461 C.3       1 <0>         0.0275
     18 O3         10.8173   -1.7453   -1.4678 O.3       1 <0>        -0.2947
     19 C13        12.0899   -2.1756   -1.2586 C.ar      1 <0>         0.0961
     20 C14        12.3245   -3.2961   -0.4763 C.ar      1 <0>        -0.1852
     21 C15        13.6187   -3.7317   -0.2649 C.ar      1 <0>        -0.0895
     22 C16        14.6805   -3.0515   -0.8320 C.ar      1 <0>        -0.1282
     23 C17        14.4511   -1.9335   -1.6124 C.ar      1 <0>        -0.1154
     24 C18        13.1572   -1.4968   -1.8329 C.ar      1 <0>         0.0702
     25 F1         12.9322   -0.4080   -2.6003 F         1 <0>        -0.1301
     26 O4          8.1853   -1.9803   -2.5979 O.3       1 <0>        -0.5456
     27 H3         -0.9596    1.9040    0.0259 H         1 <0>         0.1324
     28 H4          1.1518    3.1674    0.0066 H         1 <0>         0.1327
     29 H5          3.3037    1.9746   -0.0169 H         1 <0>         0.1355
     30 H6         -0.9261   -0.5562    0.0086 H         1 <0>         0.1337
     31 H7          2.5984   -2.6053    1.4058 H         1 <0>         0.0794
     32 H8          2.4005   -3.7400    0.0450 H         1 <0>         0.1214
     33 H9          5.0799   -2.5596    1.0298 H         1 <0>         0.0882
     34 H10         4.8937   -3.7032   -0.3214 H         1 <0>         0.0571
     35 H11         7.4862   -2.4944    0.6429 H         1 <0>         0.0883
     36 H12         7.3000   -3.6380   -0.7083 H         1 <0>         0.0379
     37 H13         9.9082   -2.4818    0.2350 H         1 <0>         0.0758
     38 H14         9.7937   -3.5208   -1.2057 H         1 <0>         0.0676
     39 H15        11.4961   -3.8279   -0.0321 H         1 <0>         0.1357
     40 H16        13.8011   -4.6045    0.3445 H         1 <0>         0.1332
     41 H17        15.6910   -3.3940   -0.6648 H         1 <0>         0.1360
     42 H18        15.2822   -1.4036   -2.0537 H         1 <0>         0.1438
     43 H19         8.1652   -2.8926   -2.9179 H         1 <0>         0.3714
     44 H20         5.8515   -1.9928   -1.7580 H         1 <0>         0.3524
@<TRIPOS>BOND
     1    1    6 ar
     2    1    2 ar
     3    1   27 1
     4    2    3 ar
     5    2   28 1
     6    3    4 ar
     7    3   29 1
     8    4   11 1
     9    4    5 ar
    10    5    6 ar
    11    5    7 1
    12    6   30 1
    13    7    8 1
    14    8    9 1
    15    8   31 1
    16    8   32 1
    17    9   10 1
    18    9   11 1
    19    9   12 1
    20   12   13 1
    21   12   33 1
    22   12   34 1
    23   13   14 1
    24   13   44 1
    25   14   15 1
    26   14   35 1
    27   14   36 1
    28   15   16 1
    29   15   17 1
    30   15   26 1
    31   17   18 1
    32   17   37 1
    33   17   38 1
    34   18   19 1
    35   19   24 ar
    36   19   20 ar
    37   20   21 ar
    38   20   39 1
    39   21   22 ar
    40   21   40 1
    41   22   23 ar
    42   22   41 1
    43   23   24 ar
    44   23   42 1
    45   24   25 1
    46   26   43 1
@<TRIPOS>MOLECULE
ZINC07653965
   45    47     0     0     0
SMALL
USER_CHARGES

@<TRIPOS>ATOM
      1 C1         -0.0167    1.3777    0.0096 C.ar      1 <0>        -0.0984
      2 C2          1.1697    2.0876    0.0021 C.ar      1 <0>        -0.1085
      3 C3          2.3783    1.4178   -0.0143 C.ar      1 <0>        -0.1046
      4 C4          2.4042    0.0310   -0.0230 C.ar      1 <0>         0.0368
      5 C5          1.2117   -0.6826   -0.0129 C.ar      1 <0>         0.0501
      6 C6          0.0021   -0.0041    0.0020 C.ar      1 <0>        -0.1080
      7 O1          1.2145   -2.0436   -0.0133 O.3       1 <0>        -0.2932
      8 C7          2.4336   -2.6847   -0.4041 C.3       1 <0>         0.0340
      9 C8          3.5941   -1.9974    0.3280 C.3       1 <0>         0.0189
     10 H1          3.4543   -2.0880    1.4052 H         1 <0>         0.1091
     11 O2          3.6022   -0.6147   -0.0433 O.3       1 <0>        -0.3162
     12 C9          4.9178   -2.6491   -0.0771 C.3       1 <0>         0.0063
     13 N1          6.0113   -2.0694    0.7143 N.4       1 <0>        -0.5026
     14 C10         7.2823   -2.6951    0.3254 C.3       1 <0>        -0.0421
     15 C11         8.4212   -2.0914    1.1496 C.3       1 <0>         0.0854
     16 H2          8.2373   -2.2702    2.2090 H         1 <0>         0.1371
     17 C12         9.7449   -2.7431    0.7446 C.3       1 <0>         0.0289
     18 O3         10.7905   -2.2647    1.5930 O.3       1 <0>        -0.2949
     19 C13        12.0404   -2.7487    1.3650 C.ar      1 <0>         0.0843
     20 C14        12.2565   -3.6603    0.3428 C.ar      1 <0>        -0.1823
     21 C15        13.5276   -4.1510    0.1128 C.ar      1 <0>        -0.0890
     22 C16        14.5846   -3.7347    0.9009 C.ar      1 <0>        -0.1166
     23 C17        14.3735   -2.8263    1.9216 C.ar      1 <0>        -0.1127
     24 C18        13.1043   -2.3267    2.1521 C.ar      1 <0>         0.0778
     25 F1         12.8987   -1.4344    3.1455 F         1 <0>        -0.1285
     26 O4          8.4895   -0.6845    0.9088 O.3       1 <0>        -0.5412
     27 H3         -0.9596    1.9040    0.0259 H         1 <0>         0.1417
     28 H4          1.1518    3.1674    0.0087 H         1 <0>         0.1410
     29 H5          3.3037    1.9746   -0.0208 H         1 <0>         0.1379
     30 H6         -0.9261   -0.5562    0.0079 H         1 <0>         0.1423
     31 H7          2.3988   -3.7390   -0.1298 H         1 <0>         0.1318
     32 H8          2.5703   -2.5889   -1.4813 H         1 <0>         0.0892
     33 H9          4.8657   -3.7223    0.1066 H         1 <0>         0.1573
     34 H10         5.1017   -2.4704   -1.1365 H         1 <0>         0.1475
     35 H11         6.0596   -1.0761    0.5442 H         1 <0>         0.4414
     36 H12         7.2301   -3.7683    0.5091 H         1 <0>         0.1499
     37 H13         7.4661   -2.5164   -0.7340 H         1 <0>         0.1424
     38 H14         9.6625   -3.8254    0.8444 H         1 <0>         0.0842
     39 H15         9.9726   -2.4899   -0.2909 H         1 <0>         0.0792
     40 H16        11.4317   -3.9868   -0.2732 H         1 <0>         0.1342
     41 H17        13.6956   -4.8610   -0.6835 H         1 <0>         0.1371
     42 H18        15.5770   -4.1202    0.7192 H         1 <0>         0.1412
     43 H19        15.2006   -2.5033    2.5363 H         1 <0>         0.1487
     44 H20         8.6514   -0.4511   -0.0156 H         1 <0>         0.3907
     45 H21         5.8412   -2.2349    1.6950 H         1 <0>         0.4324
@<TRIPOS>BOND
     1    1    6 ar
     2    1    2 ar
     3    1   27 1
     4    2    3 ar
     5    2   28 1
     6    3    4 ar
     7    3   29 1
     8    4   11 1
     9    4    5 ar
    10    5    6 ar
    11    5    7 1
    12    6   30 1
    13    7    8 1
    14    8    9 1
    15    8   31 1
    16    8   32 1
    17    9   10 1
    18    9   11 1
    19    9   12 1
    20   12   13 1
    21   12   33 1
    22   12   34 1
    23   13   14 1
    24   13   35 1
    25   13   45 1
    26   14   15 1
    27   14   36 1
    28   14   37 1
    29   15   16 1
    30   15   17 1
    31   15   26 1
    32   17   18 1
    33   17   38 1
    34   17   39 1
    35   18   19 1
    36   19   24 ar
    37   19   20 ar
    38   20   21 ar
    39   20   40 1
    40   21   22 ar
    41   21   41 1
    42   22   23 ar
    43   22   42 1
    44   23   24 ar
    45   23   43 1
    46   24   25 1
    47   26   44 1
@<TRIPOS>MOLECULE
ZINC07653965
   44    46     0     0     0
SMALL
USER_CHARGES

@<TRIPOS>ATOM
      1 C1         -0.0167    1.3777    0.0096 C.ar      1 <0>        -0.1157
      2 C2          1.1697    2.0876    0.0021 C.ar      1 <0>        -0.1147
      3 C3          2.3783    1.4178   -0.0143 C.ar      1 <0>        -0.1136
      4 C4          2.4042    0.0310   -0.0230 C.ar      1 <0>         0.0539
      5 C5          1.2117   -0.6826   -0.0129 C.ar      1 <0>         0.0466
      6 C6          0.0021   -0.0041    0.0020 C.ar      1 <0>        -0.1136
      7 O1          1.2145   -2.0436   -0.0133 O.3       1 <0>        -0.3046
      8 C7          2.4336   -2.6847   -0.4041 C.3       1 <0>         0.0280
      9 C8          3.5941   -1.9974    0.3280 C.3       1 <0>         0.0523
     10 H1          3.4543   -2.0880    1.4052 H         1 <0>         0.0968
     11 O2          3.6022   -0.6147   -0.0433 O.3       1 <0>        -0.3061
     12 C9          4.9178   -2.6491   -0.0771 C.3       1 <0>         0.0706
     13 N1          6.0113   -2.0694    0.7143 N.3       1 <0>        -0.6810
     14 C10         7.3008   -2.6726    0.3516 C.3       1 <0>         0.0311
     15 C11         8.4125   -2.0450    1.1948 C.3       1 <0>         0.1118
     16 H2          8.2122   -2.2235    2.2512 H         1 <0>         0.1207
     17 C12         9.7555   -2.6732    0.8170 C.3       1 <0>         0.0274
     18 O3         10.7760   -2.1725    1.6831 O.3       1 <0>        -0.2947
     19 C13        12.0387   -2.6339    1.4804 C.ar      1 <0>         0.0961
     20 C14        12.2909   -3.5447    0.4657 C.ar      1 <0>        -0.1852
     21 C15        13.5750   -4.0123    0.2614 C.ar      1 <0>        -0.0895
     22 C16        14.6091   -3.5738    1.0677 C.ar      1 <0>        -0.1282
     23 C17        14.3620   -2.6660    2.0808 C.ar      1 <0>        -0.1154
     24 C18        13.0796   -2.1894    2.2857 C.ar      1 <0>         0.0701
     25 F1         12.8388   -1.2977    3.2717 F         1 <0>        -0.1302
     26 O4          8.4593   -0.6378    0.9500 O.3       1 <0>        -0.5452
     27 H3         -0.9596    1.9040    0.0259 H         1 <0>         0.1331
     28 H4          1.1518    3.1674    0.0087 H         1 <0>         0.1331
     29 H5          3.3037    1.9746   -0.0208 H         1 <0>         0.1348
     30 H6         -0.9261   -0.5562    0.0079 H         1 <0>         0.1347
     31 H7          2.3988   -3.7390   -0.1298 H         1 <0>         0.1239
     32 H8          2.5703   -2.5889   -1.4813 H         1 <0>         0.0772
     33 H9          4.8657   -3.7223    0.1066 H         1 <0>         0.0976
     34 H10         5.1017   -2.4704   -1.1365 H         1 <0>         0.0458
     35 H11         7.2651   -3.7459    0.5383 H         1 <0>         0.0879
     36 H12         7.5011   -2.4940   -0.7048 H         1 <0>         0.0391
     37 H13         9.6915   -3.7565    0.9193 H         1 <0>         0.0757
     38 H14         9.9979   -2.4193   -0.2149 H         1 <0>         0.0678
     39 H15        11.4840   -3.8886   -0.1644 H         1 <0>         0.1358
     40 H16        13.7712   -4.7217   -0.5289 H         1 <0>         0.1332
     41 H17        15.6117   -3.9413    0.9060 H         1 <0>         0.1361
     42 H18        15.1712   -2.3255    2.7097 H         1 <0>         0.1438
     43 H19         8.6341   -0.4046    0.0280 H         1 <0>         0.3723
     44 H20         6.0398   -1.0661    0.6113 H         1 <0>         0.3603
@<TRIPOS>BOND
     1    1    6 ar
     2    1    2 ar
     3    1   27 1
     4    2    3 ar
     5    2   28 1
     6    3    4 ar
     7    3   29 1
     8    4   11 1
     9    4    5 ar
    10    5    6 ar
    11    5    7 1
    12    6   30 1
    13    7    8 1
    14    8    9 1
    15    8   31 1
    16    8   32 1
    17    9   10 1
    18    9   11 1
    19    9   12 1
    20   12   13 1
    21   12   33 1
    22   12   34 1
    23   13   14 1
    24   13   44 1
    25   14   15 1
    26   14   35 1
    27   14   36 1
    28   15   16 1
    29   15   17 1
    30   15   26 1
    31   17   18 1
    32   17   37 1
    33   17   38 1
    34   18   19 1
    35   19   24 ar
    36   19   20 ar
    37   20   21 ar
    38   20   39 1
    39   21   22 ar
    40   21   40 1
    41   22   23 ar
    42   22   41 1
    43   23   24 ar
    44   23   42 1
    45   24   25 1
    46   26   43 1
@<TRIPOS>MOLECULE
ZINC07653967
   45    47     0     0     0
SMALL
USER_CHARGES

@<TRIPOS>ATOM
      1 C1         -0.0167    1.3777    0.0096 C.ar      1 <0>        -0.0982
      2 C2          1.1697    2.0876    0.0021 C.ar      1 <0>        -0.1086
      3 C3          2.3784    1.4177   -0.0116 C.ar      1 <0>        -0.1046
      4 C4          2.4042    0.0310   -0.0192 C.ar      1 <0>         0.0371
      5 C5          1.2117   -0.6826   -0.0141 C.ar      1 <0>         0.0505
      6 C6          0.0021   -0.0041    0.0020 C.ar      1 <0>        -0.1080
      7 O1          1.2143   -2.0435   -0.0292 O.3       1 <0>        -0.2930
      8 C7          2.4407   -2.6888    0.3305 C.3       1 <0>         0.0340
      9 C8          3.5869   -1.9932   -0.4162 C.3       1 <0>         0.0186
     10 H1          3.4262   -2.0716   -1.4914 H         1 <0>         0.1100
     11 O2          3.6023   -0.6148   -0.0295 O.3       1 <0>        -0.3182
     12 C9          4.9182   -2.6493   -0.0444 C.3       1 <0>         0.0069
     13 N1          6.0113   -1.9797   -0.7618 N.4       1 <0>        -0.5026
     14 C10         7.2895   -2.6096   -0.4048 C.3       1 <0>        -0.0420
     15 C11         8.4280   -1.9122   -1.1520 C.3       1 <0>         0.0856
     16 H2          8.2214   -1.9243   -2.2222 H         1 <0>         0.1362
     17 C12         9.7425   -2.6456   -0.8780 C.3       1 <0>         0.0290
     18 O3         10.7843   -2.0665   -1.6661 O.3       1 <0>        -0.2950
     19 C13        12.0260   -2.6058   -1.5402 C.ar      1 <0>         0.0843
     20 C14        12.2356   -3.6735   -0.6807 C.ar      1 <0>        -0.1824
     21 C15        13.4983   -4.2202   -0.5542 C.ar      1 <0>        -0.0890
     22 C16        14.5536   -3.7038   -1.2832 C.ar      1 <0>        -0.1166
     23 C17        14.3491   -2.6390   -2.1410 C.ar      1 <0>        -0.1127
     24 C18        13.0858   -2.0920   -2.2766 C.ar      1 <0>         0.0778
     25 F1         12.8844   -1.0554   -3.1192 F         1 <0>        -0.1285
     26 O4          8.5345   -0.5598   -0.7027 O.3       1 <0>        -0.5405
     27 H3         -0.9596    1.9040    0.0259 H         1 <0>         0.1417
     28 H4          1.1518    3.1674    0.0066 H         1 <0>         0.1411
     29 H5          3.3037    1.9746   -0.0169 H         1 <0>         0.1380
     30 H6         -0.9261   -0.5562    0.0086 H         1 <0>         0.1423
     31 H7          2.5984   -2.6053    1.4058 H         1 <0>         0.0890
     32 H8          2.4005   -3.7400    0.0450 H         1 <0>         0.1320
     33 H9          5.0799   -2.5596    1.0298 H         1 <0>         0.1465
     34 H10         4.8937   -3.7032   -0.3214 H         1 <0>         0.1572
     35 H11         5.8615   -2.0627   -1.7562 H         1 <0>         0.4322
     36 H12         7.4512   -2.5199    0.6694 H         1 <0>         0.1428
     37 H13         7.2650   -3.6635   -0.6818 H         1 <0>         0.1492
     38 H14         9.9944   -2.5573    0.1788 H         1 <0>         0.0795
     39 H15         9.6323   -3.6983   -1.1385 H         1 <0>         0.0838
     40 H16        11.4124   -4.0775   -0.1102 H         1 <0>         0.1342
     41 H17        13.6613   -5.0519    0.1153 H         1 <0>         0.1371
     42 H18        15.5395   -4.1329   -1.1821 H         1 <0>         0.1412
     43 H19        15.1752   -2.2370   -2.7087 H         1 <0>         0.1487
     44 H20         8.7182   -0.4727    0.2427 H         1 <0>         0.3910
     45 H21         6.0339   -1.0041   -0.5054 H         1 <0>         0.4423
@<TRIPOS>BOND
     1    1    6 ar
     2    1    2 ar
     3    1   27 1
     4    2    3 ar
     5    2   28 1
     6    3    4 ar
     7    3   29 1
     8    4   11 1
     9    4    5 ar
    10    5    6 ar
    11    5    7 1
    12    6   30 1
    13    7    8 1
    14    8    9 1
    15    8   31 1
    16    8   32 1
    17    9   10 1
    18    9   11 1
    19    9   12 1
    20   12   13 1
    21   12   33 1
    22   12   34 1
    23   13   14 1
    24   13   35 1
    25   13   45 1
    26   14   15 1
    27   14   36 1
    28   14   37 1
    29   15   16 1
    30   15   17 1
    31   15   26 1
    32   17   18 1
    33   17   38 1
    34   17   39 1
    35   18   19 1
    36   19   24 ar
    37   19   20 ar
    38   20   21 ar
    39   20   40 1
    40   21   22 ar
    41   21   41 1
    42   22   23 ar
    43   22   42 1
    44   23   24 ar
    45   23   43 1
    46   24   25 1
    47   26   44 1
@<TRIPOS>MOLECULE
ZINC07653967
   44    46     0     0     0
SMALL
USER_CHARGES

@<TRIPOS>ATOM
      1 C1         -0.0167    1.3777    0.0096 C.ar      1 <0>        -0.1178
      2 C2          1.1697    2.0876    0.0021 C.ar      1 <0>        -0.1143
      3 C3          2.3784    1.4177   -0.0116 C.ar      1 <0>        -0.1127
      4 C4          2.4042    0.0310   -0.0192 C.ar      1 <0>         0.0524
      5 C5          1.2117   -0.6826   -0.0141 C.ar      1 <0>         0.0422
      6 C6          0.0021   -0.0041    0.0020 C.ar      1 <0>        -0.1137
      7 O1          1.2143   -2.0435   -0.0292 O.3       1 <0>        -0.3056
      8 C7          2.4407   -2.6888    0.3305 C.3       1 <0>         0.0270
      9 C8          3.5869   -1.9932   -0.4162 C.3       1 <0>         0.0550
     10 H1          3.4262   -2.0716   -1.4914 H         1 <0>         0.0837
     11 O2          3.6023   -0.6148   -0.0295 O.3       1 <0>        -0.2838
     12 C9          4.9182   -2.6493   -0.0444 C.3       1 <0>         0.0688
     13 N1          6.0113   -1.9797   -0.7618 N.3       1 <0>        -0.6699
     14 C10         7.3079   -2.5845   -0.4286 C.3       1 <0>         0.0313
     15 C11         8.4191   -1.8622   -1.1931 C.3       1 <0>         0.1149
     16 H2          8.1944   -1.8757   -2.2596 H         1 <0>         0.1090
     17 C12         9.7526   -2.5695   -0.9438 C.3       1 <0>         0.0264
     18 O3         10.7689   -1.9673   -1.7479 O.3       1 <0>        -0.2948
     19 C13        12.0231   -2.4817   -1.6449 C.ar      1 <0>         0.0961
     20 C14        12.2690   -3.5472   -0.7923 C.ar      1 <0>        -0.1852
     21 C15        13.5446   -4.0685   -0.6890 C.ar      1 <0>        -0.0894
     22 C16        14.5765   -3.5289   -1.4344 C.ar      1 <0>        -0.1283
     23 C17        14.3359   -2.4662   -2.2854 C.ar      1 <0>        -0.1154
     24 C18        13.0596   -1.9446   -2.3978 C.ar      1 <0>         0.0700
     25 F1         12.8228   -0.9100   -3.2338 F         1 <0>        -0.1302
     26 O4          8.5059   -0.5091   -0.7417 O.3       1 <0>        -0.5349
     27 H3         -0.9596    1.9040    0.0259 H         1 <0>         0.1323
     28 H4          1.1518    3.1674    0.0066 H         1 <0>         0.1326
     29 H5          3.3037    1.9746   -0.0169 H         1 <0>         0.1359
     30 H6         -0.9261   -0.5562    0.0086 H         1 <0>         0.1336
     31 H7          2.5984   -2.6053    1.4058 H         1 <0>         0.0792
     32 H8          2.4005   -3.7400    0.0450 H         1 <0>         0.1213
     33 H9          5.0799   -2.5596    1.0298 H         1 <0>         0.0880
     34 H10         4.8937   -3.7032   -0.3214 H         1 <0>         0.0570
     35 H11         7.4862   -2.4944    0.6429 H         1 <0>         0.0828
     36 H12         7.3000   -3.6380   -0.7083 H         1 <0>         0.0440
     37 H13        10.0208   -2.4789    0.1088 H         1 <0>         0.0699
     38 H14         9.6593   -3.6235   -1.2055 H         1 <0>         0.0729
     39 H15        11.4641   -3.9692   -0.2089 H         1 <0>         0.1358
     40 H16        13.7358   -4.8984   -0.0249 H         1 <0>         0.1332
     41 H17        15.5725   -3.9381   -1.3514 H         1 <0>         0.1360
     42 H18        15.1438   -2.0460   -2.8660 H         1 <0>         0.1438
     43 H19         8.7040   -0.4208    0.2006 H         1 <0>         0.3741
     44 H20         5.8515   -1.9928   -1.7580 H         1 <0>         0.3466
@<TRIPOS>BOND
     1    1    6 ar
     2    1    2 ar
     3    1   27 1
     4    2    3 ar
     5    2   28 1
     6    3    4 ar
     7    3   29 1
     8    4   11 1
     9    4    5 ar
    10    5    6 ar
    11    5    7 1
    12    6   30 1
    13    7    8 1
    14    8    9 1
    15    8   31 1
    16    8   32 1
    17    9   10 1
    18    9   11 1
    19    9   12 1
    20   12   13 1
    21   12   33 1
    22   12   34 1
    23   13   14 1
    24   13   44 1
    25   14   15 1
    26   14   35 1
    27   14   36 1
    28   15   16 1
    29   15   17 1
    30   15   26 1
    31   17   18 1
    32   17   37 1
    33   17   38 1
    34   18   19 1
    35   19   24 ar
    36   19   20 ar
    37   20   21 ar
    38   20   39 1
    39   21   22 ar
    40   21   40 1
    41   22   23 ar
    42   22   41 1
    43   23   24 ar
    44   23   42 1
    45   24   25 1
    46   26   43 1
@<TRIPOS>MOLECULE
ZINC07653971
   45    47     0     0     0
SMALL
USER_CHARGES

@<TRIPOS>ATOM
      1 C1         -0.0167    1.3777    0.0096 C.ar      1 <0>        -0.0983
      2 C2          1.1697    2.0876    0.0021 C.ar      1 <0>        -0.1085
      3 C3          2.3783    1.4178   -0.0143 C.ar      1 <0>        -0.1049
      4 C4          2.4042    0.0310   -0.0230 C.ar      1 <0>         0.0368
      5 C5          1.2117   -0.6826   -0.0129 C.ar      1 <0>         0.0504
      6 C6          0.0021   -0.0041    0.0020 C.ar      1 <0>        -0.1079
      7 O1          1.2145   -2.0436   -0.0133 O.3       1 <0>        -0.2932
      8 C7          2.4336   -2.6847   -0.4041 C.3       1 <0>         0.0340
      9 C8          3.5941   -1.9974    0.3280 C.3       1 <0>         0.0190
     10 H1          3.4543   -2.0880    1.4052 H         1 <0>         0.1093
     11 O2          3.6022   -0.6147   -0.0433 O.3       1 <0>        -0.3168
     12 C9          4.9178   -2.6491   -0.0771 C.3       1 <0>         0.0063
     13 N1          6.0113   -2.0694    0.7143 N.4       1 <0>        -0.5030
     14 C10         7.2823   -2.6951    0.3254 C.3       1 <0>        -0.0416
     15 C11         8.4212   -2.0914    1.1496 C.3       1 <0>         0.0855
     16 H2          8.4174   -1.0074    1.0352 H         1 <0>         0.1366
     17 C12         9.7579   -2.6514    0.6594 C.3       1 <0>         0.0291
     18 O3         10.8280   -2.0020    1.3488 O.3       1 <0>        -0.2950
     19 C13        12.0921   -2.3864    1.0282 C.ar      1 <0>         0.0843
     20 C14        12.2980   -3.3638    0.0665 C.ar      1 <0>        -0.1824
     21 C15        13.5836   -3.7531   -0.2578 C.ar      1 <0>        -0.0890
     22 C16        14.6653   -3.1697    0.3758 C.ar      1 <0>        -0.1166
     23 C17        14.4644   -2.1952    1.3357 C.ar      1 <0>        -0.1127
     24 C18        13.1799   -1.7968    1.6596 C.ar      1 <0>         0.0778
     25 F1         12.9834   -0.8402    2.5931 F         1 <0>        -0.1285
     26 O4          8.2412   -2.4256    2.5273 O.3       1 <0>        -0.5410
     27 H3         -0.9596    1.9040    0.0259 H         1 <0>         0.1417
     28 H4          1.1518    3.1674    0.0087 H         1 <0>         0.1410
     29 H5          3.3037    1.9746   -0.0208 H         1 <0>         0.1377
     30 H6         -0.9261   -0.5562    0.0079 H         1 <0>         0.1423
     31 H7          2.3988   -3.7390   -0.1298 H         1 <0>         0.1318
     32 H8          2.5703   -2.5889   -1.4813 H         1 <0>         0.0894
     33 H9          4.8657   -3.7223    0.1066 H         1 <0>         0.1568
     34 H10         5.1017   -2.4704   -1.1365 H         1 <0>         0.1480
     35 H11         6.0596   -1.0761    0.5442 H         1 <0>         0.4386
     36 H12         7.2301   -3.7683    0.5091 H         1 <0>         0.1433
     37 H13         7.4661   -2.5164   -0.7340 H         1 <0>         0.1492
     38 H14         9.7968   -3.7229    0.8553 H         1 <0>         0.0795
     39 H15         9.8552   -2.4742   -0.4117 H         1 <0>         0.0840
     40 H16        11.4541   -3.8208   -0.4287 H         1 <0>         0.1342
     41 H17        13.7437   -4.5143   -1.0070 H         1 <0>         0.1371
     42 H18        15.6689   -3.4762    0.1206 H         1 <0>         0.1412
     43 H19        15.3109   -1.7415    1.8296 H         1 <0>         0.1487
     44 H20         8.2342   -3.3763    2.7037 H         1 <0>         0.3905
     45 H21         5.8412   -2.2349    1.6950 H         1 <0>         0.4353
@<TRIPOS>BOND
     1    1    6 ar
     2    1    2 ar
     3    1   27 1
     4    2    3 ar
     5    2   28 1
     6    3    4 ar
     7    3   29 1
     8    4   11 1
     9    4    5 ar
    10    5    6 ar
    11    5    7 1
    12    6   30 1
    13    7    8 1
    14    8    9 1
    15    8   31 1
    16    8   32 1
    17    9   10 1
    18    9   11 1
    19    9   12 1
    20   12   13 1
    21   12   33 1
    22   12   34 1
    23   13   14 1
    24   13   35 1
    25   13   45 1
    26   14   15 1
    27   14   36 1
    28   14   37 1
    29   15   16 1
    30   15   17 1
    31   15   26 1
    32   17   18 1
    33   17   38 1
    34   17   39 1
    35   18   19 1
    36   19   24 ar
    37   19   20 ar
    38   20   21 ar
    39   20   40 1
    40   21   22 ar
    41   21   41 1
    42   22   23 ar
    43   22   42 1
    44   23   24 ar
    45   23   43 1
    46   24   25 1
    47   26   44 1
@<TRIPOS>MOLECULE
ZINC07653971
   44    46     0     0     0
SMALL
USER_CHARGES

@<TRIPOS>ATOM
      1 C1         -0.0167    1.3777    0.0096 C.ar      1 <0>        -0.1156
      2 C2          1.1697    2.0876    0.0021 C.ar      1 <0>        -0.1147
      3 C3          2.3783    1.4178   -0.0143 C.ar      1 <0>        -0.1140
      4 C4          2.4042    0.0310   -0.0230 C.ar      1 <0>         0.0539
      5 C5          1.2117   -0.6826   -0.0129 C.ar      1 <0>         0.0469
      6 C6          0.0021   -0.0041    0.0020 C.ar      1 <0>        -0.1135
      7 O1          1.2145   -2.0436   -0.0133 O.3       1 <0>        -0.3045
      8 C7          2.4336   -2.6847   -0.4041 C.3       1 <0>         0.0280
      9 C8          3.5941   -1.9974    0.3280 C.3       1 <0>         0.0526
     10 H1          3.4543   -2.0880    1.4052 H         1 <0>         0.0973
     11 O2          3.6022   -0.6147   -0.0433 O.3       1 <0>        -0.3069
     12 C9          4.9178   -2.6491   -0.0771 C.3       1 <0>         0.0708
     13 N1          6.0113   -2.0694    0.7143 N.3       1 <0>        -0.6764
     14 C10         7.3008   -2.6726    0.3516 C.3       1 <0>         0.0304
     15 C11         8.4125   -2.0450    1.1948 C.3       1 <0>         0.1144
     16 H2          8.3908   -0.9616    1.0763 H         1 <0>         0.1098
     17 C12         9.7685   -2.5816    0.7317 C.3       1 <0>         0.0266
     18 O3         10.8131   -1.9100    1.4386 O.3       1 <0>        -0.2949
     19 C13        12.0899   -2.2718    1.1433 C.ar      1 <0>         0.0960
     20 C14        12.3321   -3.2484    0.1891 C.ar      1 <0>        -0.1852
     21 C15        13.6306   -3.6147   -0.1095 C.ar      1 <0>        -0.0895
     22 C16        14.6891   -3.0091    0.5420 C.ar      1 <0>        -0.1282
     23 C17        14.4521   -2.0353    1.4944 C.ar      1 <0>        -0.1154
     24 C18        13.1545   -1.6599    1.7926 C.ar      1 <0>         0.0700
     25 F1         12.9228   -0.7040    2.7188 F         1 <0>        -0.1302
     26 O4          8.2130   -2.3778    2.5700 O.3       1 <0>        -0.5358
     27 H3         -0.9596    1.9040    0.0259 H         1 <0>         0.1332
     28 H4          1.1518    3.1674    0.0087 H         1 <0>         0.1331
     29 H5          3.3037    1.9746   -0.0208 H         1 <0>         0.1344
     30 H6         -0.9261   -0.5562    0.0079 H         1 <0>         0.1348
     31 H7          2.3988   -3.7390   -0.1298 H         1 <0>         0.1238
     32 H8          2.5703   -2.5889   -1.4813 H         1 <0>         0.0772
     33 H9          4.8657   -3.7223    0.1066 H         1 <0>         0.0974
     34 H10         5.1017   -2.4704   -1.1365 H         1 <0>         0.0458
     35 H11         7.2651   -3.7459    0.5383 H         1 <0>         0.0826
     36 H12         7.5011   -2.4940   -0.7048 H         1 <0>         0.0453
     37 H13         9.8235   -3.6515    0.9324 H         1 <0>         0.0699
     38 H14         9.8826   -2.4061   -0.3380 H         1 <0>         0.0733
     39 H15        11.5062   -3.7227   -0.3201 H         1 <0>         0.1358
     40 H16        13.8189   -4.3753   -0.8527 H         1 <0>         0.1332
     41 H17        15.7029   -3.2977    0.3068 H         1 <0>         0.1361
     42 H18        15.2806   -1.5643    2.0024 H         1 <0>         0.1438
     43 H19         8.2203   -3.3279    2.7499 H         1 <0>         0.3737
     44 H20         6.0398   -1.0661    0.6113 H         1 <0>         0.3544
@<TRIPOS>BOND
     1    1    6 ar
     2    1    2 ar
     3    1   27 1
     4    2    3 ar
     5    2   28 1
     6    3    4 ar
     7    3   29 1
     8    4   11 1
     9    4    5 ar
    10    5    6 ar
    11    5    7 1
    12    6   30 1
    13    7    8 1
    14    8    9 1
    15    8   31 1
    16    8   32 1
    17    9   10 1
    18    9   11 1
    19    9   12 1
    20   12   13 1
    21   12   33 1
    22   12   34 1
    23   13   14 1
    24   13   44 1
    25   14   15 1
    26   14   35 1
    27   14   36 1
    28   15   16 1
    29   15   17 1
    30   15   26 1
    31   17   18 1
    32   17   37 1
    33   17   38 1
    34   18   19 1
    35   19   24 ar
    36   19   20 ar
    37   20   21 ar
    38   20   39 1
    39   21   22 ar
    40   21   40 1
    41   22   23 ar
    42   22   41 1
    43   23   24 ar
    44   23   42 1
    45   24   25 1
    46   26   43 1
@<TRIPOS>MOLECULE
ZINC02654726
   48    50     0     0     0
SMALL
USER_CHARGES
1-[(2-chlorophenyl)methoxy]-3-(7,10-dioxabicyclo[4.4.0]deca-2,4,11-trien-8-ylmethylamino)propan-2-ol
@<TRIPOS>ATOM
      1 C1         -4.0314    9.8568   -5.1543 C.ar      1 <0>        -0.1144
      2 C2         -4.3236   11.2061   -5.2298 C.ar      1 <0>        -0.1013
      3 C3         -3.8598   12.0694   -4.2555 C.ar      1 <0>        -0.1062
      4 C4         -3.1032   11.5832   -3.2039 C.ar      1 <0>        -0.0322
      5 C5         -2.8115   10.2331   -3.1286 C.ar      1 <0>        -0.0906
      6 C6         -3.2716    9.3713   -4.1066 C.ar      1 <0>        -0.0862
      7 C7         -1.9871    9.7028   -1.9840 C.3       1 <0>         0.1075
      8 O1         -1.8242    8.2905   -2.1285 O.3       1 <0>        -0.3692
      9 C8         -1.0531    7.6850   -1.0888 C.3       1 <0>         0.0325
     10 C9         -0.9444    6.1805   -1.3447 C.3       1 <0>         0.0855
     11 H1         -0.5391    6.0099   -2.3421 H         1 <0>         0.1328
     12 C10        -0.0169    5.5517   -0.3029 C.3       1 <0>        -0.0393
     13 C11         1.0701    3.4930    0.3626 C.3       1 <0>         0.0110
     14 C12         1.2537    2.0178    0.0009 C.3       1 <0>         0.0187
     15 H2          1.7047    1.9345   -0.9879 H         1 <0>         0.1099
     16 C13         2.1559    1.3384    1.0402 C.3       1 <0>         0.0336
     17 O2          2.2957   -0.0400    0.6790 O.3       1 <0>        -0.2933
     18 C14         1.1559   -0.7016    0.3389 C.ar      1 <0>         0.0504
     19 C15         1.1513   -2.0886    0.3283 C.ar      1 <0>        -0.1081
     20 C16         0.0027   -2.7745   -0.0185 C.ar      1 <0>        -0.0985
     21 C17        -1.1444   -2.0806   -0.3558 C.ar      1 <0>        -0.1087
     22 C18        -1.1469   -0.6986   -0.3462 C.ar      1 <0>        -0.1048
     23 C19         0.0021   -0.0041    0.0020 C.ar      1 <0>         0.0376
     24 O3         -0.0164    1.3569    0.0095 O.3       1 <0>        -0.3187
     25 O4         -2.2404    5.5862   -1.2492 O.3       1 <0>        -0.5428
     26 Cl1        -2.5197   12.6672   -1.9799 Cl        1 <0>        -0.0648
     27 H3         -4.3935    9.1826   -5.9163 H         1 <0>         0.1326
     28 H4         -4.9141   11.5855   -6.0506 H         1 <0>         0.1366
     29 H5         -4.0875   13.1235   -4.3150 H         1 <0>         0.1389
     30 H6         -3.0402    8.3179   -4.0503 H         1 <0>         0.1392
     31 H7         -2.4934    9.9157   -1.0424 H         1 <0>         0.0724
     32 H8         -1.0089   10.1837   -1.9873 H         1 <0>         0.0723
     33 H9         -1.5399    7.8560   -0.1287 H         1 <0>         0.0670
     34 H10        -0.0555    8.1240   -1.0737 H         1 <0>         0.0713
     35 H11        -0.4657    5.6443    0.6861 H         1 <0>         0.1400
     36 H12         0.9444    6.0652   -0.3152 H         1 <0>         0.1465
     37 H13         0.6289    3.5714    1.3562 H         1 <0>         0.1449
     38 H14         2.0390    3.9923    0.3549 H         1 <0>         0.1557
     39 H15         1.7018    1.4154    2.0281 H         1 <0>         0.0888
     40 H16         3.1349    1.8176    1.0473 H         1 <0>         0.1319
     41 H17         2.0462   -2.6331    0.5910 H         1 <0>         0.1422
     42 H18         0.0012   -3.8545   -0.0257 H         1 <0>         0.1416
     43 H19        -2.0401   -2.6194   -0.6276 H         1 <0>         0.1409
     44 H20        -2.0444   -0.1589   -0.6100 H         1 <0>         0.1379
     45 H21        -2.6623    5.6991   -0.3864 H         1 <0>         0.3899
     46 N1          0.1783    4.1260   -0.6273 N.4       1 <0>        -0.5129
     47 H22         0.5975    4.0454   -1.5612 H         1 <0>         0.4356
     48 H23        -0.7309    3.6489   -0.6180 H         1 <0>         0.4463
@<TRIPOS>BOND
     1    1    6 ar
     2    1    2 ar
     3    1   27 1
     4    2    3 ar
     5    2   28 1
     6    3    4 ar
     7    3   29 1
     8    4    5 ar
     9    4   26 1
    10    5    6 ar
    11    5    7 1
    12    6   30 1
    13    7    8 1
    14    7   31 1
    15    7   32 1
    16    8    9 1
    17    9   10 1
    18    9   33 1
    19    9   34 1
    20   10   11 1
    21   10   12 1
    22   10   25 1
    23   12   35 1
    24   12   36 1
    25   12   46 1
    26   13   14 1
    27   13   37 1
    28   13   38 1
    29   13   46 1
    30   14   15 1
    31   14   24 1
    32   14   16 1
    33   16   17 1
    34   16   39 1
    35   16   40 1
    36   17   18 1
    37   18   23 ar
    38   18   19 ar
    39   19   20 ar
    40   19   41 1
    41   20   21 ar
    42   20   42 1
    43   21   22 ar
    44   21   43 1
    45   22   23 ar
    46   22   44 1
    47   23   24 1
    48   25   45 1
    49   46   47 1
    50   46   48 1
@<TRIPOS>MOLECULE
ZINC02654727
   48    50     0     0     0
SMALL
USER_CHARGES
1-[(2-chlorophenyl)methoxy]-3-(7,10-dioxabicyclo[4.4.0]deca-2,4,11-trien-8-ylmethylamino)propan-2-ol
@<TRIPOS>ATOM
      1 C1          2.3773    1.4115   -0.0126 C.ar      1 <0>        -0.1144
      2 C2          2.3967    0.0290   -0.0207 C.ar      1 <0>        -0.1013
      3 C3          1.2100   -0.6790   -0.0131 C.ar      1 <0>        -0.1062
      4 C4          0.0021   -0.0041    0.0020 C.ar      1 <0>        -0.0322
      5 C5         -0.0167    1.3791    0.0096 C.ar      1 <0>        -0.0907
      6 C6          1.1711    2.0862    0.0021 C.ar      1 <0>        -0.0862
      7 C7         -1.3318    2.1149    0.0198 C.3       1 <0>         0.1076
      8 O1         -1.0896    3.5232    0.0263 O.3       1 <0>        -0.3692
      9 C8         -2.2776    4.3173    0.0363 C.3       1 <0>         0.0327
     10 C9         -1.9001    5.7999    0.0426 C.3       1 <0>         0.0852
     11 H1         -1.2352    6.0020    0.8823 H         1 <0>         0.1341
     12 C10        -3.1662    6.6481    0.1789 C.3       1 <0>        -0.0392
     13 C11        -3.9971    8.9182    0.3147 C.3       1 <0>         0.0110
     14 C12        -3.5803   10.3904    0.3171 C.3       1 <0>         0.0191
     15 H2         -3.0770   10.6314   -0.6192 H         1 <0>         0.1099
     16 C13        -4.8205   11.2791    0.4827 C.3       1 <0>         0.0337
     17 O2         -4.3940   12.6458    0.4943 O.3       1 <0>        -0.2932
     18 C14        -3.3230   12.9454    1.2789 C.ar      1 <0>         0.0506
     19 C15        -3.0785   14.2672    1.6210 C.ar      1 <0>        -0.1079
     20 C16        -1.9929   14.5877    2.4138 C.ar      1 <0>        -0.0984
     21 C17        -1.1479   13.5922    2.8682 C.ar      1 <0>        -0.1087
     22 C18        -1.3867   12.2732    2.5322 C.ar      1 <0>        -0.1051
     23 C19        -2.4749   11.9445    1.7375 C.ar      1 <0>         0.0376
     24 O3         -2.6990   10.6408    1.4174 O.3       1 <0>        -0.3193
     25 O4         -1.2365    6.1277   -1.1799 O.3       1 <0>        -0.5439
     26 Cl1        -1.4892   -0.8928    0.0109 Cl        1 <0>        -0.0648
     27 H3          3.3051    1.9644   -0.0185 H         1 <0>         0.1326
     28 H4          3.3395   -0.4977   -0.0325 H         1 <0>         0.1366
     29 H5          1.2252   -1.7589   -0.0194 H         1 <0>         0.1389
     30 H6          1.1566    3.1661    0.0077 H         1 <0>         0.1392
     31 H7         -1.9040    1.8488   -0.8689 H         1 <0>         0.0724
     32 H8         -1.8956    1.8391    0.9110 H         1 <0>         0.0724
     33 H9         -2.8694    4.0968   -0.8521 H         1 <0>         0.0667
     34 H10        -2.8610    4.0871    0.9278 H         1 <0>         0.0718
     35 H11        -3.8310    6.4460   -0.6609 H         1 <0>         0.1399
     36 H12        -3.6723    6.3981    1.1113 H         1 <0>         0.1468
     37 H13        -4.6677    8.7319   -0.5242 H         1 <0>         0.1551
     38 H14        -4.5090    8.6840    1.2480 H         1 <0>         0.1454
     39 H15        -5.5046   11.1144   -0.3498 H         1 <0>         0.1319
     40 H16        -5.3199   11.0421    1.4221 H         1 <0>         0.0890
     41 H17        -3.7370   15.0467    1.2672 H         1 <0>         0.1423
     42 H18        -1.8044   15.6175    2.6792 H         1 <0>         0.1416
     43 H19        -0.2998   13.8459    3.4868 H         1 <0>         0.1409
     44 H20        -0.7254   11.4974    2.8889 H         1 <0>         0.1376
     45 H21        -1.7704    5.9726   -1.9711 H         1 <0>         0.3888
     46 N1         -2.7937    8.0753    0.1841 N.4       1 <0>        -0.5121
     47 H22        -2.3142    8.3034   -0.6947 H         1 <0>         0.4385
     48 H23        -2.1646    8.2583    0.9747 H         1 <0>         0.4430
@<TRIPOS>BOND
     1    1    6 ar
     2    1    2 ar
     3    1   27 1
     4    2    3 ar
     5    2   28 1
     6    3    4 ar
     7    3   29 1
     8    4    5 ar
     9    4   26 1
    10    5    6 ar
    11    5    7 1
    12    6   30 1
    13    7    8 1
    14    7   31 1
    15    7   32 1
    16    8    9 1
    17    9   10 1
    18    9   33 1
    19    9   34 1
    20   10   11 1
    21   10   12 1
    22   10   25 1
    23   12   35 1
    24   12   36 1
    25   12   46 1
    26   13   14 1
    27   13   37 1
    28   13   38 1
    29   13   46 1
    30   14   15 1
    31   14   24 1
    32   14   16 1
    33   16   17 1
    34   16   39 1
    35   16   40 1
    36   17   18 1
    37   18   23 ar
    38   18   19 ar
    39   19   20 ar
    40   19   41 1
    41   20   21 ar
    42   20   42 1
    43   21   22 ar
    44   21   43 1
    45   22   23 ar
    46   22   44 1
    47   23   24 1
    48   25   45 1
    49   46   47 1
    50   46   48 1
@<TRIPOS>MOLECULE
ZINC02654728
   48    50     0     0     0
SMALL
USER_CHARGES
(2R)-1-[(2-chlorophenyl)methoxy]-3-[[(3R)-2,3-dihydro-1,4-benzodioxin-3-yl]methylamino]propan-2-ol
@<TRIPOS>ATOM
      1 C1         -0.0590    4.4966    0.0253 C.ar      1 <0>        -0.1149
      2 C2          1.1478    3.8219    0.0111 C.ar      1 <0>        -0.1021
      3 C3          1.1672    2.4401    0.0040 C.ar      1 <0>        -0.1061
      4 C4         -0.0215    1.7317    0.0116 C.ar      1 <0>        -0.0322
      5 C5         -1.2285    2.4073    0.0209 C.ar      1 <0>        -0.0887
      6 C6         -1.2466    3.7895    0.0329 C.ar      1 <0>        -0.0862
      7 C7         -2.5236    1.6366    0.0234 C.3       1 <0>         0.1053
      8 O1         -3.6219    2.5507    0.0334 O.3       1 <0>        -0.3708
      9 C8         -4.9037    1.9192    0.0365 C.3       1 <0>         0.0668
     10 C9         -5.9987    2.9877    0.0473 C.3       1 <0>         0.0976
     11 H1         -5.8435    3.7259   -0.7533 H         1 <0>         0.0899
     12 C10        -7.3680    2.3160   -0.0751 C.3       1 <0>        -0.0379
     13 N1         -8.4102    3.3454   -0.1851 N.4       1 <0>        -0.5376
     14 C11        -9.7415    2.7360   -0.3046 C.3       1 <0>         0.0103
     15 C12       -10.7981    3.8368   -0.4168 C.3       1 <0>         0.0217
     16 H2        -10.6872    4.5600    0.4046 H         1 <0>         0.1086
     17 C13       -12.1982    3.2091   -0.4465 C.3       1 <0>         0.0328
     18 O2        -13.1595    4.2635   -0.5652 O.3       1 <0>        -0.2928
     19 C14       -12.9038    5.2220   -1.4970 C.ar      1 <0>         0.0502
     20 C15       -13.9308    6.0543   -1.9169 C.ar      1 <0>        -0.1078
     21 C16       -13.6860    7.0347   -2.8596 C.ar      1 <0>        -0.0987
     22 C17       -12.4172    7.1886   -3.3868 C.ar      1 <0>        -0.1087
     23 C18       -11.3898    6.3618   -2.9738 C.ar      1 <0>        -0.1059
     24 C19       -11.6289    5.3752   -2.0286 C.ar      1 <0>         0.0381
     25 O3        -10.6078    4.5664   -1.6339 O.3       1 <0>        -0.3231
     26 O4         -5.9360    3.7216    1.2718 O.3       1 <0>        -0.5679
     27 Cl1         0.0021   -0.0041    0.0020 Cl        1 <0>        -0.0645
     28 H3         -0.0736    5.5765    0.0302 H         1 <0>         0.1321
     29 H4          2.0755    4.3749    0.0053 H         1 <0>         0.1364
     30 H5          2.1099    1.9132   -0.0078 H         1 <0>         0.1388
     31 H6         -2.1889    4.3171    0.0436 H         1 <0>         0.1381
     32 H7         -2.5779    1.0080   -0.8777 H         1 <0>         0.0731
     33 H8         -2.5691    0.9989    0.9186 H         1 <0>         0.0739
     34 H9         -5.0079    1.2966   -0.8643 H         1 <0>         0.0781
     35 H10        -4.9991    1.2874    0.9319 H         1 <0>         0.0716
     36 H11        -7.3852    1.6794   -0.9720 H         1 <0>         0.1436
     37 H12        -7.5547    1.6989    0.8162 H         1 <0>         0.1440
     38 H13        -8.3929    3.9820    0.7118 H         1 <0>         0.4460
     39 H14        -9.7754    2.1023   -1.2031 H         1 <0>         0.1456
     40 H15        -9.9449    2.1219    0.5851 H         1 <0>         0.1545
     41 H16       -12.2765    2.5279   -1.3067 H         1 <0>         0.0909
     42 H17       -12.3676    2.6464    0.4834 H         1 <0>         0.1334
     43 H18       -14.9228    5.9363   -1.5065 H         1 <0>         0.1422
     44 H19       -14.4870    7.6821   -3.1847 H         1 <0>         0.1415
     45 H20       -12.2286    7.9563   -4.1226 H         1 <0>         0.1406
     46 H21       -10.3995    6.4842   -3.3871 H         1 <0>         0.1371
     47 H22        -6.6498    4.5367    1.4616 H         1 <0>         0.4024
     48 H23        -8.2235    3.9625   -1.0763 H         1 <0>         0.4608
@<TRIPOS>BOND
     1    1    6 ar
     2    1    2 ar
     3    1   28 1
     4    2    3 ar
     5    2   29 1
     6    3    4 ar
     7    3   30 1
     8    4    5 ar
     9    4   27 1
    10    5    6 ar
    11    5    7 1
    12    6   31 1
    13    7    8 1
    14    7   32 1
    15    7   33 1
    16    8    9 1
    17    9   10 1
    18    9   34 1
    19    9   35 1
    20   10   11 1
    21   10   12 1
    22   10   26 1
    23   12   13 1
    24   12   36 1
    25   12   37 1
    26   13   14 1
    27   13   38 1
    28   13   48 1
    29   14   15 1
    30   14   39 1
    31   14   40 1
    32   15   16 1
    33   15   25 1
    34   15   17 1
    35   17   18 1
    36   17   41 1
    37   17   42 1
    38   18   19 1
    39   19   24 ar
    40   19   20 ar
    41   20   21 ar
    42   20   43 1
    43   21   22 ar
    44   21   44 1
    45   22   23 ar
    46   22   45 1
    47   23   24 ar
    48   23   46 1
    49   24   25 1
    50   26   47 1
@<TRIPOS>MOLECULE
ZINC02654728
   47    49     0     0     0
SMALL
USER_CHARGES
(2R)-1-[(2-chlorophenyl)methoxy]-3-[[(3R)-2,3-dihydro-1,4-benzodioxin-3-yl]methylamino]propan-2-ol
@<TRIPOS>ATOM
      1 C1         -0.0590    4.4966    0.0253 C.ar      1 <0>        -0.1154
      2 C2          1.1478    3.8219    0.0111 C.ar      1 <0>        -0.1081
      3 C3          1.1672    2.4401    0.0040 C.ar      1 <0>        -0.1101
      4 C4         -0.0215    1.7317    0.0116 C.ar      1 <0>        -0.0335
      5 C5         -1.2285    2.4073    0.0209 C.ar      1 <0>        -0.0805
      6 C6         -1.2466    3.7895    0.0329 C.ar      1 <0>        -0.0832
      7 C7         -2.5236    1.6366    0.0234 C.3       1 <0>         0.1009
      8 O1         -3.6219    2.5507    0.0334 O.3       1 <0>        -0.3724
      9 C8         -4.9037    1.9192    0.0365 C.3       1 <0>         0.0702
     10 C9         -5.9987    2.9877    0.0473 C.3       1 <0>         0.1229
     11 H1         -5.8435    3.7259   -0.7533 H         1 <0>         0.0731
     12 C10        -7.3680    2.3160   -0.0751 C.3       1 <0>         0.0191
     13 N1         -8.4102    3.3454   -0.1851 N.3       1 <0>        -0.6592
     14 C11        -9.7415    2.7360   -0.3046 C.3       1 <0>         0.0575
     15 C12       -10.7981    3.8368   -0.4168 C.3       1 <0>         0.0564
     16 H2        -10.6872    4.5600    0.4046 H         1 <0>         0.0867
     17 C13       -12.1982    3.2091   -0.4465 C.3       1 <0>         0.0265
     18 O2        -13.1595    4.2635   -0.5652 O.3       1 <0>        -0.3045
     19 C14       -12.9038    5.2220   -1.4970 C.ar      1 <0>         0.0424
     20 C15       -13.9308    6.0543   -1.9169 C.ar      1 <0>        -0.1131
     21 C16       -13.6860    7.0347   -2.8596 C.ar      1 <0>        -0.1179
     22 C17       -12.4172    7.1886   -3.3868 C.ar      1 <0>        -0.1141
     23 C18       -11.3898    6.3618   -2.9738 C.ar      1 <0>        -0.1142
     24 C19       -11.6289    5.3752   -2.0286 C.ar      1 <0>         0.0536
     25 O3        -10.6078    4.5664   -1.6339 O.3       1 <0>        -0.2916
     26 O4         -5.9360    3.7216    1.2718 O.3       1 <0>        -0.5890
     27 Cl1         0.0021   -0.0041    0.0020 Cl        1 <0>        -0.0691
     28 H3         -0.0736    5.5765    0.0302 H         1 <0>         0.1309
     29 H4          2.0755    4.3749    0.0053 H         1 <0>         0.1330
     30 H5          2.1099    1.9132   -0.0078 H         1 <0>         0.1352
     31 H6         -2.1889    4.3171    0.0436 H         1 <0>         0.1429
     32 H7         -2.5779    1.0080   -0.8777 H         1 <0>         0.0689
     33 H8         -2.5691    0.9989    0.9186 H         1 <0>         0.0692
     34 H9         -5.0079    1.2966   -0.8643 H         1 <0>         0.0675
     35 H10        -4.9991    1.2874    0.9319 H         1 <0>         0.0590
     36 H11        -7.3852    1.6794   -0.9720 H         1 <0>         0.0852
     37 H12        -7.5547    1.6989    0.8162 H         1 <0>         0.0454
     38 H13        -9.7754    2.1023   -1.2031 H         1 <0>         0.0901
     39 H14        -9.9449    2.1219    0.5851 H         1 <0>         0.0610
     40 H15       -12.2765    2.5279   -1.3067 H         1 <0>         0.0809
     41 H16       -12.3676    2.6464    0.4834 H         1 <0>         0.1236
     42 H17       -14.9228    5.9363   -1.5065 H         1 <0>         0.1338
     43 H18       -14.4870    7.6821   -3.1847 H         1 <0>         0.1325
     44 H19       -12.2286    7.9563   -4.1226 H         1 <0>         0.1325
     45 H20       -10.3995    6.4842   -3.3871 H         1 <0>         0.1348
     46 H21        -6.6498    4.5367    1.4616 H         1 <0>         0.4034
     47 H22        -8.3929    3.9820    0.7118 H         1 <0>         0.3367
@<TRIPOS>BOND
     1    1    6 ar
     2    1    2 ar
     3    1   28 1
     4    2    3 ar
     5    2   29 1
     6    3    4 ar
     7    3   30 1
     8    4    5 ar
     9    4   27 1
    10    5    6 ar
    11    5    7 1
    12    6   31 1
    13    7    8 1
    14    7   32 1
    15    7   33 1
    16    8    9 1
    17    9   10 1
    18    9   34 1
    19    9   35 1
    20   10   11 1
    21   10   12 1
    22   10   26 1
    23   12   13 1
    24   12   36 1
    25   12   37 1
    26   13   14 1
    27   13   47 1
    28   14   15 1
    29   14   38 1
    30   14   39 1
    31   15   16 1
    32   15   25 1
    33   15   17 1
    34   17   18 1
    35   17   40 1
    36   17   41 1
    37   18   19 1
    38   19   24 ar
    39   19   20 ar
    40   20   21 ar
    41   20   42 1
    42   21   22 ar
    43   21   43 1
    44   22   23 ar
    45   22   44 1
    46   23   24 ar
    47   23   45 1
    48   24   25 1
    49   26   46 1
@<TRIPOS>MOLECULE
ZINC02654729
   48    50     0     0     0
SMALL
USER_CHARGES
(2S)-1-[(2-chlorophenyl)methoxy]-3-[[(3R)-2,3-dihydro-1,4-benzodioxin-3-yl]methylamino]propan-2-ol
@<TRIPOS>ATOM
      1 C1         -0.6255    3.1872   -5.5929 C.ar      1 <0>        -0.1149
      2 C2         -0.2079    2.9831   -6.8951 C.ar      1 <0>        -0.1020
      3 C3          0.9246    2.2328   -7.1482 C.ar      1 <0>        -0.1061
      4 C4          1.6410    1.6861   -6.0982 C.ar      1 <0>        -0.0322
      5 C5          1.2230    1.8910   -4.7956 C.ar      1 <0>        -0.0887
      6 C6          0.0870    2.6374   -4.5439 C.ar      1 <0>        -0.0863
      7 C7          2.0023    1.2955   -3.6514 C.3       1 <0>         0.1053
      8 O1          1.3761    1.6453   -2.4154 O.3       1 <0>        -0.3708
      9 C8          2.0397    1.1274   -1.2607 C.3       1 <0>         0.0667
     10 C9          1.2864    1.5618   -0.0018 C.3       1 <0>         0.0974
     11 H1          1.1154    2.6484    0.0058 H         1 <0>         0.0905
     12 C10         2.0636    1.1140    1.2377 C.3       1 <0>        -0.0376
     13 N1          1.3402    1.5310    2.4463 N.4       1 <0>        -0.5378
     14 C11         2.0587    1.1171    3.6589 C.3       1 <0>         0.0105
     15 C12         1.2765    1.5681    4.8941 C.3       1 <0>         0.0216
     16 H2          1.0459    2.6418    4.8310 H         1 <0>         0.1086
     17 C13         2.0681    1.2224    6.1626 C.3       1 <0>         0.0328
     18 O2          1.3035    1.6449    7.2970 O.3       1 <0>        -0.2929
     19 C14        -0.0183    1.3202    7.2986 C.ar      1 <0>         0.0499
     20 C15        -0.7300    1.3704    8.4881 C.ar      1 <0>        -0.1079
     21 C16        -2.0735    1.0473    8.5051 C.ar      1 <0>        -0.0988
     22 C17        -2.7118    0.6731    7.3373 C.ar      1 <0>        -0.1087
     23 C18        -2.0081    0.6197    6.1490 C.ar      1 <0>        -0.1057
     24 C19        -0.6593    0.9419    6.1251 C.ar      1 <0>         0.0382
     25 O3          0.0212    0.8816    4.9479 O.3       1 <0>        -0.3230
     26 O4         -0.0110    0.9628    0.0073 O.3       1 <0>        -0.5679
     27 Cl1         3.0635    0.7429   -6.4154 Cl        1 <0>        -0.0645
     28 H3         -1.5111    3.7731   -5.3956 H         1 <0>         0.1321
     29 H4         -0.7671    3.4099   -7.7146 H         1 <0>         0.1364
     30 H5          1.2503    2.0728   -8.1654 H         1 <0>         0.1388
     31 H6         -0.2420    2.7937   -3.5271 H         1 <0>         0.1382
     32 H7          2.0251    0.2005   -3.7539 H         1 <0>         0.0739
     33 H8          3.0304    1.6865   -3.6651 H         1 <0>         0.0731
     34 H9          2.0633    0.0289   -1.3132 H         1 <0>         0.0715
     35 H10         3.0686    1.5149   -1.2244 H         1 <0>         0.0784
     36 H11         2.1653    0.0187    1.2308 H         1 <0>         0.1429
     37 H12         3.0623    1.5750    1.2307 H         1 <0>         0.1441
     38 H13         1.2384    2.6263    2.4531 H         1 <0>         0.4524
     39 H14         2.1604    0.0219    3.6690 H         1 <0>         0.1452
     40 H15         3.0574    1.5781    3.6688 H         1 <0>         0.1549
     41 H16         2.2375    0.1363    6.2045 H         1 <0>         0.0910
     42 H17         3.0364    1.7441    6.1442 H         1 <0>         0.1332
     43 H18        -0.2338    1.6626    9.4018 H         1 <0>         0.1421
     44 H19        -2.6259    1.0876    9.4323 H         1 <0>         0.1414
     45 H20        -3.7621    0.4221    7.3535 H         1 <0>         0.1408
     46 H21        -2.5092    0.3271    5.2381 H         1 <0>         0.1377
     47 H22        -0.7021    1.1602    0.8400 H         1 <0>         0.4022
     48 H23         0.3415    1.0699    2.4533 H         1 <0>         0.4543
@<TRIPOS>BOND
     1    1    6 ar
     2    1    2 ar
     3    1   28 1
     4    2    3 ar
     5    2   29 1
     6    3    4 ar
     7    3   30 1
     8    4    5 ar
     9    4   27 1
    10    5    6 ar
    11    5    7 1
    12    6   31 1
    13    7    8 1
    14    7   32 1
    15    7   33 1
    16    8    9 1
    17    9   10 1
    18    9   34 1
    19    9   35 1
    20   10   11 1
    21   10   12 1
    22   10   26 1
    23   12   13 1
    24   12   36 1
    25   12   37 1
    26   13   14 1
    27   13   38 1
    28   13   48 1
    29   14   15 1
    30   14   39 1
    31   14   40 1
    32   15   16 1
    33   15   25 1
    34   15   17 1
    35   17   18 1
    36   17   41 1
    37   17   42 1
    38   18   19 1
    39   19   24 ar
    40   19   20 ar
    41   20   21 ar
    42   20   43 1
    43   21   22 ar
    44   21   44 1
    45   22   23 ar
    46   22   45 1
    47   23   24 ar
    48   23   46 1
    49   24   25 1
    50   26   47 1
@<TRIPOS>MOLECULE
ZINC02654729
   47    49     0     0     0
SMALL
USER_CHARGES
(2S)-1-[(2-chlorophenyl)methoxy]-3-[[(3R)-2,3-dihydro-1,4-benzodioxin-3-yl]methylamino]propan-2-ol
@<TRIPOS>ATOM
      1 C1         -0.6255    3.1872   -5.5929 C.ar      1 <0>        -0.1155
      2 C2         -0.2079    2.9831   -6.8951 C.ar      1 <0>        -0.1081
      3 C3          0.9246    2.2328   -7.1482 C.ar      1 <0>        -0.1101
      4 C4          1.6410    1.6861   -6.0982 C.ar      1 <0>        -0.0335
      5 C5          1.2230    1.8910   -4.7956 C.ar      1 <0>        -0.0804
      6 C6          0.0870    2.6374   -4.5439 C.ar      1 <0>        -0.0832
      7 C7          2.0023    1.2955   -3.6514 C.3       1 <0>         0.1008
      8 O1          1.3761    1.6453   -2.4154 O.3       1 <0>        -0.3724
      9 C8          2.0397    1.1274   -1.2607 C.3       1 <0>         0.0692
     10 C9          1.2864    1.5618   -0.0018 C.3       1 <0>         0.1267
     11 H1          1.1154    2.6484    0.0058 H         1 <0>         0.0592
     12 C10         2.0636    1.1140    1.2377 C.3       1 <0>         0.0190
     13 N1          1.3402    1.5310    2.4463 N.3       1 <0>        -0.6617
     14 C11         2.0587    1.1171    3.6589 C.3       1 <0>         0.0586
     15 C12         1.2765    1.5681    4.8941 C.3       1 <0>         0.0567
     16 H2          1.0459    2.6418    4.8310 H         1 <0>         0.0863
     17 C13         2.0681    1.2224    6.1626 C.3       1 <0>         0.0264
     18 O2          1.3035    1.6449    7.2970 O.3       1 <0>        -0.3048
     19 C14        -0.0183    1.3202    7.2986 C.ar      1 <0>         0.0420
     20 C15        -0.7300    1.3704    8.4881 C.ar      1 <0>        -0.1133
     21 C16        -2.0735    1.0473    8.5051 C.ar      1 <0>        -0.1180
     22 C17        -2.7118    0.6731    7.3373 C.ar      1 <0>        -0.1142
     23 C18        -2.0081    0.6197    6.1490 C.ar      1 <0>        -0.1139
     24 C19        -0.6593    0.9419    6.1251 C.ar      1 <0>         0.0539
     25 O3          0.0212    0.8816    4.9479 O.3       1 <0>        -0.2912
     26 O4         -0.0110    0.9628    0.0073 O.3       1 <0>        -0.5850
     27 Cl1         3.0635    0.7429   -6.4154 Cl        1 <0>        -0.0691
     28 H3         -1.5111    3.7731   -5.3956 H         1 <0>         0.1309
     29 H4         -0.7671    3.4099   -7.7146 H         1 <0>         0.1330
     30 H5          1.2503    2.0728   -8.1654 H         1 <0>         0.1352
     31 H6         -0.2420    2.7937   -3.5271 H         1 <0>         0.1429
     32 H7          2.0251    0.2005   -3.7539 H         1 <0>         0.0696
     33 H8          3.0304    1.6865   -3.6651 H         1 <0>         0.0682
     34 H9          2.0633    0.0289   -1.3132 H         1 <0>         0.0608
     35 H10         3.0686    1.5149   -1.2244 H         1 <0>         0.0643
     36 H11         2.1653    0.0187    1.2308 H         1 <0>         0.0856
     37 H12         3.0623    1.5750    1.2307 H         1 <0>         0.0420
     38 H13         2.1604    0.0219    3.6690 H         1 <0>         0.0897
     39 H14         3.0574    1.5781    3.6688 H         1 <0>         0.0601
     40 H15         2.2375    0.1363    6.2045 H         1 <0>         0.0809
     41 H16         3.0364    1.7441    6.1442 H         1 <0>         0.1232
     42 H17        -0.2338    1.6626    9.4018 H         1 <0>         0.1336
     43 H18        -2.6259    1.0876    9.4323 H         1 <0>         0.1323
     44 H19        -3.7621    0.4221    7.3535 H         1 <0>         0.1326
     45 H20        -2.5092    0.3271    5.2381 H         1 <0>         0.1354
     46 H21        -0.7021    1.1602    0.8400 H         1 <0>         0.4145
     47 H22         1.2384    2.6263    2.4531 H         1 <0>         0.3409
@<TRIPOS>BOND
     1    1    6 ar
     2    1    2 ar
     3    1   28 1
     4    2    3 ar
     5    2   29 1
     6    3    4 ar
     7    3   30 1
     8    4    5 ar
     9    4   27 1
    10    5    6 ar
    11    5    7 1
    12    6   31 1
    13    7    8 1
    14    7   32 1
    15    7   33 1
    16    8    9 1
    17    9   10 1
    18    9   34 1
    19    9   35 1
    20   10   11 1
    21   10   12 1
    22   10   26 1
    23   12   13 1
    24   12   36 1
    25   12   37 1
    26   13   14 1
    27   13   47 1
    28   14   15 1
    29   14   38 1
    30   14   39 1
    31   15   16 1
    32   15   25 1
    33   15   17 1
    34   17   18 1
    35   17   40 1
    36   17   41 1
    37   18   19 1
    38   19   24 ar
    39   19   20 ar
    40   20   21 ar
    41   20   42 1
    42   21   22 ar
    43   21   43 1
    44   22   23 ar
    45   22   44 1
    46   23   24 ar
    47   23   45 1
    48   24   25 1
    49   26   46 1
@<TRIPOS>MOLECULE
ZINC01851149
   58    61     0     0     0
SMALL
USER_CHARGES

@<TRIPOS>ATOM
      1 C1         -0.0167    1.3781    0.0096 C.ar      1 <0>        -0.0896
      2 C2          1.1690    2.0873    0.0021 C.ar      1 <0>        -0.1006
      3 C3          2.3816    1.4109   -0.0131 C.ar      1 <0>         0.1668
      4 C4          2.3986    0.0211   -0.0208 C.ar      1 <0>        -0.0379
      5 C5          1.2084   -0.6828   -0.0132 C.ar      1 <0>        -0.0271
      6 C6          0.0021   -0.0041    0.0020 C.ar      1 <0>        -0.0892
      7 Cl1         1.2271   -2.4187   -0.0233 Cl        1 <0>        -0.0322
      8 Cl2         3.9117   -0.8297   -0.0404 Cl        1 <0>        -0.0503
      9 N1          3.5822    2.1260   -0.0212 N.pl3     1 <0>        -0.6733
     10 C7          4.2166    2.5248   -1.2872 C.3       1 <0>         0.1212
     11 C8          5.6874    2.0967   -1.2494 C.3       1 <0>        -0.0255
     12 N2          6.3270    2.6517   -0.0498 N.4       1 <0>        -0.3792
     13 C9          5.7166    2.0749    1.1547 C.3       1 <0>        -0.0318
     14 C10         4.2444    2.5067    1.2361 C.3       1 <0>         0.1223
     15 C11         7.7610    2.3338   -0.0701 C.3       1 <0>        -0.0093
     16 C12         8.4515    3.0158    1.1127 C.3       1 <0>        -0.1453
     17 C13         9.9450    2.6847    1.0915 C.3       1 <0>        -0.1184
     18 C14        10.6355    3.3667    2.2743 C.3       1 <0>         0.0595
     19 O1         12.0305    3.0574    2.2545 O.3       1 <0>        -0.3124
     20 C15        12.7944    3.5890    3.2448 C.ar      1 <0>         0.1559
     21 C16        12.2111    4.3876    4.2189 C.ar      1 <0>        -0.2294
     22 C17        12.9865    4.9295    5.2261 C.ar      1 <0>        -0.0411
     23 C18        14.3441    4.6777    5.2669 C.ar      1 <0>        -0.1551
     24 C19        14.9331    3.8788    4.2952 C.ar      1 <0>         0.2059
     25 C20        14.1552    3.3295    3.2858 C.ar      1 <0>        -0.1852
     26 N3         16.3074    3.6248    4.3397 N.am      1 <0>        -0.6651
     27 C21        17.0003    3.8176    5.4770 C.2       1 <0>         0.5216
     28 O2         18.1945    3.6066    5.4945 O.2       1 <0>        -0.5157
     29 C22        16.3105    4.2925    6.7275 C.3       1 <0>        -0.1402
     30 C23        15.1900    5.2680    6.3653 C.3       1 <0>        -0.0752
     31 H1         -0.9596    1.9044    0.0260 H         1 <0>         0.1477
     32 H2          1.1527    3.1672    0.0077 H         1 <0>         0.1420
     33 H3         -0.9265   -0.5556    0.0083 H         1 <0>         0.1502
     34 H4          3.7134    2.0333   -2.1198 H         1 <0>         0.1171
     35 H5          4.1529    3.6066   -1.4040 H         1 <0>         0.0851
     36 H6          5.7487    1.0088   -1.2236 H         1 <0>         0.1293
     37 H7          6.1971    2.4687   -2.1381 H         1 <0>         0.1401
     38 H8          5.7771    0.9876    1.1077 H         1 <0>         0.1300
     39 H9          6.2479    2.4307    2.0374 H         1 <0>         0.1398
     40 H10         4.1834    3.5868    1.3697 H         1 <0>         0.0853
     41 H11         3.7595    2.0032    2.0724 H         1 <0>         0.1165
     42 H12         7.8950    1.2546    0.0040 H         1 <0>         0.1305
     43 H13         8.1993    2.6912   -1.0020 H         1 <0>         0.1352
     44 H14         8.3175    4.0950    1.0386 H         1 <0>         0.0923
     45 H15         8.0132    2.6584    2.0445 H         1 <0>         0.0907
     46 H16        10.0790    1.6055    1.1656 H         1 <0>         0.0866
     47 H17        10.3833    3.0420    0.1597 H         1 <0>         0.0875
     48 H18        10.5015    4.4459    2.2002 H         1 <0>         0.0675
     49 H19        10.1972    3.0093    3.2062 H         1 <0>         0.0669
     50 H20        11.1499    4.5859    4.1893 H         1 <0>         0.1286
     51 H21        12.5305    5.5511    5.9824 H         1 <0>         0.1354
     52 H22        14.6099    2.7045    2.5314 H         1 <0>         0.1380
     53 H23        16.7645    3.3072    3.5453 H         1 <0>         0.4136
     54 H24        15.8894    3.4371    7.2558 H         1 <0>         0.1060
     55 H25        17.0331    4.7940    7.3713 H         1 <0>         0.1134
     56 H26        15.6229    6.2086    6.0246 H         1 <0>         0.0845
     57 H27        14.5699    5.4506    7.2429 H         1 <0>         0.0936
     58 H28         6.2073    3.6535   -0.0392 H         1 <0>         0.4226
@<TRIPOS>BOND
     1    1    6 ar
     2    1    2 ar
     3    1   31 1
     4    2    3 ar
     5    2   32 1
     6    3    4 ar
     7    3    9 1
     8    4    5 ar
     9    4    8 1
    10    5    6 ar
    11    5    7 1
    12    6   33 1
    13    9   14 1
    14    9   10 1
    15   10   11 1
    16   10   34 1
    17   10   35 1
    18   11   12 1
    19   11   36 1
    20   11   37 1
    21   12   13 1
    22   12   15 1
    23   12   58 1
    24   13   14 1
    25   13   38 1
    26   13   39 1
    27   14   40 1
    28   14   41 1
    29   15   16 1
    30   15   42 1
    31   15   43 1
    32   16   17 1
    33   16   44 1
    34   16   45 1
    35   17   18 1
    36   17   46 1
    37   17   47 1
    38   18   19 1
    39   18   48 1
    40   18   49 1
    41   19   20 1
    42   20   25 ar
    43   20   21 ar
    44   21   22 ar
    45   21   50 1
    46   22   23 ar
    47   22   51 1
    48   23   30 1
    49   23   24 ar
    50   24   25 ar
    51   24   26 1
    52   25   52 1
    53   26   27 am
    54   26   53 1
    55   27   28 2
    56   27   29 1
    57   29   30 1
    58   29   54 1
    59   29   55 1
    60   30   56 1
    61   30   57 1
@<TRIPOS>MOLECULE
ZINC01851149
   57    60     0     0     0
SMALL
USER_CHARGES

@<TRIPOS>ATOM
      1 C1         -0.0167    1.3781    0.0096 C.ar      1 <0>        -0.0962
      2 C2          1.1690    2.0873    0.0021 C.ar      1 <0>        -0.1094
      3 C3          2.3816    1.4109   -0.0131 C.ar      1 <0>         0.1932
      4 C4          2.3986    0.0211   -0.0208 C.ar      1 <0>        -0.0428
      5 C5          1.2084   -0.6828   -0.0132 C.ar      1 <0>        -0.0286
      6 C6          0.0021   -0.0041    0.0020 C.ar      1 <0>        -0.1045
      7 Cl1         1.2271   -2.4187   -0.0233 Cl        1 <0>        -0.0488
      8 Cl2         3.9117   -0.8297   -0.0404 Cl        1 <0>        -0.0433
      9 N1          3.5822    2.1260   -0.0212 N.pl3     1 <0>        -0.6753
     10 C7          4.2154    2.5239   -1.2877 C.3       1 <0>         0.1522
     11 C8          5.6814    2.0786   -1.2601 C.3       1 <0>         0.0390
     12 N2          6.3271    2.6054   -0.0504 N.3       1 <0>        -0.5335
     13 C9          5.7110    2.0562    1.1648 C.3       1 <0>         0.0352
     14 C10         4.2431    2.5059    1.2366 C.3       1 <0>         0.1520
     15 C11         7.7731    2.3471   -0.0705 C.3       1 <0>         0.0570
     16 C12         8.4448    3.1181    1.0676 C.3       1 <0>        -0.1122
     17 C13         9.9508    2.8491    1.0467 C.3       1 <0>        -0.1185
     18 C14        10.6225    3.6201    2.1847 C.3       1 <0>         0.0609
     19 O1         12.0291    3.3688    2.1652 O.3       1 <0>        -0.3131
     20 C15        12.7788    3.9828    3.1179 C.ar      1 <0>         0.1632
     21 C16        12.1712    4.8060    4.0560 C.ar      1 <0>        -0.2281
     22 C17        12.9321    5.4316    5.0250 C.ar      1 <0>        -0.0412
     23 C18        14.2995    5.2392    5.0634 C.ar      1 <0>        -0.1625
     24 C19        14.9129    4.4161    4.1277 C.ar      1 <0>         0.2001
     25 C20        14.1497    3.7829    3.1569 C.ar      1 <0>        -0.1880
     26 N3         16.2971    4.2225    4.1697 N.am      1 <0>        -0.6633
     27 C21        16.9915    4.5031    5.2876 C.2       1 <0>         0.5225
     28 O2         18.1937    4.3433    5.3024 O.2       1 <0>        -0.5237
     29 C22        16.2937    5.0132    6.5196 C.3       1 <0>        -0.1395
     30 C23        15.1296    5.9209    6.1201 C.3       1 <0>        -0.0723
     31 H1         -0.9596    1.9044    0.0260 H         1 <0>         0.1404
     32 H2          1.1527    3.1672    0.0077 H         1 <0>         0.1387
     33 H3         -0.9265   -0.5556    0.0083 H         1 <0>         0.1426
     34 H4          3.7022    2.0431   -2.1205 H         1 <0>         0.0715
     35 H5          4.1638    3.6071   -1.3984 H         1 <0>         0.0629
     36 H6          5.7306    0.9897   -1.2538 H         1 <0>         0.0403
     37 H7          6.1944    2.4613   -2.1423 H         1 <0>         0.0804
     38 H8          5.7599    0.9676    1.1373 H         1 <0>         0.0406
     39 H9          6.2457    2.4226    2.0412 H         1 <0>         0.0819
     40 H10         4.1941    3.5874    1.3639 H         1 <0>         0.0629
     41 H11         3.7483    2.0131    2.0736 H         1 <0>         0.0709
     42 H12         7.9533    1.2798    0.0578 H         1 <0>         0.0339
     43 H13         8.1873    2.6734   -1.0245 H         1 <0>         0.0769
     44 H14         8.2646    4.1855    0.9393 H         1 <0>         0.0762
     45 H15         8.0306    2.7918    2.0216 H         1 <0>         0.0660
     46 H16        10.1310    1.7817    1.1750 H         1 <0>         0.0732
     47 H17        10.3650    3.1754    0.0927 H         1 <0>         0.0761
     48 H18        10.4423    4.6874    2.0565 H         1 <0>         0.0659
     49 H19        10.2083    3.2938    3.1387 H         1 <0>         0.0641
     50 H20        11.1023    4.9580    4.0282 H         1 <0>         0.1320
     51 H21        12.4571    6.0722    5.7533 H         1 <0>         0.1337
     52 H22        14.6236    3.1389    2.4308 H         1 <0>         0.1367
     53 H23        16.7599    3.8832    3.3877 H         1 <0>         0.4126
     54 H24        15.9140    4.1697    7.0961 H         1 <0>         0.1050
     55 H25        17.0002    5.5774    7.1284 H         1 <0>         0.1106
     56 H26        15.5192    6.8597    5.7264 H         1 <0>         0.0818
     57 H27        14.5104    6.1229    6.9941 H         1 <0>         0.0917
@<TRIPOS>BOND
     1    1    6 ar
     2    1    2 ar
     3    1   31 1
     4    2    3 ar
     5    2   32 1
     6    3    4 ar
     7    3    9 1
     8    4    5 ar
     9    4    8 1
    10    5    6 ar
    11    5    7 1
    12    6   33 1
    13    9   14 1
    14    9   10 1
    15   10   11 1
    16   10   34 1
    17   10   35 1
    18   11   12 1
    19   11   36 1
    20   11   37 1
    21   12   13 1
    22   12   15 1
    23   13   14 1
    24   13   38 1
    25   13   39 1
    26   14   40 1
    27   14   41 1
    28   15   16 1
    29   15   42 1
    30   15   43 1
    31   16   17 1
    32   16   44 1
    33   16   45 1
    34   17   18 1
    35   17   46 1
    36   17   47 1
    37   18   19 1
    38   18   48 1
    39   18   49 1
    40   19   20 1
    41   20   25 ar
    42   20   21 ar
    43   21   22 ar
    44   21   50 1
    45   22   23 ar
    46   22   51 1
    47   23   30 1
    48   23   24 ar
    49   24   25 ar
    50   24   26 1
    51   25   52 1
    52   26   27 am
    53   26   53 1
    54   27   28 2
    55   27   29 1
    56   29   30 1
    57   29   54 1
    58   29   55 1
    59   30   56 1
    60   30   57 1
@<TRIPOS>MOLECULE
ZINC00000931
   39    42     0     0     0
SMALL
USER_CHARGES

@<TRIPOS>ATOM
      1 C1          0.0201    1.3826   -0.0725 C.ar      1 <0>        -0.1018
      2 C2          1.2084    2.0885   -0.0465 C.ar      1 <0>        -0.1052
      3 C3          2.4164    1.4141   -0.0074 C.ar      1 <0>        -0.1052
      4 C4          2.4435    0.0295   -0.0014 C.ar      1 <0>         0.0464
      5 C5          1.2475   -0.6897   -0.0511 C.ar      1 <0>         0.1074
      6 C6          0.0325    0.0025   -0.0730 C.ar      1 <0>        -0.0931
      7 N1          1.2308   -2.0505   -0.1194 N.2       1 <0>        -0.5601
      8 C7          1.9962   -2.8673    0.5177 C.2       1 <0>         0.4879
      9 C8          3.0721   -2.4786    1.4430 C.ar      1 <0>        -0.1478
     10 C9          3.2906   -3.2185    2.6071 C.ar      1 <0>        -0.0753
     11 C10         4.3147   -2.8688    3.4647 C.ar      1 <0>        -0.0483
     12 C11         5.1287   -1.7870    3.1741 C.ar      1 <0>        -0.0598
     13 C12         4.9157   -1.0427    2.0283 C.ar      1 <0>        -0.1109
     14 C13         3.8842   -1.3748    1.1654 C.ar      1 <0>         0.1439
     15 O1          3.6415   -0.6057    0.0749 O.3       1 <0>        -0.2613
     16 Cl1         4.5823   -3.7883    4.9126 Cl        1 <0>        -0.0419
     17 N2          1.7907   -4.2134    0.3169 N.pl3     1 <0>        -0.6162
     18 C14         0.6491   -4.6941   -0.4768 C.3       1 <0>         0.0996
     19 C15         1.1686   -5.6843   -1.5245 C.3       1 <0>        -0.0224
     20 N3          1.9325   -6.7458   -0.8569 N.4       1 <0>        -0.5049
     21 C16         3.1289   -6.1778   -0.2228 C.3       1 <0>        -0.0221
     22 C17         2.7098   -5.2119    0.8846 C.3       1 <0>         0.0822
     23 H1         -0.9208    1.9126   -0.0879 H         1 <0>         0.1380
     24 H2          1.1942    3.1683   -0.0570 H         1 <0>         0.1392
     25 H3          3.3419    1.9700    0.0182 H         1 <0>         0.1381
     26 H4         -0.8986   -0.5444   -0.0901 H         1 <0>         0.1352
     27 H5          2.6585   -4.0636    2.8366 H         1 <0>         0.1464
     28 H6          5.9333   -1.5238    3.8447 H         1 <0>         0.1548
     29 H7          5.5542   -0.2004    1.8062 H         1 <0>         0.1562
     30 H8         -0.0665   -5.1937    0.1762 H         1 <0>         0.0928
     31 H9          0.1689   -3.8520   -0.9751 H         1 <0>         0.1437
     32 H10         0.3260   -6.1237   -2.0585 H         1 <0>         0.1471
     33 H11         1.8136   -5.1613   -2.2305 H         1 <0>         0.1351
     34 H12         1.3556   -7.1822   -0.1535 H         1 <0>         0.4288
     35 H13         3.7309   -6.9809    0.2023 H         1 <0>         0.1490
     36 H14         3.7147   -5.6398   -0.9682 H         1 <0>         0.1359
     37 H15         3.5912   -4.7119    1.2860 H         1 <0>         0.1347
     38 H16         2.2058   -5.7646    1.6775 H         1 <0>         0.0994
     39 H17         2.2101   -7.4373   -1.5372 H         1 <0>         0.4348
@<TRIPOS>BOND
     1    1    6 ar
     2    1    2 ar
     3    1   23 1
     4    2    3 ar
     5    2   24 1
     6    3    4 ar
     7    3   25 1
     8    4   15 1
     9    4    5 ar
    10    5    6 ar
    11    5    7 1
    12    6   26 1
    13    7    8 2
    14    8    9 1
    15    8   17 1
    16    9   14 ar
    17    9   10 ar
    18   10   11 ar
    19   10   27 1
    20   11   12 ar
    21   11   16 1
    22   12   13 ar
    23   12   28 1
    24   13   14 ar
    25   13   29 1
    26   14   15 1
    27   17   22 1
    28   17   18 1
    29   18   19 1
    30   18   30 1
    31   18   31 1
    32   19   20 1
    33   19   32 1
    34   19   33 1
    35   20   21 1
    36   20   34 1
    37   20   39 1
    38   21   22 1
    39   21   35 1
    40   21   36 1
    41   22   37 1
    42   22   38 1
@<TRIPOS>MOLECULE
ZINC00000931
   38    41     0     0     0
SMALL
USER_CHARGES

@<TRIPOS>ATOM
      1 C1          0.0219    1.3829   -0.0764 C.ar      1 <0>        -0.1014
      2 C2          1.2103    2.0885   -0.0488 C.ar      1 <0>        -0.1247
      3 C3          2.4181    1.4139   -0.0077 C.ar      1 <0>        -0.1034
      4 C4          2.4449    0.0293   -0.0014 C.ar      1 <0>         0.0323
      5 C5          1.2488   -0.6897   -0.0527 C.ar      1 <0>         0.1355
      6 C6          0.0341    0.0028   -0.0766 C.ar      1 <0>        -0.1066
      7 N1          1.2319   -2.0504   -0.1207 N.2       1 <0>        -0.5903
      8 C7          1.9962   -2.8673    0.5177 C.2       1 <0>         0.4964
      9 C8          3.0708   -2.4786    1.4446 C.ar      1 <0>        -0.1399
     10 C9          3.2874   -3.2183    2.6091 C.ar      1 <0>        -0.0632
     11 C10         4.3103   -2.8686    3.4681 C.ar      1 <0>        -0.0508
     12 C11         5.1250   -1.7871    3.1785 C.ar      1 <0>        -0.0664
     13 C12         4.9138   -1.0430    2.0323 C.ar      1 <0>        -0.1185
     14 C13         3.8836   -1.3750    1.1679 C.ar      1 <0>         0.1423
     15 O1          3.6427   -0.6061    0.0768 O.3       1 <0>        -0.2619
     16 Cl1         4.5755   -3.7879    4.9167 Cl        1 <0>        -0.0512
     17 N2          1.7907   -4.2134    0.3169 N.pl3     1 <0>        -0.5922
     18 C14         2.7070   -5.2108    0.8902 C.3       1 <0>         0.1096
     19 C15         3.1460   -6.1662   -0.2245 C.3       1 <0>         0.0416
     20 N3          1.9574   -6.7220   -0.8850 N.3       1 <0>        -0.6891
     21 C16         1.1689   -5.6684   -1.5378 C.3       1 <0>         0.0413
     22 C17         0.6454   -4.6928   -0.4717 C.3       1 <0>         0.1256
     23 H1         -0.9188    1.9131   -0.0933 H         1 <0>         0.1315
     24 H2          1.1963    3.1684   -0.0596 H         1 <0>         0.1321
     25 H3          3.3437    1.9696    0.0191 H         1 <0>         0.1320
     26 H4         -0.8972   -0.5439   -0.0949 H         1 <0>         0.1326
     27 H5          2.6548   -4.0632    2.8378 H         1 <0>         0.1493
     28 H6          5.9287   -1.5239    3.8503 H         1 <0>         0.1498
     29 H7          5.5529   -0.2009    1.8109 H         1 <0>         0.1514
     30 H8          3.5801   -4.7088    1.3072 H         1 <0>         0.0932
     31 H9          2.1952   -5.7714    1.6724 H         1 <0>         0.0814
     32 H10         3.7466   -5.6226   -0.9539 H         1 <0>         0.0371
     33 H11         3.7370   -6.9763    0.2026 H         1 <0>         0.0908
     34 H12         1.7970   -5.1317   -2.2488 H         1 <0>         0.0370
     35 H13         0.3260   -6.1175   -2.0631 H         1 <0>         0.0889
     36 H14        -0.0608   -5.2046    0.1821 H         1 <0>         0.0736
     37 H15         0.1549   -3.8483   -0.9557 H         1 <0>         0.1056
     38 H16         2.2132   -7.4426   -1.5433 H         1 <0>         0.3485
@<TRIPOS>BOND
     1    1    6 ar
     2    1    2 ar
     3    1   23 1
     4    2    3 ar
     5    2   24 1
     6    3    4 ar
     7    3   25 1
     8    4   15 1
     9    4    5 ar
    10    5    6 ar
    11    5    7 1
    12    6   26 1
    13    7    8 2
    14    8    9 1
    15    8   17 1
    16    9   14 ar
    17    9   10 ar
    18   10   11 ar
    19   10   27 1
    20   11   12 ar
    21   11   16 1
    22   12   13 ar
    23   12   28 1
    24   13   14 ar
    25   13   29 1
    26   14   15 1
    27   17   22 1
    28   17   18 1
    29   18   19 1
    30   18   30 1
    31   18   31 1
    32   19   20 1
    33   19   32 1
    34   19   33 1
    35   20   21 1
    36   20   38 1
    37   21   22 1
    38   21   34 1
    39   21   35 1
    40   22   36 1
    41   22   37 1
@<TRIPOS>MOLECULE
ZINC00007275
   54    55     0     0     0
SMALL
USER_CHARGES

@<TRIPOS>ATOM
      1 C1         -0.0184    1.5028    0.0103 C.3       1 <0>        -0.1254
      2 C2          0.0021   -0.0041    0.0020 C.ar      1 <0>        -0.0948
      3 C3          0.0057   -0.6888   -1.1991 C.ar      1 <0>        -0.0651
      4 C4          0.0245   -2.0707   -1.2067 C.ar      1 <0>        -0.1388
      5 C5          0.0400   -2.7685   -0.0132 C.ar      1 <0>        -0.0439
      6 C6          0.0373   -2.0840    1.1875 C.ar      1 <0>        -0.6797
      7 C7          0.0229   -0.7015    1.1951 C.ar      1 <0>        -0.0214
      8 S1          0.0566   -2.9732    2.7086 S.o2      1 <0>         2.6793
      9 O1         -0.5005   -2.1103    3.6906 O.2       1 <0>        -0.9372
     10 O2         -0.4791   -4.2603    2.4334 O.2       1 <0>        -0.9424
     11 N1          1.6437   -3.1998    3.1232 N.pl3     1 <0>        -1.0026
     12 C8          2.3349   -2.2048    3.9470 C.3       1 <0>         0.0839
     13 C9          2.3567   -4.3952    2.6662 C.3       1 <0>         0.1495
     14 H1          1.6849   -5.0135    2.0707 H         1 <0>         0.1127
     15 C10         2.8442   -5.1926    3.8776 C.3       1 <0>        -0.1638
     16 C11         3.5567   -3.9785    1.8134 C.3       1 <0>        -0.1626
     17 C12         3.0626   -3.2902    0.5395 C.3       1 <0>        -0.0272
     18 N2          4.2148   -2.8901   -0.2793 N.4       1 <0>        -0.3789
     19 C13         4.9969   -1.8780    0.4407 C.3       1 <0>        -0.0126
     20 C14         6.2421   -1.5169   -0.3720 C.3       1 <0>        -0.1419
     21 C15         5.8132   -0.9601   -1.7327 C.3       1 <0>        -0.1038
     22 C16         4.9363   -1.9951   -2.4433 C.3       1 <0>        -0.1418
     23 C17         3.7395   -2.3385   -1.5538 C.3       1 <0>        -0.0087
     24 C18         7.0532   -0.6711   -2.5811 C.3       1 <0>        -0.1539
     25 H2          1.0042    1.8801    0.0026 H         1 <0>         0.0761
     26 H3         -0.5455    1.8639   -0.8728 H         1 <0>         0.0759
     27 H4         -0.5286    1.8543    0.9071 H         1 <0>         0.0768
     28 H5         -0.0064   -0.1437   -2.1314 H         1 <0>         0.1355
     29 H6          0.0266   -2.6056   -2.1449 H         1 <0>         0.1368
     30 H7          0.0540   -3.8484   -0.0191 H         1 <0>         0.1406
     31 H8          0.0246   -0.1666    2.1333 H         1 <0>         0.1430
     32 H9          2.2132   -2.4575    5.0003 H         1 <0>         0.0727
     33 H10         3.3954   -2.1980    3.6951 H         1 <0>         0.0735
     34 H11         1.9103   -1.2188    3.7584 H         1 <0>         0.0772
     35 H12         1.9893   -5.4895    4.4851 H         1 <0>         0.0751
     36 H13         3.3746   -6.0820    3.5375 H         1 <0>         0.0762
     37 H14         3.5159   -4.5744    4.4731 H         1 <0>         0.0683
     38 H15         4.1828   -3.2889    2.3796 H         1 <0>         0.0983
     39 H16         4.1375   -4.8617    1.5473 H         1 <0>         0.1056
     40 H17         2.4365   -3.9798   -0.0267 H         1 <0>         0.1332
     41 H18         2.4818   -2.4070    0.8056 H         1 <0>         0.1297
     42 H19         4.3882   -0.9858    0.5876 H         1 <0>         0.1268
     43 H20         5.2987   -2.2745    1.4101 H         1 <0>         0.1320
     44 H21         6.8206   -0.7640    0.1634 H         1 <0>         0.1124
     45 H22         6.8518   -2.4083   -0.5194 H         1 <0>         0.0892
     46 H23         5.2467   -0.0402   -1.5879 H         1 <0>         0.0873
     47 H24         4.5814   -1.5841   -3.3884 H         1 <0>         0.1124
     48 H25         5.5189   -2.8965   -2.6336 H         1 <0>         0.0893
     49 H26         3.1130   -3.0751   -2.0568 H         1 <0>         0.1305
     50 H27         3.1576   -1.4365   -1.3644 H         1 <0>         0.1265
     51 H28         7.6162   -1.5928   -2.7275 H         1 <0>         0.0624
     52 H29         6.7467   -0.2749   -3.5492 H         1 <0>         0.0673
     53 H30         7.6800    0.0604   -2.0711 H         1 <0>         0.0675
     54 H31         4.7950   -3.6960   -0.4582 H         1 <0>         0.4230
@<TRIPOS>BOND
     1    1    2 1
     2    1   25 1
     3    1   26 1
     4    1   27 1
     5    2    7 ar
     6    2    3 ar
     7    3    4 ar
     8    3   28 1
     9    4    5 ar
    10    4   29 1
    11    5    6 ar
    12    5   30 1
    13    6    7 ar
    14    6    8 1
    15    7   31 1
    16    8    9 2
    17    8   10 2
    18    8   11 1
    19   11   12 1
    20   11   13 1
    21   12   32 1
    22   12   33 1
    23   12   34 1
    24   13   14 1
    25   13   15 1
    26   13   16 1
    27   15   35 1
    28   15   36 1
    29   15   37 1
    30   16   17 1
    31   16   38 1
    32   16   39 1
    33   17   18 1
    34   17   40 1
    35   17   41 1
    36   18   23 1
    37   18   19 1
    38   18   54 1
    39   19   20 1
    40   19   42 1
    41   19   43 1
    42   20   21 1
    43   20   44 1
    44   20   45 1
    45   21   22 1
    46   21   24 1
    47   21   46 1
    48   22   23 1
    49   22   47 1
    50   22   48 1
    51   23   49 1
    52   23   50 1
    53   24   51 1
    54   24   52 1
    55   24   53 1
@<TRIPOS>MOLECULE
ZINC02022527
   54    55     0     0     0
SMALL
USER_CHARGES

@<TRIPOS>ATOM
      1 C1         -3.0730    2.2881   -4.2693 C.3       1 <0>        -0.1569
      2 C2         -2.3049    1.5870   -3.1471 C.3       1 <0>        -0.1270
      3 C3         -2.8110    2.0874   -1.7927 C.3       1 <0>        -0.1231
      4 C4         -2.0429    1.3862   -0.6705 C.3       1 <0>        -0.1174
      5 C5         -2.5490    1.8867    0.6839 C.3       1 <0>        -0.1006
      6 C6         -2.2117    3.3722    0.8391 C.3       1 <0>        -0.1451
      7 C7         -2.6658    3.8518    2.2196 C.3       1 <0>        -0.0114
      8 C8         -2.3347    1.6429    3.1595 C.3       1 <0>        -0.0001
      9 C9         -1.8707    1.0973    1.8070 C.3       1 <0>        -0.1442
     10 C10        -2.2939    3.5901    4.5974 C.3       1 <0>        -0.0052
     11 C11        -2.1583    5.1140    4.5919 C.3       1 <0>        -0.1459
     12 C12        -2.4764    5.6593    5.9856 C.3       1 <0>        -0.1543
     13 C13        -2.3428    7.1604    5.9803 C.2       1 <0>         0.3987
     14 O1         -2.0245    7.7371    4.9623 O.2       1 <0>        -0.4456
     15 C14        -2.5986    7.9263    7.2106 C.ar      1 <0>        -0.1885
     16 C15        -3.0878    7.2813    8.3513 C.ar      1 <0>        -0.0705
     17 C16        -3.3195    8.0047    9.5018 C.ar      1 <0>        -0.1389
     18 C17        -3.0801    9.3679    9.5265 C.ar      1 <0>        -0.0729
     19 C18        -2.6016   10.0143    8.4004 C.ar      1 <0>        -0.1345
     20 C19        -2.3594    9.3036    7.2436 C.ar      1 <0>        -0.0178
     21 C20        -1.8387   10.0095    6.0182 C.3       1 <0>        -0.1264
     22 H1         -4.1363    2.0676   -4.1746 H         1 <0>         0.0549
     23 H2         -2.9175    3.3647   -4.1985 H         1 <0>         0.0540
     24 H3         -2.7125    1.9316   -5.2342 H         1 <0>         0.0581
     25 H4         -1.2417    1.8075   -3.2417 H         1 <0>         0.0621
     26 H5         -2.4605    0.5104   -3.2179 H         1 <0>         0.0631
     27 H6         -3.8743    1.8669   -1.6981 H         1 <0>         0.0644
     28 H7         -2.6555    3.1639   -1.7219 H         1 <0>         0.0632
     29 H8         -2.1984    0.3097   -0.7413 H         1 <0>         0.0733
     30 H9         -0.9796    1.6067   -0.7651 H         1 <0>         0.0688
     31 H10        -3.6287    1.7492    0.7427 H         1 <0>         0.0884
     32 H11        -1.1354    3.5132    0.7407 H         1 <0>         0.0881
     33 H12        -2.7264    3.9447    0.0675 H         1 <0>         0.1133
     34 H13        -3.7442    3.7233    2.3122 H         1 <0>         0.1295
     35 H14        -2.4142    4.9057    2.3388 H         1 <0>         0.1342
     36 H15        -3.4146    1.5248    3.2476 H         1 <0>         0.1293
     37 H16        -1.8426    1.0924    3.9613 H         1 <0>         0.1282
     38 H17        -2.1418    0.0446    1.7270 H         1 <0>         0.1118
     39 H18        -0.7890    1.2025    1.7239 H         1 <0>         0.0880
     40 H19        -3.3133    3.3170    4.8704 H         1 <0>         0.1315
     41 H20        -1.5979    3.1659    5.3211 H         1 <0>         0.1302
     42 H21        -1.1389    5.3871    4.3190 H         1 <0>         0.0944
     43 H22        -2.8542    5.5382    3.8682 H         1 <0>         0.0968
     44 H23        -3.4115    5.4088    6.2361 H         1 <0>         0.0981
     45 H24        -1.7805    5.2352    6.7093 H         1 <0>         0.1100
     46 H25        -3.2793    6.2186    8.3321 H         1 <0>         0.1290
     47 H26        -3.6933    7.5074   10.3846 H         1 <0>         0.1322
     48 H27        -3.2682    9.9300   10.4293 H         1 <0>         0.1326
     49 H28        -2.4176   11.0782    8.4274 H         1 <0>         0.1332
     50 H29        -2.6709   10.2515    5.3572 H         1 <0>         0.0784
     51 H30        -1.3321   10.9277    6.3156 H         1 <0>         0.0652
     52 H31        -1.1365    9.3600    5.4956 H         1 <0>         0.0893
     53 N1         -1.9588    3.0696    3.2558 N.4       1 <0>        -0.3931
     54 H32        -0.9467    3.1581    3.1071 H         1 <0>         0.4272
@<TRIPOS>BOND
     1    1    2 1
     2    1   22 1
     3    1   23 1
     4    1   24 1
     5    2    3 1
     6    2   25 1
     7    2   26 1
     8    3    4 1
     9    3   27 1
    10    3   28 1
    11    4    5 1
    12    4   29 1
    13    4   30 1
    14    5    9 1
    15    5    6 1
    16    5   31 1
    17    6    7 1
    18    6   32 1
    19    6   33 1
    20    7   34 1
    21    7   35 1
    22    7   53 1
    23    8    9 1
    24    8   36 1
    25    8   37 1
    26    8   53 1
    27    9   38 1
    28    9   39 1
    29   10   11 1
    30   10   40 1
    31   10   41 1
    32   10   53 1
    33   11   12 1
    34   11   42 1
    35   11   43 1
    36   12   13 1
    37   12   44 1
    38   12   45 1
    39   13   14 2
    40   13   15 1
    41   15   20 ar
    42   15   16 ar
    43   16   17 ar
    44   16   46 1
    45   17   18 ar
    46   17   47 1
    47   18   19 ar
    48   18   48 1
    49   19   20 ar
    50   19   49 1
    51   20   21 1
    52   21   50 1
    53   21   51 1
    54   21   52 1
    55   53   54 1
@<TRIPOS>MOLECULE
ZINC04393149
   55    57     0     0     0
SMALL
USER_CHARGES

@<TRIPOS>ATOM
      1 C1         -0.4267    1.0163   -0.1353 C.3       1 <0>        -0.1198
      2 C2         -0.2532   -0.4790   -0.0656 C.ar      1 <0>        -0.1025
      3 C3         -0.1950   -1.2232   -1.2293 C.ar      1 <0>        -0.0589
      4 C4         -0.0358   -2.5946   -1.1653 C.ar      1 <0>        -0.1294
      5 C5          0.0656   -3.2223    0.0624 C.ar      1 <0>        -0.0257
      6 C6          0.0084   -2.4782    1.2257 C.ar      1 <0>        -0.6770
      7 C7         -0.1465   -1.1059    1.1616 C.ar      1 <0>        -0.0270
      8 S1          0.1371   -3.2782    2.7904 S.o2      1 <0>         2.7075
      9 O1         -0.4924   -2.4245    3.7360 O.2       1 <0>        -0.9593
     10 O2         -0.2682   -4.6256    2.5922 O.2       1 <0>        -0.9405
     11 N1          1.7442   -3.3209    3.1877 N.pl3     1 <0>        -1.0072
     12 C8          2.6650   -4.4416    2.9239 C.3       1 <0>         0.1165
     13 C9          4.0733   -3.7976    2.8872 C.3       1 <0>        -0.1317
     14 C10         3.9520   -2.7199    3.9968 C.3       1 <0>        -0.1325
     15 C11         2.4905   -2.2449    3.8561 C.3       1 <0>         0.1594
     16 H1          2.4502   -1.3368    3.2547 H         1 <0>         0.0870
     17 C12         1.8960   -1.9820    5.2412 C.3       1 <0>        -0.1914
     18 C13         2.6255   -0.8065    5.8945 C.3       1 <0>        -0.0061
     19 N2          2.1437   -0.6356    7.2717 N.4       1 <0>        -0.3820
     20 C14         0.7252   -0.2591    7.2491 C.3       1 <0>        -0.0152
     21 C15         0.1972   -0.1589    8.6818 C.3       1 <0>        -0.1428
     22 C16         0.9969    0.9034    9.4415 C.3       1 <0>        -0.1045
     23 C17         2.4837    0.5393    9.3950 C.3       1 <0>        -0.1433
     24 C18         2.9269    0.4132    7.9359 C.3       1 <0>        -0.0061
     25 C19         0.5277    0.9533   10.8970 C.3       1 <0>        -0.1540
     26 H2          0.5520    1.4939   -0.1810 H         1 <0>         0.0754
     27 H3         -0.9989    1.2745   -1.0264 H         1 <0>         0.0744
     28 H4         -0.9587    1.3621    0.7510 H         1 <0>         0.0705
     29 H5         -0.2742   -0.7329   -2.1883 H         1 <0>         0.1356
     30 H6          0.0089   -3.1761   -2.0744 H         1 <0>         0.1384
     31 H7          0.1893   -4.2940    0.1124 H         1 <0>         0.1404
     32 H8         -0.1875   -0.5240    2.0706 H         1 <0>         0.1348
     33 H9          2.6054   -5.1782    3.7252 H         1 <0>         0.0786
     34 H10         2.4343   -4.9043    1.9643 H         1 <0>         0.0844
     35 H11         4.8436   -4.5281    3.1347 H         1 <0>         0.0917
     36 H12         4.2684   -3.3397    1.9175 H         1 <0>         0.0821
     37 H13         4.1263   -3.1572    4.9799 H         1 <0>         0.0812
     38 H14         4.6421   -1.8966    3.8120 H         1 <0>         0.0877
     39 H15         0.8371   -1.7431    5.1427 H         1 <0>         0.1216
     40 H16         2.0118   -2.8712    5.8609 H         1 <0>         0.0944
     41 H17         3.6972   -1.0053    5.9065 H         1 <0>         0.1327
     42 H18         2.4310    0.1030    5.3261 H         1 <0>         0.1320
     43 H19         0.6135    0.7050    6.7529 H         1 <0>         0.1292
     44 H20         0.1579   -1.0144    6.7053 H         1 <0>         0.1373
     45 H21        -0.8556    0.1225    8.6629 H         1 <0>         0.1125
     46 H22         0.3082   -1.1226    9.1788 H         1 <0>         0.0878
     47 H23         0.8453    1.8767    8.9749 H         1 <0>         0.0882
     48 H24         3.0651    1.3197    9.8859 H         1 <0>         0.1119
     49 H25         2.6421   -0.4100    9.9069 H         1 <0>         0.0880
     50 H26         3.9850    0.1542    7.8991 H         1 <0>         0.1299
     51 H27         2.7683    1.3630    7.4251 H         1 <0>         0.1283
     52 H28         0.6835   -0.0199   11.3625 H         1 <0>         0.0617
     53 H29         1.0975    1.7097   11.4367 H         1 <0>         0.0669
     54 H30        -0.5323    1.2056   10.9285 H         1 <0>         0.0674
     55 H31         2.2512   -1.5037    7.7747 H         1 <0>         0.4220
@<TRIPOS>BOND
     1    1    2 1
     2    1   26 1
     3    1   27 1
     4    1   28 1
     5    2    7 ar
     6    2    3 ar
     7    3    4 ar
     8    3   29 1
     9    4    5 ar
    10    4   30 1
    11    5    6 ar
    12    5   31 1
    13    6    7 ar
    14    6    8 1
    15    7   32 1
    16    8    9 2
    17    8   10 2
    18    8   11 1
    19   11   15 1
    20   11   12 1
    21   12   13 1
    22   12   33 1
    23   12   34 1
    24   13   14 1
    25   13   35 1
    26   13   36 1
    27   14   15 1
    28   14   37 1
    29   14   38 1
    30   15   16 1
    31   15   17 1
    32   17   18 1
    33   17   39 1
    34   17   40 1
    35   18   19 1
    36   18   41 1
    37   18   42 1
    38   19   24 1
    39   19   20 1
    40   19   55 1
    41   20   21 1
    42   20   43 1
    43   20   44 1
    44   21   22 1
    45   21   45 1
    46   21   46 1
    47   22   23 1
    48   22   25 1
    49   22   47 1
    50   23   24 1
    51   23   48 1
    52   23   49 1
    53   24   50 1
    54   24   51 1
    55   25   52 1
    56   25   53 1
    57   25   54 1
@<TRIPOS>MOLECULE
ZINC03820936
   49    53     0     0     0
SMALL
USER_CHARGES
3-(1-naphthylsulfonyl)-5-piperazin-1-yl-1H-indazole
@<TRIPOS>ATOM
      1 C1          5.9965    0.8739   -4.4161 C.ar      1 <0>        -0.1193
      2 C2          5.9834    1.3070   -3.0914 C.ar      1 <0>        -0.0775
      3 C3          5.1017    0.7890   -2.1934 C.ar      1 <0>        -0.1462
      4 C4          4.1889   -0.1974   -2.6048 C.ar      1 <0>         0.0279
      5 C5          4.2021   -0.6376   -3.9521 C.ar      1 <0>        -0.0744
      6 C6          5.1278   -0.0794   -4.8504 C.ar      1 <0>        -0.0906
      7 C7          3.2901   -1.6241   -4.3634 C.ar      1 <0>        -0.0295
      8 C8          2.4084   -2.1426   -3.4652 C.ar      1 <0>        -0.1526
      9 C9          2.3999   -1.7147   -2.1393 C.ar      1 <0>         0.0161
     10 C10         3.2644   -0.7564   -1.7065 C.ar      1 <0>        -0.6561
     11 S1          3.2291   -0.2250   -0.0269 S.o2      1 <0>         2.6121
     12 O1          4.5709   -0.2631    0.4394 O.2       1 <0>        -0.9054
     13 O2          2.1819   -0.9477    0.6058 O.2       1 <0>        -0.9223
     14 C11         2.7437    1.4688   -0.0265 C.2       1 <0>        -0.4566
     15 C12         1.3740    1.9706   -0.0686 C.ar      1 <0>        -0.0927
     16 C13         0.1165    1.3578   -0.1181 C.ar      1 <0>        -0.0593
     17 C14        -1.0196    2.1410   -0.1538 C.ar      1 <0>         0.0632
     18 C15        -0.9172    3.5326   -0.1301 C.ar      1 <0>        -0.1119
     19 C16         0.3033    4.1418   -0.0819 C.ar      1 <0>        -0.0966
     20 C17         1.4657    3.3752   -0.0504 C.ar      1 <0>         0.1150
     21 N1          2.8026    3.6824   -0.0007 N.pl3     1 <0>        -0.4783
     22 H1          3.1853    4.6060    0.0225 H         1 <0>         0.4591
     23 N2          3.5435    2.4962    0.0123 N.2       1 <0>        -0.1040
     24 N3         -2.2806    1.5366   -0.2092 N.pl3     1 <0>        -0.4821
     25 C18        -2.4696    0.6086    0.9145 C.3       1 <0>         0.0176
     26 C19        -3.8246   -0.0891    0.7741 C.3       1 <0>         0.0007
     27 C20        -4.7028    1.8487   -0.3802 C.3       1 <0>         0.0015
     28 C21        -3.3478    2.5464   -0.2398 C.3       1 <0>         0.0175
     29 H2          6.7071    1.3010   -5.1083 H         1 <0>         0.1327
     30 H3          6.6837    2.0649   -2.7726 H         1 <0>         0.1333
     31 H4          5.1031    1.1344   -1.1701 H         1 <0>         0.1392
     32 H5          5.1498   -0.4054   -5.8797 H         1 <0>         0.1358
     33 H6          3.2884   -1.9689   -5.3869 H         1 <0>         0.1407
     34 H7          1.7084   -2.9008   -3.7840 H         1 <0>         0.1397
     35 H8          1.6932   -2.1459   -1.4457 H         1 <0>         0.1478
     36 H9          0.0360    0.2809   -0.1328 H         1 <0>         0.1485
     37 H10        -1.8136    4.1344   -0.1539 H         1 <0>         0.1402
     38 H11         0.3678    5.2198   -0.0685 H         1 <0>         0.1407
     39 H12        -1.6744   -0.1368    0.9083 H         1 <0>         0.1332
     40 H13        -2.4415    1.1630    1.8526 H         1 <0>         0.0719
     41 H14        -3.9796   -0.7564    1.6218 H         1 <0>         0.1426
     42 H15        -3.8427   -0.6655   -0.1509 H         1 <0>         0.1418
     43 H16        -5.4980    2.5941   -0.3740 H         1 <0>         0.1411
     44 H17        -4.7310    1.2947   -1.3185 H         1 <0>         0.1410
     45 H18        -3.3297    3.1228    0.6851 H         1 <0>         0.0724
     46 H19        -3.1926    3.2140   -1.0874 H         1 <0>         0.1298
     47 N4         -4.8993    0.9212    0.7500 N.4       1 <0>        -0.5194
     48 H20        -4.8863    1.4509    1.6294 H         1 <0>         0.4314
     49 H21        -5.8056    0.4496    0.6479 H         1 <0>         0.4403
@<TRIPOS>BOND
     1    1    6 ar
     2    1    2 ar
     3    1   29 1
     4    2    3 ar
     5    2   30 1
     6    3    4 ar
     7    3   31 1
     8    4   10 ar
     9    4    5 ar
    10    5    6 ar
    11    5    7 ar
    12    6   32 1
    13    7    8 ar
    14    7   33 1
    15    8    9 ar
    16    8   34 1
    17    9   10 ar
    18    9   35 1
    19   10   11 1
    20   11   12 2
    21   11   13 2
    22   11   14 1
    23   14   23 2
    24   14   15 1
    25   15   20 ar
    26   15   16 ar
    27   16   17 ar
    28   16   36 1
    29   17   18 ar
    30   17   24 1
    31   18   19 ar
    32   18   37 1
    33   19   20 ar
    34   19   38 1
    35   20   21 1
    36   21   22 1
    37   21   23 1
    38   24   28 1
    39   24   25 1
    40   25   26 1
    41   25   39 1
    42   25   40 1
    43   26   41 1
    44   26   42 1
    45   26   47 1
    46   27   28 1
    47   27   43 1
    48   27   44 1
    49   27   47 1
    50   28   45 1
    51   28   46 1
    52   47   48 1
    53   47   49 1
@<TRIPOS>MOLECULE
ZINC43172197
   65    69     0     0     0
SMALL
USER_CHARGES

@<TRIPOS>ATOM
      1 C1         -0.0286    1.3393   -0.2252 C.ar      1 <0>        -0.1263
      2 C2          1.1459    2.0527   -0.4528 C.ar      1 <0>        -0.0786
      3 C3          2.3554    1.4279   -0.4646 C.ar      1 <0>        -0.1141
      4 C4          2.4267    0.0417   -0.2440 C.ar      1 <0>         0.1749
      5 C5          1.2312   -0.6814   -0.0123 C.ar      1 <0>        -0.1379
      6 C6          0.0015   -0.0049   -0.0076 C.ar      1 <0>        -0.0808
      7 C7          1.3022   -2.0719    0.2091 C.ar      1 <0>        -0.0101
      8 C8          2.5277   -2.6669    0.1908 C.ar      1 <0>        -0.2219
      9 C9          3.6751   -1.8960   -0.0441 C.ar      1 <0>         0.4164
     10 N1          3.6022   -0.5969   -0.2499 N.ar      1 <0>        -0.5364
     11 N2          4.9157   -2.5156   -0.0597 N.pl3     1 <0>        -0.6257
     12 C10         6.1561   -1.7247   -0.0617 C.3       1 <0>         0.1039
     13 C11         7.0550   -2.2339   -1.1933 C.3       1 <0>        -0.0206
     14 N3          7.2586   -3.6802   -1.0422 N.4       1 <0>        -0.3833
     15 C12         5.9807   -4.3848   -1.2054 C.3       1 <0>        -0.0267
     16 C13         5.0286   -3.9823   -0.0687 C.3       1 <0>         0.1029
     17 C14         8.2075   -4.1484   -2.0613 C.3       1 <0>        -0.0096
     18 C15         8.5167   -5.6286   -1.8285 C.3       1 <0>        -0.1518
     19 C16         9.5049   -6.1163   -2.8898 C.3       1 <0>        -0.1004
     20 C17         9.8142   -7.5965   -2.6570 C.3       1 <0>        -0.0665
     21 C18        10.7876   -8.0768   -3.7024 C.2       1 <0>         0.3883
     22 N4         11.2199   -7.2407   -4.6041 N.2       1 <0>        -0.5267
     23 C19        12.0886   -7.6100   -5.5588 C.2       1 <0>         0.1766
     24 C20        12.5410   -8.8863   -5.5890 C.2       1 <0>        -0.2302
     25 C21        12.0683   -9.7969   -4.6145 C.2       1 <0>         0.5018
     26 O1         12.4462  -10.9567   -4.6149 O.2       1 <0>        -0.5281
     27 N5         11.1974   -9.3604   -3.6824 N.am      1 <0>        -0.3603
     28 N6         10.7293  -10.2158   -2.7257 N.3       1 <0>        -0.6050
     29 C22        13.5308   -9.3829   -6.6065 C.3       1 <0>        -0.0570
     30 C23        13.5949   -8.4333   -7.8017 C.3       1 <0>        -0.1220
     31 C24        13.7948   -7.0072   -7.2746 C.3       1 <0>        -0.1228
     32 C25        12.5148   -6.5724   -6.5633 C.3       1 <0>        -0.0691
     33 H1         -0.9750    1.8595   -0.2168 H         1 <0>         0.1319
     34 H2          1.0963    3.1180   -0.6228 H         1 <0>         0.1338
     35 H3          3.2568    1.9953   -0.6433 H         1 <0>         0.1347
     36 H4         -0.9158   -0.5472    0.1681 H         1 <0>         0.1329
     37 H5          0.4081   -2.6505    0.3889 H         1 <0>         0.1459
     38 H6          2.6152   -3.7304    0.3574 H         1 <0>         0.1363
     39 H7          5.9200   -0.6734   -0.2263 H         1 <0>         0.1390
     40 H8          6.6674   -1.8431    0.8937 H         1 <0>         0.0867
     41 H9          6.5802   -2.0320   -2.1534 H         1 <0>         0.1327
     42 H10         8.0179   -1.7249   -1.1496 H         1 <0>         0.1417
     43 H11         5.5384   -4.1179   -2.1652 H         1 <0>         0.1337
     44 H12         6.1519   -5.4608   -1.1707 H         1 <0>         0.1443
     45 H13         5.4280   -4.3247    0.8860 H         1 <0>         0.0939
     46 H14         4.0467   -4.4242   -0.2380 H         1 <0>         0.1277
     47 H15         7.7700   -4.0200   -3.0514 H         1 <0>         0.1314
     48 H16         9.1286   -3.5697   -1.9932 H         1 <0>         0.1343
     49 H17         8.9541   -5.7571   -0.8384 H         1 <0>         0.0888
     50 H18         7.5955   -6.2073   -1.8966 H         1 <0>         0.0887
     51 H19         9.0675   -5.9878   -3.8799 H         1 <0>         0.0879
     52 H20        10.4261   -5.5376   -2.8217 H         1 <0>         0.0869
     53 H21        10.2516   -7.7249   -1.6669 H         1 <0>         0.0970
     54 H22         8.8930   -8.1752   -2.7251 H         1 <0>         0.1094
     55 H23        11.1245  -11.1372   -2.8399 H         1 <0>         0.3897
     56 H24        10.9101   -9.8570   -1.8002 H         1 <0>         0.3573
     57 H25        14.5168   -9.4487   -6.1464 H         1 <0>         0.0780
     58 H26        13.2281  -10.3723   -6.9494 H         1 <0>         0.0820
     59 H27        14.4313   -8.7078   -8.4445 H         1 <0>         0.0780
     60 H28        12.6638   -8.4893   -8.3657 H         1 <0>         0.0684
     61 H29        14.6289   -6.9887   -6.5732 H         1 <0>         0.0695
     62 H30        13.9992   -6.3336   -8.1068 H         1 <0>         0.0799
     63 H31        11.7223   -6.4381   -7.2996 H         1 <0>         0.0922
     64 H32        12.6920   -5.6271   -6.0505 H         1 <0>         0.0900
     65 H33         7.6323   -3.8721   -0.1248 H         1 <0>         0.4223
@<TRIPOS>BOND
     1    1    6 ar
     2    1    2 ar
     3    1   33 1
     4    2    3 ar
     5    2   34 1
     6    3    4 ar
     7    3   35 1
     8    4   10 ar
     9    4    5 ar
    10    5    6 ar
    11    5    7 ar
    12    6   36 1
    13    7    8 ar
    14    7   37 1
    15    8    9 ar
    16    8   38 1
    17    9   10 ar
    18    9   11 1
    19   11   16 1
    20   11   12 1
    21   12   13 1
    22   12   39 1
    23   12   40 1
    24   13   14 1
    25   13   41 1
    26   13   42 1
    27   14   15 1
    28   14   17 1
    29   14   65 1
    30   15   16 1
    31   15   43 1
    32   15   44 1
    33   16   45 1
    34   16   46 1
    35   17   18 1
    36   17   47 1
    37   17   48 1
    38   18   19 1
    39   18   49 1
    40   18   50 1
    41   19   20 1
    42   19   51 1
    43   19   52 1
    44   20   21 1
    45   20   53 1
    46   20   54 1
    47   21   27 1
    48   21   22 2
    49   22   23 1
    50   23   32 1
    51   23   24 2
    52   24   25 1
    53   24   29 1
    54   25   26 2
    55   25   27 am
    56   27   28 1
    57   28   55 1
    58   28   56 1
    59   29   30 1
    60   29   57 1
    61   29   58 1
    62   30   31 1
    63   30   59 1
    64   30   60 1
    65   31   32 1
    66   31   61 1
    67   31   62 1
    68   32   63 1
    69   32   64 1
@<TRIPOS>MOLECULE
ZINC43172197
   66    70     0     0     0
SMALL
USER_CHARGES

@<TRIPOS>ATOM
      1 C1         -1.1440   -0.8993   -0.0171 C.ar      1 <0>        -0.1033
      2 C2         -1.0157   -2.2859   -0.0512 C.ar      1 <0>        -0.0204
      3 C3          0.2105   -2.8771   -0.0661 C.ar      1 <0>        -0.1497
      4 C4          1.3688   -2.0814   -0.0474 C.ar      1 <0>         0.1557
      5 C5          1.2360   -0.6719   -0.0132 C.ar      1 <0>        -0.1140
      6 C6         -0.0440   -0.0963    0.0018 C.ar      1 <0>        -0.0476
      7 C7          2.3976    0.1267    0.0055 C.ar      1 <0>         0.0854
      8 C8          3.6094   -0.4958   -0.0102 C.ar      1 <0>        -0.2269
      9 C9          3.6751   -1.8960   -0.0441 C.ar      1 <0>         0.4969
     10 N1          2.5859   -2.6367   -0.0619 N.ar      1 <0>        -0.5138
     11 N2          4.9157   -2.5156   -0.0597 N.pl3     1 <0>        -0.6162
     12 C10         6.1531   -1.7280   -0.1716 C.3       1 <0>         0.0894
     13 C11         7.0086   -2.3243   -1.2943 C.3       1 <0>        -0.0234
     14 N3          7.2215   -3.7546   -1.0390 N.4       1 <0>        -0.3866
     15 C12         5.9400   -4.4691   -1.0968 C.3       1 <0>        -0.0271
     16 C13         5.0319   -3.9786    0.0413 C.3       1 <0>         0.0772
     17 C14         8.1312   -4.3013   -2.0547 C.3       1 <0>        -0.0113
     18 C15         8.4530   -5.7590   -1.7194 C.3       1 <0>        -0.1526
     19 C16         9.4004   -6.3285   -2.7773 C.3       1 <0>        -0.1013
     20 C17         9.7222   -7.7862   -2.4420 C.3       1 <0>        -0.0650
     21 C18        10.6553   -8.3471   -3.4839 C.2       1 <0>         0.3838
     22 N4         11.0501   -7.5841   -4.4642 N.2       1 <0>        -0.5277
     23 C19        11.8820   -8.0272   -5.4203 C.2       1 <0>         0.1728
     24 C20        12.3360   -9.3022   -5.3686 C.2       1 <0>        -0.2233
     25 C21        11.9039  -10.1338   -4.3084 C.2       1 <0>         0.5008
     26 O1         12.2844  -11.2903   -4.2331 O.2       1 <0>        -0.5229
     27 N5         11.0688   -9.6254   -3.3799 N.am      1 <0>        -0.3604
     28 N6         10.6405  -10.4034   -2.3420 N.3       1 <0>        -0.6058
     29 C22        13.2868   -9.8772   -6.3821 C.3       1 <0>        -0.0594
     30 C23        13.3020   -9.0237   -7.6493 C.3       1 <0>        -0.1222
     31 C24        13.5186   -7.5610   -7.2431 C.3       1 <0>        -0.1237
     32 C25        12.2662   -7.0713   -6.5185 C.3       1 <0>        -0.0677
     33 H1         -2.1283   -0.4551   -0.0100 H         1 <0>         0.1575
     34 H2         -1.9029   -2.9016   -0.0656 H         1 <0>         0.1592
     35 H3          0.2928   -3.9536   -0.0918 H         1 <0>         0.1535
     36 H4         -0.1561    0.9776    0.0279 H         1 <0>         0.1626
     37 H5          2.3287    1.2042    0.0312 H         1 <0>         0.1843
     38 H6          4.5178    0.0882    0.0031 H         1 <0>         0.1823
     39 H7          5.9082   -0.6926   -0.4084 H         1 <0>         0.1453
     40 H8          6.7015   -1.7717    0.7694 H         1 <0>         0.1213
     41 H9          6.4963   -2.1977   -2.2480 H         1 <0>         0.1414
     42 H10         7.9711   -1.8139   -1.3280 H         1 <0>         0.1613
     43 H11         5.4601   -4.2775   -2.0565 H         1 <0>         0.1416
     44 H12         6.1151   -5.5391   -0.9850 H         1 <0>         0.1605
     45 H13         5.4689   -4.2457    1.0034 H         1 <0>         0.1263
     46 H14         4.0452   -4.4318   -0.0547 H         1 <0>         0.1193
     47 H15         7.6552   -4.2502   -3.0340 H         1 <0>         0.1362
     48 H16         9.0529   -3.7196   -2.0679 H         1 <0>         0.1427
     49 H17         8.9289   -5.8101   -0.7402 H         1 <0>         0.0917
     50 H18         7.5313   -6.3408   -1.7062 H         1 <0>         0.0876
     51 H19         8.9244   -6.2774   -3.7565 H         1 <0>         0.0892
     52 H20        10.3221   -5.7467   -2.7904 H         1 <0>         0.0896
     53 H21        10.1981   -7.8373   -1.4627 H         1 <0>         0.0969
     54 H22         8.8005   -8.3680   -2.4288 H         1 <0>         0.1081
     55 H23        11.0332  -11.3311   -2.3993 H         1 <0>         0.3914
     56 H24        10.8562   -9.9736   -1.4549 H         1 <0>         0.3562
     57 H25        14.2901   -9.9074   -5.9571 H         1 <0>         0.0800
     58 H26        12.9735  -10.8902   -6.6347 H         1 <0>         0.0835
     59 H27        14.1134   -9.3480   -8.3008 H         1 <0>         0.0798
     60 H28        12.3498   -9.1230   -8.1704 H         1 <0>         0.0684
     61 H29        14.3793   -7.4882   -6.5784 H         1 <0>         0.0701
     62 H30        13.6889   -6.9544   -8.1326 H         1 <0>         0.0809
     63 H31        11.4454   -6.9945   -7.2316 H         1 <0>         0.0916
     64 H32        12.4609   -6.0890   -6.0882 H         1 <0>         0.0889
     65 H33         2.6678   -3.6029   -0.0853 H         1 <0>         0.4330
     66 H34         7.6311   -3.8745   -0.1247 H         1 <0>         0.4283
@<TRIPOS>BOND
     1    1    6 ar
     2    1    2 ar
     3    1   33 1
     4    2    3 ar
     5    2   34 1
     6    3    4 ar
     7    3   35 1
     8    4   10 ar
     9    4    5 ar
    10    5    6 ar
    11    5    7 ar
    12    6   36 1
    13    7    8 ar
    14    7   37 1
    15    8    9 ar
    16    8   38 1
    17    9   10 ar
    18    9   11 1
    19   10   65 1
    20   11   16 1
    21   11   12 1
    22   12   13 1
    23   12   39 1
    24   12   40 1
    25   13   14 1
    26   13   41 1
    27   13   42 1
    28   14   15 1
    29   14   17 1
    30   14   66 1
    31   15   16 1
    32   15   43 1
    33   15   44 1
    34   16   45 1
    35   16   46 1
    36   17   18 1
    37   17   47 1
    38   17   48 1
    39   18   19 1
    40   18   49 1
    41   18   50 1
    42   19   20 1
    43   19   51 1
    44   19   52 1
    45   20   21 1
    46   20   53 1
    47   20   54 1
    48   21   27 1
    49   21   22 2
    50   22   23 1
    51   23   32 1
    52   23   24 2
    53   24   25 1
    54   24   29 1
    55   25   26 2
    56   25   27 am
    57   27   28 1
    58   28   55 1
    59   28   56 1
    60   29   30 1
    61   29   57 1
    62   29   58 1
    63   30   31 1
    64   30   59 1
    65   30   60 1
    66   31   32 1
    67   31   61 1
    68   31   62 1
    69   32   63 1
    70   32   64 1
@<TRIPOS>MOLECULE
ZINC29130869
   21    22     0     0     0
SMALL
USER_CHARGES

@<TRIPOS>ATOM
      1 C1         -0.0168    1.3851    0.0097 C.ar      1 <0>        -0.1114
      2 C2          1.1695    2.0923    0.0021 C.ar      1 <0>        -0.0557
      3 C3          2.3765    1.4166   -0.0142 C.ar      1 <0>        -0.0325
      4 C4          2.3977    0.0325   -0.0291 C.ar      1 <0>         0.0004
      5 C5          1.2119   -0.6819   -0.0241 C.ar      1 <0>        -0.1257
      6 C6          0.0021   -0.0041    0.0020 C.ar      1 <0>         0.1557
      7 N1         -1.2115   -0.7080    0.0366 N.pl3     1 <0>        -0.6439
      8 C7         -1.1703   -2.0782   -0.1764 C.cat     1 <0>         0.7629
      9 N2         -0.0513   -2.7297    0.3259 N.pl3     1 <0>        -0.7367
     10 C8          1.2613   -2.1888   -0.0559 C.3       1 <0>         0.1619
     11 N3         -2.1192   -2.7123   -0.8059 N.pl3     1 <0>        -0.7135
     12 Cl1         3.9156   -0.8096   -0.0547 Cl        1 <0>        -0.0101
     13 Cl2         3.8674    2.3060   -0.0167 Cl        1 <0>        -0.0128
     14 H1         -0.9593    1.9121    0.0260 H         1 <0>         0.1571
     15 H2          1.1549    3.1722    0.0086 H         1 <0>         0.1643
     16 H3         -2.0510   -0.2519    0.2042 H         1 <0>         0.4492
     17 H4          1.5138   -2.5230   -1.0622 H         1 <0>         0.1084
     18 H5          2.0175   -2.5425    0.6450 H         1 <0>         0.1321
     19 H6         -2.8871   -2.2251   -1.1432 H         1 <0>         0.4475
     20 H7         -0.1322   -3.5063    0.9014 H         1 <0>         0.4498
     21 H8         -2.0575   -3.6714   -0.9369 H         1 <0>         0.4529
@<TRIPOS>BOND
     1    1    6 ar
     2    1    2 ar
     3    1   14 1
     4    2    3 ar
     5    2   15 1
     6    3    4 ar
     7    3   13 1
     8    4    5 ar
     9    4   12 1
    10    5   10 1
    11    5    6 ar
    12    6    7 1
    13    7    8 1
    14    7   16 1
    15    8    9 1
    16    8   11 2
    17    9   10 1
    18    9   20 1
    19   10   17 1
    20   10   18 1
    21   11   19 1
    22   11   21 1
@<TRIPOS>MOLECULE
ZINC13589372
   27    27     0     0     0
SMALL
USER_CHARGES
2-[(6-bromo-2-pyridyl)sulfanyl]-N,N-dimethyl-ethanamine
@<TRIPOS>ATOM
      1 C1         -3.0288    5.4959    1.3119 C.3       1 <0>        -0.0491
      2 C2         -2.6681    7.3736   -0.1735 C.3       1 <0>        -0.0421
      3 C3         -0.9747    5.6563    0.0401 C.3       1 <0>         0.0113
      4 C4         -0.7579    4.1418    0.0305 C.3       1 <0>        -0.1565
      5 S1          1.0207    3.7856    0.0121 S.3       1 <0>        -0.0105
      6 C5          1.1029    2.0256    0.0024 C.ar      1 <0>         0.1139
      7 C6          2.3426    1.3931   -0.0128 C.ar      1 <0>        -0.1280
      8 C7          2.3929    0.0111   -0.0203 C.ar      1 <0>        -0.0429
      9 C8          1.1978   -0.6961   -0.0127 C.ar      1 <0>        -0.1313
     10 C9          0.0021   -0.0041    0.0020 C.ar      1 <0>         0.1347
     11 N1         -0.0158    1.3161    0.0093 N.ar      1 <0>        -0.4749
     12 Br1        -1.6296   -0.9599    0.0125 Br        1 <0>         0.0114
     13 H1         -2.5603    6.0121    2.1498 H         1 <0>         0.1259
     14 H2         -4.0951    5.7215    1.2964 H         1 <0>         0.1260
     15 H3         -2.8865    4.4208    1.4221 H         1 <0>         0.1218
     16 H4         -2.2636    7.6637   -1.1432 H         1 <0>         0.1234
     17 H5         -3.7421    7.5595   -0.1575 H         1 <0>         0.1256
     18 H6         -2.1866    7.9579    0.6105 H         1 <0>         0.1250
     19 H7         -0.5092    6.0843    0.9280 H         1 <0>         0.1415
     20 H8         -0.5258    6.0933   -0.8519 H         1 <0>         0.1397
     21 H9         -1.2234    3.7138   -0.8574 H         1 <0>         0.1145
     22 H10        -1.2067    3.7048    0.9225 H         1 <0>         0.1151
     23 H11         3.2531    1.9739   -0.0188 H         1 <0>         0.1523
     24 H12         3.3406   -0.5068   -0.0321 H         1 <0>         0.1594
     25 H13         1.2030   -1.7760   -0.0185 H         1 <0>         0.1559
     26 N2         -2.4272    5.9301    0.0336 N.4       1 <0>        -0.3949
     27 H14        -2.8620    5.4059   -0.7348 H         1 <0>         0.4329
@<TRIPOS>BOND
     1    1   13 1
     2    1   14 1
     3    1   15 1
     4    1   26 1
     5    2   16 1
     6    2   17 1
     7    2   18 1
     8    2   26 1
     9    3    4 1
    10    3   19 1
    11    3   20 1
    12    3   26 1
    13    4    5 1
    14    4   21 1
    15    4   22 1
    16    5    6 1
    17    6   11 ar
    18    6    7 ar
    19    7    8 ar
    20    7   23 1
    21    8    9 ar
    22    8   24 1
    23    9   10 ar
    24    9   25 1
    25   10   11 ar
    26   10   12 1
    27   26   27 1
@<TRIPOS>MOLECULE
ZINC00985328
   30    31     0     0     0
SMALL
USER_CHARGES
2-benzothiazol-2-ylsulfanyl-N,N-dimethyl-ethanamine
@<TRIPOS>ATOM
      1 C1         -6.1338    8.1345    1.3628 C.3       1 <0>        -0.0505
      2 C2         -6.2619   10.0471   -0.1166 C.3       1 <0>        -0.0425
      3 C3         -4.1876    8.8158    0.0935 C.3       1 <0>         0.0150
      4 C4         -3.5931    7.4061    0.0795 C.3       1 <0>        -0.1966
      5 S1         -1.7864    7.5134    0.0618 S.3       1 <0>         0.1138
      6 C5         -1.3782    5.7994    0.0479 C.2       1 <0>         0.0894
      7 N1         -0.1914    5.2346    0.0326 N.2       1 <0>        -0.4575
      8 C6         -0.0267    3.8938    0.0233 C.ar      1 <0>         0.0705
      9 C7          1.1840    3.1634    0.0073 C.ar      1 <0>        -0.0481
     10 C8          1.1750    1.7928    0.0005 C.ar      1 <0>        -0.1066
     11 C9         -0.0126    1.0758    0.0080 C.ar      1 <0>        -0.0742
     12 C10        -1.2156    1.7582    0.0173 C.ar      1 <0>        -0.0728
     13 C11        -1.2161    3.1304    0.0310 C.ar      1 <0>        -0.1216
     14 S2         -2.4725    4.3864    0.0509 S.3       1 <0>        -0.0118
     15 H1         -5.8120    8.7503    2.2027 H         1 <0>         0.1277
     16 H2         -7.2224    8.0819    1.3469 H         1 <0>         0.1274
     17 H3         -5.7230    7.1306    1.4698 H         1 <0>         0.1209
     18 H4         -5.9442   10.4335   -1.0850 H         1 <0>         0.1245
     19 H5         -7.3478    9.9538   -0.1011 H         1 <0>         0.1265
     20 H6         -5.9447   10.7320    0.6698 H         1 <0>         0.1261
     21 H7         -3.8464    9.3452    0.9832 H         1 <0>         0.1460
     22 H8         -3.8644    9.3553   -0.7967 H         1 <0>         0.1443
     23 H9         -3.9344    6.8767   -0.8101 H         1 <0>         0.1199
     24 H10        -3.9164    6.8666    0.9697 H         1 <0>         0.1197
     25 H11         2.1261    3.6913    0.0008 H         1 <0>         0.1406
     26 H12         2.1137    1.2590   -0.0114 H         1 <0>         0.1442
     27 H13         0.0021   -0.0041    0.0020 H         1 <0>         0.1481
     28 H14        -2.1488    1.2145    0.0184 H         1 <0>         0.1394
     29 N2         -5.6620    8.7115    0.0863 N.4       1 <0>        -0.3953
     30 H15        -5.9491    8.0964   -0.6840 H         1 <0>         0.4333
@<TRIPOS>BOND
     1    1   15 1
     2    1   16 1
     3    1   17 1
     4    1   29 1
     5    2   18 1
     6    2   19 1
     7    2   20 1
     8    2   29 1
     9    3    4 1
    10    3   21 1
    11    3   22 1
    12    3   29 1
    13    4    5 1
    14    4   23 1
    15    4   24 1
    16    5    6 1
    17    6   14 1
    18    6    7 2
    19    7    8 1
    20    8   13 ar
    21    8    9 ar
    22    9   10 ar
    23    9   25 1
    24   10   11 ar
    25   10   26 1
    26   11   12 ar
    27   11   27 1
    28   12   13 ar
    29   12   28 1
    30   13   14 1
    31   29   30 1
@<TRIPOS>MOLECULE
ZINC34451922
   61    65     0     0     0
SMALL
USER_CHARGES

@<TRIPOS>ATOM
      1 C1         -0.0312    1.4376    0.0625 C.3       1 <0>        -0.1149
      2 C2         -0.0229   -0.0693    0.0447 C.ar      1 <0>         0.1665
      3 C3         -0.0155   -0.7327   -1.1794 C.ar      1 <0>        -0.1630
      4 C4         -0.0074   -2.0992   -1.2143 C.ar      1 <0>        -0.0625
      5 C5         -0.0068   -2.7940    0.0070 C.ar      1 <0>        -0.1089
      6 C6         -0.0145   -2.0581    1.2176 C.ar      1 <0>         0.1381
      7 N1         -0.0173   -0.7211    1.1825 N.ar      1 <0>        -0.4673
      8 C7         -0.0139   -2.7495    2.4406 C.ar      1 <0>        -0.0799
      9 C8         -0.0055   -4.1115    2.4546 C.ar      1 <0>        -0.0967
     10 C9          0.0026   -4.8435    1.2722 C.ar      1 <0>        -0.1038
     11 C10         0.0018   -4.2041    0.0495 C.ar      1 <0>         0.1607
     12 N2          0.0100   -4.9428   -1.1301 N.pl3     1 <0>        -0.6732
     13 C11         1.2761   -5.3417   -1.7641 C.3       1 <0>         0.1189
     14 C12         1.2238   -4.9473   -3.2438 C.3       1 <0>        -0.0255
     15 N3          0.0263   -5.5297   -3.8626 N.4       1 <0>        -0.3804
     16 C13        -1.1805   -4.9526   -3.2570 C.3       1 <0>        -0.0322
     17 C14        -1.2473   -5.3521   -1.7749 C.3       1 <0>         0.1198
     18 C15         0.0336   -5.2439   -5.3035 C.3       1 <0>        -0.0072
     19 C16        -1.1461   -5.9543   -5.9703 C.3       1 <0>        -0.0971
     20 C17        -1.1386   -5.6610   -7.4485 C.ar      1 <0>        -0.0776
     21 C18        -1.8170   -4.5596   -7.9377 C.ar      1 <0>        -0.1386
     22 C19        -1.8126   -4.2871   -9.2931 C.ar      1 <0>        -0.0804
     23 C20        -1.1300   -5.1148  -10.1632 C.ar      1 <0>        -0.1434
     24 C21        -0.4479   -6.2214   -9.6753 C.ar      1 <0>         0.2020
     25 C22        -0.4497   -6.4892   -8.3125 C.ar      1 <0>        -0.1555
     26 N4          0.2445   -7.0619  -10.5542 N.am      1 <0>        -0.5742
     27 C23         1.0949   -8.1943  -10.1579 C.3       1 <0>         0.0857
     28 C24         1.6017   -8.7621  -11.4979 C.3       1 <0>         0.0889
     29 N5          0.9830   -7.8894  -12.5069 N.am      1 <0>        -0.7318
     30 C25         0.2334   -6.9663  -11.8902 C.2       1 <0>         0.6994
     31 O1         -0.3969   -6.1161  -12.4888 O.2       1 <0>        -0.5594
     32 H1          0.9944    1.8066    0.0650 H         1 <0>         0.0861
     33 H2         -0.5487    1.8085   -0.8223 H         1 <0>         0.0802
     34 H3         -0.5455    1.7876    0.9576 H         1 <0>         0.0841
     35 H4         -0.0165   -0.1684   -2.1002 H         1 <0>         0.1388
     36 H5         -0.0019   -2.6302   -2.1547 H         1 <0>         0.1232
     37 H6         -0.0198   -2.2006    3.3707 H         1 <0>         0.1418
     38 H7         -0.0048   -4.6322    3.4007 H         1 <0>         0.1381
     39 H8          0.0096   -5.9228    1.3114 H         1 <0>         0.1308
     40 H9          2.1065   -4.8299   -1.2777 H         1 <0>         0.1163
     41 H10         1.4054   -6.4205   -1.6769 H         1 <0>         0.0826
     42 H11         1.1855   -3.8614   -3.3293 H         1 <0>         0.1284
     43 H12         2.1133   -5.3208   -3.7511 H         1 <0>         0.1390
     44 H13        -1.1461   -3.8665   -3.3421 H         1 <0>         0.1294
     45 H14        -2.0627   -5.3301   -3.7741 H         1 <0>         0.1406
     46 H15        -1.3685   -6.4320   -1.6889 H         1 <0>         0.0832
     47 H16        -2.0861   -4.8472   -1.2958 H         1 <0>         0.1162
     48 H17        -0.0535   -4.1688   -5.4611 H         1 <0>         0.1311
     49 H18         0.9665   -5.6007   -5.7400 H         1 <0>         0.1329
     50 H19        -1.0590   -7.0293   -5.8127 H         1 <0>         0.0951
     51 H20        -2.0789   -5.5974   -5.5338 H         1 <0>         0.0966
     52 H21        -2.3517   -3.9111   -7.2594 H         1 <0>         0.1244
     53 H22        -2.3436   -3.4264   -9.6721 H         1 <0>         0.1341
     54 H23        -1.1272   -4.9017  -11.2220 H         1 <0>         0.1632
     55 H24         0.0839   -7.3464   -7.9293 H         1 <0>         0.1261
     56 H25         1.9301   -7.8505   -9.5478 H         1 <0>         0.0916
     57 H26         0.5107   -8.9423   -9.6219 H         1 <0>         0.0922
     58 H27         2.6885   -8.7002  -11.5531 H         1 <0>         0.0930
     59 H28         1.2691   -9.7921  -11.6273 H         1 <0>         0.0930
     60 H29         1.0964   -7.9716  -13.4667 H         1 <0>         0.4388
     61 H30         0.0277   -6.5286   -3.7203 H         1 <0>         0.4226
@<TRIPOS>BOND
     1    1    2 1
     2    1   32 1
     3    1   33 1
     4    1   34 1
     5    2    7 ar
     6    2    3 ar
     7    3    4 ar
     8    3   35 1
     9    4    5 ar
    10    4   36 1
    11    5   11 ar
    12    5    6 ar
    13    6    7 ar
    14    6    8 ar
    15    8    9 ar
    16    8   37 1
    17    9   10 ar
    18    9   38 1
    19   10   11 ar
    20   10   39 1
    21   11   12 1
    22   12   17 1
    23   12   13 1
    24   13   14 1
    25   13   40 1
    26   13   41 1
    27   14   15 1
    28   14   42 1
    29   14   43 1
    30   15   16 1
    31   15   18 1
    32   15   61 1
    33   16   17 1
    34   16   44 1
    35   16   45 1
    36   17   46 1
    37   17   47 1
    38   18   19 1
    39   18   48 1
    40   18   49 1
    41   19   20 1
    42   19   50 1
    43   19   51 1
    44   20   25 ar
    45   20   21 ar
    46   21   22 ar
    47   21   52 1
    48   22   23 ar
    49   22   53 1
    50   23   24 ar
    51   23   54 1
    52   24   25 ar
    53   24   26 1
    54   25   55 1
    55   26   30 am
    56   26   27 1
    57   27   28 1
    58   27   56 1
    59   27   57 1
    60   28   29 1
    61   28   58 1
    62   28   59 1
    63   29   30 am
    64   29   60 1
    65   30   31 2
@<TRIPOS>MOLECULE
ZINC34451922
   60    64     0     0     0
SMALL
USER_CHARGES

@<TRIPOS>ATOM
      1 C1         -0.0321    1.4340    0.0669 C.3       1 <0>        -0.1087
      2 C2         -0.0231   -0.0728    0.0484 C.ar      1 <0>         0.1614
      3 C3         -0.0155   -0.7357   -1.1761 C.ar      1 <0>        -0.1790
      4 C4         -0.0069   -2.1021   -1.2116 C.ar      1 <0>        -0.0439
      5 C5         -0.0060   -2.7975    0.0093 C.ar      1 <0>        -0.1162
      6 C6         -0.0140   -2.0623    1.2203 C.ar      1 <0>         0.1383
      7 N1         -0.0173   -0.7252    1.1858 N.ar      1 <0>        -0.4780
      8 C7         -0.0131   -2.7542    2.4430 C.ar      1 <0>        -0.1017
      9 C8         -0.0042   -4.1162    2.4563 C.ar      1 <0>        -0.0895
     10 C9          0.0042   -4.8477    1.2736 C.ar      1 <0>        -0.1280
     11 C10         0.0032   -4.2076    0.0512 C.ar      1 <0>         0.1972
     12 N2          0.0115   -4.9458   -1.1288 N.pl3     1 <0>        -0.6786
     13 C11         1.2784   -5.3431   -1.7618 C.3       1 <0>         0.1496
     14 C12         1.2359   -4.9304   -3.2369 C.3       1 <0>         0.0396
     15 N3          0.0281   -5.4851   -3.8627 N.3       1 <0>        -0.5337
     16 C13        -1.1893   -4.9364   -3.2504 C.3       1 <0>         0.0347
     17 C14        -1.2462   -5.3545   -1.7725 C.3       1 <0>         0.1493
     18 C15         0.0356   -5.2584   -5.3140 C.3       1 <0>         0.0625
     19 C16        -1.0979   -6.0570   -5.9608 C.3       1 <0>        -0.0749
     20 C17        -1.0902   -5.8244   -7.4498 C.ar      1 <0>        -0.0542
     21 C18        -1.8204   -4.7814   -7.9898 C.ar      1 <0>        -0.1431
     22 C19        -1.8159   -4.5647   -9.3553 C.ar      1 <0>        -0.0866
     23 C20        -1.0816   -5.3899  -10.1846 C.ar      1 <0>        -0.1581
     24 C21        -0.3474   -6.4379   -9.6456 C.ar      1 <0>         0.1910
     25 C22        -0.3495   -6.6495   -8.2729 C.ar      1 <0>        -0.1551
     26 N4          0.3976   -7.2758  -10.4831 N.am      1 <0>        -0.5709
     27 C23         1.3021   -8.3444  -10.0332 C.3       1 <0>         0.0845
     28 C24         1.8522   -8.9388  -11.3442 C.3       1 <0>         0.0912
     29 N5          1.1993   -8.1420  -12.3936 N.am      1 <0>        -0.7361
     30 C25         0.3956   -7.2356  -11.8220 C.2       1 <0>         0.6995
     31 O1         -0.2721   -6.4452  -12.4605 O.2       1 <0>        -0.5652
     32 H1          0.9934    1.8035    0.0696 H         1 <0>         0.0813
     33 H2         -0.5496    1.8052   -0.8177 H         1 <0>         0.0768
     34 H3         -0.5465    1.7834    0.9621 H         1 <0>         0.0795
     35 H4         -0.0168   -0.1709   -2.0966 H         1 <0>         0.1342
     36 H5         -0.0012   -2.6326   -2.1523 H         1 <0>         0.1348
     37 H6         -0.0192   -2.2057    3.3733 H         1 <0>         0.1347
     38 H7         -0.0032   -4.6373    3.4022 H         1 <0>         0.1312
     39 H8          0.0116   -5.9269    1.3122 H         1 <0>         0.1282
     40 H9          2.1089   -4.8415   -1.2650 H         1 <0>         0.0717
     41 H10         1.4019   -6.4235   -1.6872 H         1 <0>         0.0627
     42 H11         1.2167   -3.8430   -3.3100 H         1 <0>         0.0346
     43 H12         2.1191   -5.3142   -3.7476 H         1 <0>         0.0822
     44 H13        -1.1747   -3.8489   -3.3233 H         1 <0>         0.0351
     45 H14        -2.0649   -5.3244   -3.7708 H         1 <0>         0.0854
     46 H15        -1.3606   -6.4360   -1.6990 H         1 <0>         0.0631
     47 H16        -2.0854   -4.8605   -1.2829 H         1 <0>         0.0716
     48 H17        -0.1062   -4.1968   -5.5167 H         1 <0>         0.0355
     49 H18         0.9905   -5.5828   -5.7275 H         1 <0>         0.0763
     50 H19        -0.9561   -7.1185   -5.7582 H         1 <0>         0.0819
     51 H20        -2.0528   -5.7326   -5.5474 H         1 <0>         0.0744
     52 H21        -2.3957   -4.1350   -7.3435 H         1 <0>         0.1206
     53 H22        -2.3875   -3.7496   -9.7740 H         1 <0>         0.1267
     54 H23        -1.0788   -5.2204  -11.2512 H         1 <0>         0.1568
     55 H24         0.2243   -7.4609   -7.8501 H         1 <0>         0.1245
     56 H25         2.1115   -7.9321   -9.4307 H         1 <0>         0.0924
     57 H26         0.7524   -9.0998   -9.4716 H         1 <0>         0.0923
     58 H27         2.9348   -8.8217  -11.3927 H         1 <0>         0.0897
     59 H28         1.5757   -9.9893  -11.4336 H         1 <0>         0.0895
     60 H29         1.3270   -8.2573  -13.3482 H         1 <0>         0.4348
@<TRIPOS>BOND
     1    1    2 1
     2    1   32 1
     3    1   33 1
     4    1   34 1
     5    2    7 ar
     6    2    3 ar
     7    3    4 ar
     8    3   35 1
     9    4    5 ar
    10    4   36 1
    11    5   11 ar
    12    5    6 ar
    13    6    7 ar
    14    6    8 ar
    15    8    9 ar
    16    8   37 1
    17    9   10 ar
    18    9   38 1
    19   10   11 ar
    20   10   39 1
    21   11   12 1
    22   12   17 1
    23   12   13 1
    24   13   14 1
    25   13   40 1
    26   13   41 1
    27   14   15 1
    28   14   42 1
    29   14   43 1
    30   15   16 1
    31   15   18 1
    32   16   17 1
    33   16   44 1
    34   16   45 1
    35   17   46 1
    36   17   47 1
    37   18   19 1
    38   18   48 1
    39   18   49 1
    40   19   20 1
    41   19   50 1
    42   19   51 1
    43   20   25 ar
    44   20   21 ar
    45   21   22 ar
    46   21   52 1
    47   22   23 ar
    48   22   53 1
    49   23   24 ar
    50   23   54 1
    51   24   25 ar
    52   24   26 1
    53   25   55 1
    54   26   30 am
    55   26   27 1
    56   27   28 1
    57   27   56 1
    58   27   57 1
    59   28   29 1
    60   28   58 1
    61   28   59 1
    62   29   30 am
    63   29   60 1
    64   30   31 2
@<TRIPOS>MOLECULE
ZINC34451922
   62    66     0     0     0
SMALL
USER_CHARGES

@<TRIPOS>ATOM
      1 C1         -0.0312    1.4376    0.0625 C.3       1 <0>        -0.1610
      2 C2         -0.0229   -0.0693    0.0447 C.ar      1 <0>         0.2542
      3 C3         -0.0155   -0.7327   -1.1794 C.ar      1 <0>        -0.1670
      4 C4         -0.0074   -2.0992   -1.2143 C.ar      1 <0>         0.0386
      5 C5         -0.0068   -2.7940    0.0070 C.ar      1 <0>        -0.0964
      6 C6         -0.0145   -2.0581    1.2176 C.ar      1 <0>         0.1451
      7 N1         -0.0173   -0.7211    1.1825 N.ar      1 <0>        -0.4584
      8 C7         -0.0139   -2.7495    2.4406 C.ar      1 <0>        -0.1305
      9 C8         -0.0055   -4.1115    2.4546 C.ar      1 <0>        -0.0263
     10 C9          0.0026   -4.8435    1.2722 C.ar      1 <0>        -0.0895
     11 C10         0.0018   -4.2041    0.0495 C.ar      1 <0>         0.2051
     12 N2          0.0100   -4.9428   -1.1301 N.pl3     1 <0>        -0.6830
     13 C11         1.2761   -5.3417   -1.7641 C.3       1 <0>         0.1133
     14 C12         1.2238   -4.9473   -3.2438 C.3       1 <0>        -0.0251
     15 N3          0.0263   -5.5297   -3.8626 N.4       1 <0>        -0.3836
     16 C13        -1.1805   -4.9526   -3.2570 C.3       1 <0>        -0.0322
     17 C14        -1.2473   -5.3521   -1.7749 C.3       1 <0>         0.1142
     18 C15         0.0336   -5.2439   -5.3035 C.3       1 <0>        -0.0083
     19 C16        -1.1461   -5.9543   -5.9703 C.3       1 <0>        -0.0958
     20 C17        -1.1386   -5.6610   -7.4485 C.ar      1 <0>        -0.0824
     21 C18        -1.8170   -4.5596   -7.9377 C.ar      1 <0>        -0.1409
     22 C19        -1.8126   -4.2871   -9.2931 C.ar      1 <0>        -0.0796
     23 C20        -1.1300   -5.1148  -10.1632 C.ar      1 <0>        -0.1415
     24 C21        -0.4479   -6.2214   -9.6753 C.ar      1 <0>         0.2063
     25 C22        -0.4497   -6.4892   -8.3125 C.ar      1 <0>        -0.1564
     26 N4          0.2445   -7.0619  -10.5542 N.am      1 <0>        -0.5752
     27 C23         1.0949   -8.1943  -10.1579 C.3       1 <0>         0.0862
     28 C24         1.6017   -8.7621  -11.4979 C.3       1 <0>         0.0880
     29 N5          0.9830   -7.8894  -12.5069 N.am      1 <0>        -0.7302
     30 C25         0.2334   -6.9663  -11.8902 C.2       1 <0>         0.6992
     31 O1         -0.3969   -6.1161  -12.4888 O.2       1 <0>        -0.5578
     32 H1          0.9944    1.8066    0.0650 H         1 <0>         0.1292
     33 H2         -0.5487    1.8085   -0.8223 H         1 <0>         0.1262
     34 H3         -0.5455    1.7876    0.9576 H         1 <0>         0.1073
     35 H4         -0.0165   -0.1684   -2.1002 H         1 <0>         0.1869
     36 H5         -0.0019   -2.6302   -2.1547 H         1 <0>         0.1595
     37 H6         -0.0198   -2.2006    3.3707 H         1 <0>         0.1627
     38 H7         -0.0048   -4.6322    3.4007 H         1 <0>         0.1641
     39 H8          0.0096   -5.9228    1.3114 H         1 <0>         0.1565
     40 H9          2.1065   -4.8299   -1.2777 H         1 <0>         0.1196
     41 H10         1.4054   -6.4205   -1.6769 H         1 <0>         0.0952
     42 H11         1.1855   -3.8614   -3.3293 H         1 <0>         0.1261
     43 H12         2.1133   -5.3208   -3.7511 H         1 <0>         0.1471
     44 H13        -1.1461   -3.8665   -3.3421 H         1 <0>         0.1272
     45 H14        -2.0627   -5.3301   -3.7741 H         1 <0>         0.1488
     46 H15        -1.3685   -6.4320   -1.6889 H         1 <0>         0.0958
     47 H16        -2.0861   -4.8472   -1.2958 H         1 <0>         0.1195
     48 H17        -0.0535   -4.1688   -5.4611 H         1 <0>         0.1321
     49 H18         0.9665   -5.6007   -5.7400 H         1 <0>         0.1368
     50 H19        -1.0590   -7.0293   -5.8127 H         1 <0>         0.0966
     51 H20        -2.0789   -5.5974   -5.5338 H         1 <0>         0.0955
     52 H21        -2.3517   -3.9111   -7.2594 H         1 <0>         0.1224
     53 H22        -2.3436   -3.4264   -9.6721 H         1 <0>         0.1347
     54 H23        -1.1272   -4.9017  -11.2220 H         1 <0>         0.1647
     55 H24         0.0839   -7.3464   -7.9293 H         1 <0>         0.1263
     56 H25         1.9301   -7.8505   -9.5478 H         1 <0>         0.0912
     57 H26         0.5107   -8.9423   -9.6219 H         1 <0>         0.0923
     58 H27         2.6885   -8.7002  -11.5531 H         1 <0>         0.0940
     59 H28         1.2691   -9.7921  -11.6273 H         1 <0>         0.0943
     60 H29         1.0964   -7.9716  -13.4667 H         1 <0>         0.4403
     61 H30         0.0277   -6.5286   -3.7203 H         1 <0>         0.4274
     62 H31        -0.0190   -0.2237    2.0152 H         1 <0>         0.4506
@<TRIPOS>BOND
     1    1    2 1
     2    1   32 1
     3    1   33 1
     4    1   34 1
     5    2    7 ar
     6    2    3 ar
     7    3    4 ar
     8    3   35 1
     9    4    5 ar
    10    4   36 1
    11    5   11 ar
    12    5    6 ar
    13    6    7 ar
    14    6    8 ar
    15    7   62 1
    16    8    9 ar
    17    8   37 1
    18    9   10 ar
    19    9   38 1
    20   10   11 ar
    21   10   39 1
    22   11   12 1
    23   12   17 1
    24   12   13 1
    25   13   14 1
    26   13   40 1
    27   13   41 1
    28   14   15 1
    29   14   42 1
    30   14   43 1
    31   15   16 1
    32   15   18 1
    33   15   61 1
    34   16   17 1
    35   16   44 1
    36   16   45 1
    37   17   46 1
    38   17   47 1
    39   18   19 1
    40   18   48 1
    41   18   49 1
    42   19   20 1
    43   19   50 1
    44   19   51 1
    45   20   25 ar
    46   20   21 ar
    47   21   22 ar
    48   21   52 1
    49   22   23 ar
    50   22   53 1
    51   23   24 ar
    52   23   54 1
    53   24   25 ar
    54   24   26 1
    55   25   55 1
    56   26   30 am
    57   26   27 1
    58   27   28 1
    59   27   56 1
    60   27   57 1
    61   28   29 1
    62   28   58 1
    63   28   59 1
    64   29   30 am
    65   29   60 1
    66   30   31 2
@<TRIPOS>MOLECULE
ZINC66112330
   42    45     0     0     0
SMALL
USER_CHARGES

@<TRIPOS>ATOM
      1 C1          0.0492    1.7438    0.3269 C.ar      1 <0>        -0.0989
      2 C2          1.2861    2.3547    0.2394 C.ar      1 <0>        -0.1202
      3 C3          2.4310    1.5864    0.1406 C.ar      1 <0>        -0.1061
      4 C4          2.3390    0.2071    0.1298 C.ar      1 <0>        -0.1310
      5 C5          1.1021   -0.4038    0.2182 C.ar      1 <0>        -0.0862
      6 C6         -0.0429    0.3646    0.3156 C.ar      1 <0>        -0.1156
      7 C7          3.5870   -0.6305    0.0211 C.3       1 <0>         0.1659
      8 N1          4.0993   -0.9199    1.3628 N.pl3     1 <0>        -0.3252
      9 C8          4.9730   -0.1710    2.0515 C.2       1 <0>         0.0915
     10 C9          5.1978   -0.7753    3.2466 C.2       1 <0>        -0.2905
     11 C10         4.4239   -1.9417    3.2911 C.2       1 <0>         0.1554
     12 N2          3.7571   -2.0265    2.1557 N.2       1 <0>        -0.2530
     13 C11         4.3606   -2.9069    4.4168 C.ar      1 <0>        -0.0325
     14 C12         4.3411   -4.2767    4.1626 C.ar      1 <0>        -0.0712
     15 C13         4.2821   -5.1702    5.2126 C.ar      1 <0>        -0.1049
     16 C14         4.2419   -4.7075    6.5167 C.ar      1 <0>        -0.0199
     17 C15         4.2606   -3.3475    6.7743 C.ar      1 <0>        -0.1076
     18 C16         4.3262   -2.4463    5.7312 C.ar      1 <0>        -0.0886
     19 Cl1         4.1672   -5.8365    7.8334 Cl        1 <0>        -0.0508
     20 C17         6.1363   -0.2258    4.2906 C.3       1 <0>         0.0886
     21 N3          7.0197    0.7614    3.6485 N.4       1 <0>        -0.5059
     22 C18         6.2232    1.7583    2.9212 C.3       1 <0>         0.0030
     23 C19         5.6352    1.1252    1.6519 C.3       1 <0>        -0.0882
     24 H1         -0.8450    2.3440    0.4085 H         1 <0>         0.1301
     25 H2          1.3580    3.4323    0.2478 H         1 <0>         0.1289
     26 H3          3.3973    2.0636    0.0715 H         1 <0>         0.1186
     27 H4          1.0302   -1.4813    0.2095 H         1 <0>         0.1277
     28 H5         -1.0093   -0.1127    0.3843 H         1 <0>         0.1307
     29 H6          3.3539   -1.5655   -0.4882 H         1 <0>         0.1167
     30 H7          4.3418   -0.0860   -0.5463 H         1 <0>         0.1101
     31 H8          4.3717   -4.6386    3.1455 H         1 <0>         0.1380
     32 H9          4.2670   -6.2322    5.0166 H         1 <0>         0.1434
     33 H10         4.2287   -2.9913    7.7934 H         1 <0>         0.1427
     34 H11         4.3456   -1.3855    5.9333 H         1 <0>         0.1311
     35 H12         5.5628    0.2554    5.0828 H         1 <0>         0.1357
     36 H13         6.7340   -1.0354    4.7094 H         1 <0>         0.1408
     37 H14         7.5717    1.2251    4.3545 H         1 <0>         0.4375
     38 H15         5.4129    2.1108    3.5594 H         1 <0>         0.1373
     39 H16         6.8590    2.5996    2.6456 H         1 <0>         0.1469
     40 H17         6.4316    0.9275    0.9345 H         1 <0>         0.1166
     41 H18         4.8979    1.7964    1.2114 H         1 <0>         0.1281
     42 H19         7.6349    0.2895    3.0028 H         1 <0>         0.4312
@<TRIPOS>BOND
     1    1    6 ar
     2    1    2 ar
     3    1   24 1
     4    2    3 ar
     5    2   25 1
     6    3    4 ar
     7    3   26 1
     8    4    5 ar
     9    4    7 1
    10    5    6 ar
    11    5   27 1
    12    6   28 1
    13    7    8 1
    14    7   29 1
    15    7   30 1
    16    8   12 1
    17    8    9 1
    18    9   23 1
    19    9   10 2
    20   10   11 1
    21   10   20 1
    22   11   12 2
    23   11   13 1
    24   13   18 ar
    25   13   14 ar
    26   14   15 ar
    27   14   31 1
    28   15   16 ar
    29   15   32 1
    30   16   17 ar
    31   16   19 1
    32   17   18 ar
    33   17   33 1
    34   18   34 1
    35   20   21 1
    36   20   35 1
    37   20   36 1
    38   21   22 1
    39   21   37 1
    40   21   42 1
    41   22   23 1
    42   22   38 1
    43   22   39 1
    44   23   40 1
    45   23   41 1
@<TRIPOS>MOLECULE
ZINC66112330
   41    44     0     0     0
SMALL
USER_CHARGES

@<TRIPOS>ATOM
      1 C1          0.0490    1.7438    0.3272 C.ar      1 <0>        -0.1080
      2 C2          1.2859    2.3546    0.2394 C.ar      1 <0>        -0.1219
      3 C3          2.4308    1.5862    0.1406 C.ar      1 <0>        -0.1026
      4 C4          2.3387    0.2070    0.1299 C.ar      1 <0>        -0.1191
      5 C5          1.1018   -0.4039    0.2186 C.ar      1 <0>        -0.0895
      6 C6         -0.0431    0.3645    0.3160 C.ar      1 <0>        -0.1210
      7 C7          3.5867   -0.6307    0.0212 C.3       1 <0>         0.1729
      8 N1          4.0991   -0.9200    1.3628 N.pl3     1 <0>        -0.3511
      9 C8          4.9735   -0.1706    2.0516 C.2       1 <0>         0.1016
     10 C9          5.1977   -0.7750    3.2462 C.2       1 <0>        -0.2289
     11 C10         4.4244   -1.9421    3.2905 C.2       1 <0>         0.1201
     12 N2          3.7570   -2.0265    2.1556 N.2       1 <0>        -0.2787
     13 C11         4.3624   -2.9081    4.4155 C.ar      1 <0>        -0.0041
     14 C12         4.3227   -2.4482    5.7301 C.ar      1 <0>        -0.0851
     15 C13         4.2652   -3.3503    6.7729 C.ar      1 <0>        -0.1088
     16 C14         4.2474   -4.7102    6.5144 C.ar      1 <0>        -0.0293
     17 C15         4.2872   -5.1720    5.2100 C.ar      1 <0>        -0.1092
     18 C16         4.3381   -4.2776    4.1603 C.ar      1 <0>        -0.0791
     19 Cl1         4.1755   -5.8401    7.8304 Cl        1 <0>        -0.0675
     20 C17         6.1339   -0.2266    4.2933 C.3       1 <0>         0.1384
     21 N3          7.0018    0.7784    3.6560 N.3       1 <0>        -0.6906
     22 C18         6.2165    1.7715    2.9102 C.3       1 <0>         0.0637
     23 C19         5.6336    1.1246    1.6460 C.3       1 <0>        -0.0560
     24 H1         -0.8451    2.3440    0.4089 H         1 <0>         0.1249
     25 H2          1.3579    3.4322    0.2477 H         1 <0>         0.1257
     26 H3          3.3971    2.0634    0.0713 H         1 <0>         0.1224
     27 H4          1.0299   -1.4815    0.2099 H         1 <0>         0.1254
     28 H5         -1.0095   -0.1127    0.3849 H         1 <0>         0.1257
     29 H6          3.3535   -1.5658   -0.4881 H         1 <0>         0.1062
     30 H7          4.3414   -0.0863   -0.5464 H         1 <0>         0.1032
     31 H8          4.3373   -1.3875    5.9328 H         1 <0>         0.1338
     32 H9          4.2344   -2.9948    7.7922 H         1 <0>         0.1378
     33 H10         4.2734   -6.2338    5.0133 H         1 <0>         0.1374
     34 H11         4.3642   -4.6387    3.1428 H         1 <0>         0.1352
     35 H12         5.5583    0.2392    5.0932 H         1 <0>         0.0395
     36 H13         6.7433   -1.0335    4.7002 H         1 <0>         0.0858
     37 H14         5.4041    2.1374    3.5380 H         1 <0>         0.0386
     38 H15         6.8597    2.6049    2.6277 H         1 <0>         0.0858
     39 H16         6.4327    0.9238    0.9324 H         1 <0>         0.0929
     40 H17         4.8959    1.7900    1.1974 H         1 <0>         0.0829
     41 H18         7.5974    1.2256    4.3367 H         1 <0>         0.3507
@<TRIPOS>BOND
     1    1    6 ar
     2    1    2 ar
     3    1   24 1
     4    2    3 ar
     5    2   25 1
     6    3    4 ar
     7    3   26 1
     8    4    5 ar
     9    4    7 1
    10    5    6 ar
    11    5   27 1
    12    6   28 1
    13    7    8 1
    14    7   29 1
    15    7   30 1
    16    8   12 1
    17    8    9 1
    18    9   23 1
    19    9   10 2
    20   10   11 1
    21   10   20 1
    22   11   12 2
    23   11   13 1
    24   13   18 ar
    25   13   14 ar
    26   14   15 ar
    27   14   31 1
    28   15   16 ar
    29   15   32 1
    30   16   17 ar
    31   16   19 1
    32   17   18 ar
    33   17   33 1
    34   18   34 1
    35   20   21 1
    36   20   35 1
    37   20   36 1
    38   21   22 1
    39   21   41 1
    40   22   23 1
    41   22   37 1
    42   22   38 1
    43   23   39 1
    44   23   40 1
@<TRIPOS>MOLECULE
ZINC19376338
   32    34     0     0     0
SMALL
USER_CHARGES

@<TRIPOS>ATOM
      1 C1         -0.0239    1.3370    0.2441 C.ar      1 <0>        -0.1256
      2 C2          1.1550    2.0478    0.4568 C.ar      1 <0>        -0.0782
      3 C3          2.3643    1.4231    0.4379 C.ar      1 <0>        -0.1141
      4 C4          2.4311    0.0393    0.2011 C.ar      1 <0>         0.1744
      5 C5          1.2312   -0.6814   -0.0144 C.ar      1 <0>        -0.1375
      6 C6          0.0018   -0.0048    0.0116 C.ar      1 <0>        -0.0809
      7 C7          1.2976   -2.0694   -0.2519 C.ar      1 <0>        -0.0096
      8 C8          2.5231   -2.6645   -0.2643 C.ar      1 <0>        -0.2222
      9 C9          3.6751   -1.8960   -0.0441 C.ar      1 <0>         0.4150
     10 N1          3.6064   -0.5993    0.1777 N.ar      1 <0>        -0.5363
     11 N2          4.9157   -2.5156   -0.0597 N.pl3     1 <0>        -0.6266
     12 C10         6.1561   -1.7247   -0.0617 C.3       1 <0>         0.1015
     13 C11         7.0719   -2.2550    1.0465 C.3       1 <0>        -0.0225
     14 N3          7.2730   -3.6982    0.8653 N.4       1 <0>        -0.5046
     15 C12         5.9976   -4.4059    1.0344 C.3       1 <0>        -0.0221
     16 C13         5.0286   -3.9823   -0.0687 C.3       1 <0>         0.0992
     17 H1         -0.9708    1.8557    0.2683 H         1 <0>         0.1324
     18 H2          1.1089    3.1113    0.6392 H         1 <0>         0.1343
     19 H3          3.2692    1.9888    0.6039 H         1 <0>         0.1349
     20 H4         -0.9189   -0.5453   -0.1515 H         1 <0>         0.1333
     21 H5          0.4000   -2.6463   -0.4193 H         1 <0>         0.1464
     22 H6          2.6072   -3.7262   -0.4432 H         1 <0>         0.1365
     23 H7          6.6530   -1.8250   -1.0266 H         1 <0>         0.0880
     24 H8          5.9227   -0.6768    0.1263 H         1 <0>         0.1390
     25 H9          8.0340   -1.7450    0.9980 H         1 <0>         0.1449
     26 H10         6.6116   -2.0712    2.0173 H         1 <0>         0.1341
     27 H11         7.6328   -3.8727   -0.0611 H         1 <0>         0.4286
     28 H12         6.1681   -5.4809    0.9769 H         1 <0>         0.1469
     29 H13         5.5698   -4.1571    2.0056 H         1 <0>         0.1344
     30 H14         4.0501   -4.4261    0.1146 H         1 <0>         0.1284
     31 H15         5.4097   -4.3144   -1.0344 H         1 <0>         0.0943
     32 H16         7.9351   -4.0327    1.5492 H         1 <0>         0.4339
@<TRIPOS>BOND
     1    1    6 ar
     2    1    2 ar
     3    1   17 1
     4    2    3 ar
     5    2   18 1
     6    3    4 ar
     7    3   19 1
     8    4   10 ar
     9    4    5 ar
    10    5    6 ar
    11    5    7 ar
    12    6   20 1
    13    7    8 ar
    14    7   21 1
    15    8    9 ar
    16    8   22 1
    17    9   10 ar
    18    9   11 1
    19   11   16 1
    20   11   12 1
    21   12   13 1
    22   12   23 1
    23   12   24 1
    24   13   14 1
    25   13   25 1
    26   13   26 1
    27   14   15 1
    28   14   27 1
    29   14   32 1
    30   15   16 1
    31   15   28 1
    32   15   29 1
    33   16   30 1
    34   16   31 1
@<TRIPOS>MOLECULE
ZINC02539813
   29    30     0     0     0
SMALL
USER_CHARGES

@<TRIPOS>ATOM
      1 C1         -0.0169    1.3975    0.0097 C.ar      1 <0>        -0.0643
      2 C2          1.1463    2.1089    0.0024 C.ar      1 <0>        -0.1252
      3 C3          2.3728    1.4480   -0.0128 C.ar      1 <0>         0.1197
      4 C4          2.4053    0.0394   -0.0207 C.ar      1 <0>        -0.1125
      5 C5          1.2161   -0.6846   -0.0130 C.ar      1 <0>        -0.0121
      6 C6          0.0021   -0.0041    0.0020 C.ar      1 <0>        -0.1565
      7 C7         -1.2668   -0.7591    0.0106 C.2       1 <0>         0.5664
      8 O1         -1.2509   -1.9747    0.0039 O.2       1 <0>        -0.5461
      9 N1         -2.4427   -0.1006    0.0258 N.am      1 <0>        -0.8483
     10 C8          3.8230   -0.3326   -0.0371 C.2       1 <0>        -0.1957
     11 C9          4.5266    0.8101   -0.0381 C.2       1 <0>         0.0855
     12 N2          3.6763    1.8825   -0.0237 N.pl3     1 <0>        -0.5837
     13 H1          3.9530    2.8122   -0.0215 H         1 <0>         0.4262
     14 C10         4.3836   -1.7314   -0.0499 C.3       1 <0>        -0.0648
     15 C11         4.4419   -2.2443   -1.4902 C.3       1 <0>        -0.0085
     16 N3          4.9884   -3.6078   -1.5026 N.4       1 <0>        -0.6386
     17 H2         -0.9624    1.9192    0.0261 H         1 <0>         0.1348
     18 H3          1.1168    3.1884    0.0082 H         1 <0>         0.1333
     19 H4          1.2355   -1.7645   -0.0193 H         1 <0>         0.1349
     20 H5         -2.4554    0.8693    0.0312 H         1 <0>         0.4024
     21 H6         -3.2762   -0.5966    0.0315 H         1 <0>         0.4094
     22 H7          5.6046    0.8742   -0.0483 H         1 <0>         0.1771
     23 H8          5.3877   -1.7243    0.3742 H         1 <0>         0.0945
     24 H9          3.7434   -2.3848    0.5429 H         1 <0>         0.0952
     25 H10         3.4379   -2.2514   -1.9143 H         1 <0>         0.1343
     26 H11         5.0821   -1.5909   -2.0829 H         1 <0>         0.1335
     27 H12         5.9178   -3.6013   -1.1100 H         1 <0>         0.4344
     28 H13         4.3958   -4.2127   -0.9539 H         1 <0>         0.4362
     29 H14         5.0268   -3.9461   -2.4524 H         1 <0>         0.4385
@<TRIPOS>BOND
     1    1    6 ar
     2    1    2 ar
     3    1   17 1
     4    2    3 ar
     5    2   18 1
     6    3   12 1
     7    3    4 ar
     8    4    5 ar
     9    4   10 1
    10    5    6 ar
    11    5   19 1
    12    6    7 1
    13    7    8 2
    14    7    9 am
    15    9   20 1
    16    9   21 1
    17   10   11 2
    18   10   14 1
    19   11   12 1
    20   11   22 1
    21   12   13 1
    22   14   15 1
    23   14   23 1
    24   14   24 1
    25   15   16 1
    26   15   25 1
    27   15   26 1
    28   16   27 1
    29   16   28 1
    30   16   29 1
@<TRIPOS>MOLECULE
ZINC03812975
   60    64     0     0     0
SMALL
USER_CHARGES

@<TRIPOS>ATOM
      1 C1         -0.0178    1.4608    0.0101 C.3       1 <0>         0.0716
      2 N1          0.0021   -0.0041    0.0020 N.pl3     1 <0>        -0.4812
      3 C2          0.0080   -0.7895   -1.1411 C.2       1 <0>         0.0913
      4 C3          0.0282   -2.0729   -0.8158 C.2       1 <0>        -0.2023
      5 C4          0.0400   -2.1061    0.6467 C.ar      1 <0>        -0.1336
      6 C5          0.0233   -0.7876    1.1160 C.ar      1 <0>         0.1162
      7 C6          0.0281   -0.6014    2.4974 C.ar      1 <0>        -0.1058
      8 C7          0.0555   -1.7454    3.2836 C.ar      1 <0>        -0.0964
      9 C8          0.0797   -3.0442    2.7772 C.ar      1 <0>        -0.1174
     10 C9          0.0695   -3.2585    1.4352 C.ar      1 <0>        -0.0501
     11 C10         0.1084   -4.5672    0.7055 C.3       1 <0>        -0.0367
     12 H1          1.1465   -4.8604    0.5493 H         1 <0>         0.1043
     13 C11        -0.5981   -5.6387    1.5422 C.3       1 <0>        -0.1264
     14 C12        -0.5917   -6.9634    0.7749 C.3       1 <0>        -0.1191
     15 H2          0.4364   -7.2946    0.6283 H         1 <0>         0.1074
     16 C13        -1.2619   -6.7580   -0.5856 C.3       1 <0>        -0.0110
     17 N2         -0.5193   -5.7488   -1.3493 N.4       1 <0>        -0.3819
     18 C14        -0.5941   -4.4602   -0.6486 C.3       1 <0>         0.0378
     19 H3         -1.6407   -4.2114   -0.4733 H         1 <0>         0.1390
     20 C15         0.0386   -3.3796   -1.5674 C.3       1 <0>        -0.0465
     21 C16        -1.1140   -5.6136   -2.6857 C.3       1 <0>        -0.0542
     22 C17        -1.3607   -8.0194    1.5713 C.3       1 <0>         0.1445
     23 N3         -1.2530   -9.3149    0.8957 N.am      1 <0>        -0.7202
     24 C18        -1.8561  -10.4004    1.4197 C.2       1 <0>         0.6478
     25 O1         -2.4890  -10.3045    2.4525 O.2       1 <0>        -0.5572
     26 O2         -1.7571  -11.5909    0.7987 O.3       1 <0>        -0.3583
     27 C19        -2.4213  -12.6986    1.4101 C.3       1 <0>         0.1298
     28 C20        -2.2011  -13.9369    0.5799 C.ar      1 <0>        -0.1065
     29 C21        -3.0857  -14.2560   -0.4333 C.ar      1 <0>        -0.0941
     30 C22        -2.8838  -15.3918   -1.1949 C.ar      1 <0>        -0.1226
     31 C23        -1.7970  -16.2083   -0.9436 C.ar      1 <0>        -0.1033
     32 C24        -0.9119  -15.8887    0.0690 C.ar      1 <0>        -0.1217
     33 C25        -1.1115  -14.7506    0.8278 C.ar      1 <0>        -0.0932
     34 H4          1.0048    1.8381    0.0023 H         1 <0>         0.0763
     35 H5         -0.5450    1.8219   -0.8730 H         1 <0>         0.0887
     36 H6         -0.5280    1.8123    0.9069 H         1 <0>         0.0865
     37 H7         -0.0028   -0.4089   -2.1517 H         1 <0>         0.1709
     38 H8          0.0117    0.3857    2.9353 H         1 <0>         0.1341
     39 H9          0.0586   -1.6213    4.3564 H         1 <0>         0.1280
     40 H10         0.1012   -3.8846    3.4551 H         1 <0>         0.1263
     41 H11        -0.0744   -5.7644    2.4899 H         1 <0>         0.1052
     42 H12        -1.6269   -5.3328    1.7318 H         1 <0>         0.0927
     43 H13        -1.2652   -7.6995   -1.1349 H         1 <0>         0.1320
     44 H14        -2.2876   -6.4199   -0.4381 H         1 <0>         0.1355
     45 H15        -0.5532   -3.2857   -2.4780 H         1 <0>         0.0973
     46 H16         1.0635   -3.6515   -1.8197 H         1 <0>         0.0936
     47 H17        -2.1551   -5.3050   -2.5906 H         1 <0>         0.1238
     48 H18        -0.5634   -4.8642   -3.2543 H         1 <0>         0.1297
     49 H19        -1.0648   -6.5713   -3.2039 H         1 <0>         0.1265
     50 H20        -0.9396   -8.0964    2.5738 H         1 <0>         0.0941
     51 H21        -2.4096   -7.7310    1.6390 H         1 <0>         0.0857
     52 H22        -0.7477   -9.3914    0.0712 H         1 <0>         0.4044
     53 H23        -2.0192  -12.8560    2.4109 H         1 <0>         0.0813
     54 H24        -3.4892  -12.4906    1.4762 H         1 <0>         0.0808
     55 H25        -3.9348  -13.6181   -0.6297 H         1 <0>         0.1240
     56 H26        -3.5753  -15.6415   -1.9860 H         1 <0>         0.1278
     57 H27        -1.6396  -17.0961   -1.5381 H         1 <0>         0.1277
     58 H28        -0.0630  -16.5268    0.2656 H         1 <0>         0.1284
     59 H29        -0.4179  -14.4989    1.6165 H         1 <0>         0.1249
     60 H30         0.4428   -6.0388   -1.4403 H         1 <0>         0.4239
@<TRIPOS>BOND
     1    1    2 1
     2    1   34 1
     3    1   35 1
     4    1   36 1
     5    2    6 1
     6    2    3 1
     7    3    4 2
     8    3   37 1
     9    4   20 1
    10    4    5 1
    11    5   10 ar
    12    5    6 ar
    13    6    7 ar
    14    7    8 ar
    15    7   38 1
    16    8    9 ar
    17    8   39 1
    18    9   10 ar
    19    9   40 1
    20   10   11 1
    21   11   12 1
    22   11   18 1
    23   11   13 1
    24   13   14 1
    25   13   41 1
    26   13   42 1
    27   14   15 1
    28   14   16 1
    29   14   22 1
    30   16   17 1
    31   16   43 1
    32   16   44 1
    33   17   18 1
    34   17   21 1
    35   17   60 1
    36   18   19 1
    37   18   20 1
    38   20   45 1
    39   20   46 1
    40   21   47 1
    41   21   48 1
    42   21   49 1
    43   22   23 1
    44   22   50 1
    45   22   51 1
    46   23   24 am
    47   23   52 1
    48   24   25 2
    49   24   26 1
    50   26   27 1
    51   27   28 1
    52   27   53 1
    53   27   54 1
    54   28   33 ar
    55   28   29 ar
    56   29   30 ar
    57   29   55 1
    58   30   31 ar
    59   30   56 1
    60   31   32 ar
    61   31   57 1
    62   32   33 ar
    63   32   58 1
    64   33   59 1
@<TRIPOS>MOLECULE
ZINC03825965
   61    64     0     0     0
SMALL
USER_CHARGES
2-[4-[4-(7-methoxy-1-naphthyl)piperazin-1-yl]butyl]-4-methyl-1,2,4-triazine-3,5-dione
@<TRIPOS>ATOM
      1 C1         -2.0231    1.8137    0.6582 C.3       1 <0>         0.0742
      2 N1         -0.7874    2.5524    0.3867 N.am      1 <0>        -0.5564
      3 C2         -0.8326    3.8813    0.1583 C.2       1 <0>         0.5084
      4 O1         -1.8956    4.4738    0.1762 O.2       1 <0>        -0.4669
      5 C3          0.4140    4.6017   -0.1163 C.2       1 <0>         0.0634
      6 N2          1.5380    3.9407   -0.1287 N.2       1 <0>        -0.1777
      7 N3          1.5393    2.5628    0.1185 N.am      1 <0>        -0.4527
      8 C4          0.3932    1.9057    0.3704 C.2       1 <0>         0.6789
      9 O2          0.4233    0.7087    0.5818 O.2       1 <0>        -0.5327
     10 C5          2.8060    1.8269    0.1029 C.3       1 <0>         0.1443
     11 C6          3.0823    1.3171   -1.3129 C.3       1 <0>        -0.1367
     12 C7          4.4051    0.5485   -1.3292 C.3       1 <0>        -0.1456
     13 C8          4.6814    0.0387   -2.7450 C.3       1 <0>        -0.0029
     14 C9          7.0843    0.1963   -2.4877 C.3       1 <0>        -0.0008
     15 C10         8.3766   -0.6219   -2.4340 C.3       1 <0>         0.0217
     16 N4          8.5611   -1.3257   -3.7108 N.pl3     1 <0>        -0.4829
     17 C11         7.4284   -2.2213   -3.9837 C.3       1 <0>         0.0173
     18 C12         6.1361   -1.4030   -4.0374 C.3       1 <0>         0.0026
     19 C13         9.7664   -2.0260   -3.7256 C.ar      1 <0>         0.0812
     20 C14        10.4947   -2.1813   -2.5657 C.ar      1 <0>        -0.1408
     21 C15        11.6964   -2.8835   -2.5687 C.ar      1 <0>        -0.1158
     22 C16        12.1912   -3.4252   -3.7158 C.ar      1 <0>        -0.0881
     23 C17        11.4824   -3.2847   -4.9213 C.ar      1 <0>        -0.0708
     24 C18        10.2549   -2.5774   -4.9297 C.ar      1 <0>        -0.0049
     25 C19         9.5469   -2.4379   -6.1332 C.ar      1 <0>        -0.1649
     26 C20        10.0499   -2.9838   -7.2801 C.ar      1 <0>         0.1412
     27 C21        11.2610   -3.6818   -7.2702 C.ar      1 <0>        -0.1852
     28 C22        11.9704   -3.8345   -6.1198 C.ar      1 <0>        -0.0583
     29 O3          9.3633   -2.8476   -8.4452 O.3       1 <0>        -0.3171
     30 C23         9.9390   -3.4413   -9.6106 C.3       1 <0>         0.0231
     31 H1         -2.2167    1.8112    1.7308 H         1 <0>         0.0809
     32 H2         -2.8540    2.2926    0.1401 H         1 <0>         0.0986
     33 H3         -1.9180    0.7877    0.3055 H         1 <0>         0.0965
     34 H4          0.4017    5.6648   -0.3060 H         1 <0>         0.2278
     35 H5          3.6143    2.4882    0.4152 H         1 <0>         0.1043
     36 H6          2.7433    0.9812    0.7878 H         1 <0>         0.1061
     37 H7          2.2740    0.6558   -1.6252 H         1 <0>         0.0811
     38 H8          3.1449    2.1627   -1.9978 H         1 <0>         0.0840
     39 H9          5.2134    1.2098   -1.0169 H         1 <0>         0.0927
     40 H10         4.3425   -0.2971   -0.6443 H         1 <0>         0.0923
     41 H11         3.8731   -0.6226   -3.0573 H         1 <0>         0.1313
     42 H12         4.7441    0.8843   -3.4299 H         1 <0>         0.1342
     43 H13         7.1581    0.9411   -3.2801 H         1 <0>         0.1413
     44 H14         6.9304    0.6962   -1.5314 H         1 <0>         0.1384
     45 H15         8.3135   -1.3486   -1.6240 H         1 <0>         0.0709
     46 H16         9.2218    0.0441   -2.2604 H         1 <0>         0.1291
     47 H17         7.3545   -2.9661   -3.1914 H         1 <0>         0.0693
     48 H18         7.5822   -2.7212   -4.9400 H         1 <0>         0.1333
     49 H19         5.2909   -2.0691   -4.2110 H         1 <0>         0.1378
     50 H20         6.1987   -0.6764   -4.8475 H         1 <0>         0.1413
     51 H21        10.1265   -1.7571   -1.6432 H         1 <0>         0.1270
     52 H22        12.2479   -2.9965   -1.6471 H         1 <0>         0.1296
     53 H23        13.1276   -3.9630   -3.6992 H         1 <0>         0.1330
     54 H24         8.6099   -1.9012   -6.1528 H         1 <0>         0.1365
     55 H25        11.6388   -4.1055   -8.1890 H         1 <0>         0.1364
     56 H26        12.9046   -4.3763   -6.1269 H         1 <0>         0.1387
     57 H27         9.2919   -3.2592  -10.4686 H         1 <0>         0.1058
     58 H28        10.9195   -3.0024   -9.7954 H         1 <0>         0.0600
     59 H29        10.0448   -4.5152   -9.4568 H         1 <0>         0.0595
     60 N5          5.9513   -0.7185   -2.7404 N.4       1 <0>        -0.3980
     61 H30         5.9174   -1.4221   -1.9934 H         1 <0>         0.4253
@<TRIPOS>BOND
     1    1    2 1
     2    1   31 1
     3    1   32 1
     4    1   33 1
     5    2    8 am
     6    2    3 am
     7    3    4 2
     8    3    5 1
     9    5    6 2
    10    5   34 1
    11    6    7 1
    12    7    8 am
    13    7   10 1
    14    8    9 2
    15   10   11 1
    16   10   35 1
    17   10   36 1
    18   11   12 1
    19   11   37 1
    20   11   38 1
    21   12   13 1
    22   12   39 1
    23   12   40 1
    24   13   41 1
    25   13   42 1
    26   13   60 1
    27   14   15 1
    28   14   43 1
    29   14   44 1
    30   14   60 1
    31   15   16 1
    32   15   45 1
    33   15   46 1
    34   16   17 1
    35   16   19 1
    36   17   18 1
    37   17   47 1
    38   17   48 1
    39   18   49 1
    40   18   50 1
    41   18   60 1
    42   19   24 ar
    43   19   20 ar
    44   20   21 ar
    45   20   51 1
    46   21   22 ar
    47   21   52 1
    48   22   23 ar
    49   22   53 1
    50   23   28 ar
    51   23   24 ar
    52   24   25 ar
    53   25   26 ar
    54   25   54 1
    55   26   27 ar
    56   26   29 1
    57   27   28 ar
    58   27   55 1
    59   28   56 1
    60   29   30 1
    61   30   57 1
    62   30   58 1
    63   30   59 1
    64   60   61 1
@<TRIPOS>MOLECULE
ZINC04913607
   38    39     0     0     0
SMALL
USER_CHARGES

@<TRIPOS>ATOM
      1 C1         -2.9945    0.8672    1.8501 C.3       1 <0>        -0.0473
      2 N1         -2.9290   -0.5410    1.4370 N.4       1 <0>        -0.3890
      3 C2         -4.2510   -0.9751    0.9660 C.3       1 <0>        -0.0541
      4 C3         -1.9500   -0.6880    0.3517 C.3       1 <0>        -0.0013
      5 C4         -1.7770   -2.1712    0.0183 C.3       1 <0>         0.0227
      6 O1         -1.2379   -2.8544    1.1517 O.3       1 <0>        -0.3202
      7 C5         -1.1174   -4.2042    1.0582 C.ar      1 <0>         0.1234
      8 C6         -1.4054   -4.8471   -0.1352 C.ar      1 <0>        -0.2013
      9 C7         -1.2829   -6.2203   -0.2288 C.ar      1 <0>        -0.0758
     10 C8         -0.8723   -6.9610    0.8656 C.ar      1 <0>        -0.1371
     11 C9         -0.5822   -6.3337    2.0601 C.ar      1 <0>        -0.0671
     12 C10        -0.6968   -4.9492    2.1639 C.ar      1 <0>        -0.0682
     13 C11        -0.3799   -4.2692    3.4435 C.ar      1 <0>        -0.0471
     14 C12         0.5436   -3.2258    3.4711 C.ar      1 <0>        -0.0994
     15 C13         0.8342   -2.5964    4.6644 C.ar      1 <0>        -0.1222
     16 C14         0.2109   -2.9994    5.8317 C.ar      1 <0>        -0.1144
     17 C15        -0.7062   -4.0348    5.8103 C.ar      1 <0>        -0.1169
     18 C16        -1.0088   -4.6676    4.6217 C.ar      1 <0>        -0.1070
     19 H1         -3.7209    0.9762    2.6554 H         1 <0>         0.1256
     20 H2         -2.0136    1.1893    2.1995 H         1 <0>         0.1246
     21 H3         -3.2976    1.4809    1.0018 H         1 <0>         0.1233
     22 H4         -4.5838   -0.3188    0.1619 H         1 <0>         0.1250
     23 H5         -4.1871   -1.9987    0.5967 H         1 <0>         0.1208
     24 H6         -4.9631   -0.9300    1.7900 H         1 <0>         0.1269
     25 H7         -2.3039   -0.1560   -0.5314 H         1 <0>         0.1493
     26 H8         -0.9929   -0.2724    0.6670 H         1 <0>         0.1422
     27 H9         -2.7451   -2.6012   -0.2385 H         1 <0>         0.0868
     28 H10        -1.0968   -2.2766   -0.8269 H         1 <0>         0.1091
     29 H11        -1.7263   -4.2744   -0.9927 H         1 <0>         0.1293
     30 H12        -1.5089   -6.7178   -1.1604 H         1 <0>         0.1327
     31 H13        -0.7788   -8.0339    0.7848 H         1 <0>         0.1342
     32 H14        -0.2627   -6.9150    2.9124 H         1 <0>         0.1369
     33 H15         1.0311   -2.9106    2.5604 H         1 <0>         0.1205
     34 H16         1.5499   -1.7880    4.6871 H         1 <0>         0.1242
     35 H17         0.4413   -2.5041    6.7633 H         1 <0>         0.1251
     36 H18        -1.1894   -4.3458    6.7247 H         1 <0>         0.1269
     37 H19        -1.7283   -5.4728    4.6053 H         1 <0>         0.1242
     38 H20        -2.6485   -1.1091    2.2222 H         1 <0>         0.4345
@<TRIPOS>BOND
     1    1    2 1
     2    1   19 1
     3    1   20 1
     4    1   21 1
     5    2    3 1
     6    2    4 1
     7    2   38 1
     8    3   22 1
     9    3   23 1
    10    3   24 1
    11    4    5 1
    12    4   25 1
    13    4   26 1
    14    5    6 1
    15    5   27 1
    16    5   28 1
    17    6    7 1
    18    7   12 ar
    19    7    8 ar
    20    8    9 ar
    21    8   29 1
    22    9   10 ar
    23    9   30 1
    24   10   11 ar
    25   10   31 1
    26   11   12 ar
    27   11   32 1
    28   12   13 1
    29   13   18 ar
    30   13   14 ar
    31   14   15 ar
    32   14   33 1
    33   15   16 ar
    34   15   34 1
    35   16   17 ar
    36   16   35 1
    37   17   18 ar
    38   17   36 1
    39   18   37 1
@<TRIPOS>MOLECULE
ZINC04364558
   61    63     0     0     0
SMALL
USER_CHARGES

@<TRIPOS>ATOM
      1 C1         -0.0184    1.5028    0.0103 C.3       1 <0>        -0.1293
      2 C2          0.0021   -0.0041    0.0020 C.ar      1 <0>        -0.0228
      3 C3          0.0057   -0.6887   -1.1989 C.ar      1 <0>        -0.1410
      4 C4          0.0245   -2.0709   -1.2065 C.ar      1 <0>        -0.0137
      5 C5          0.0400   -2.7685   -0.0132 C.ar      1 <0>        -0.6874
      6 C6          0.0373   -2.0839    1.1877 C.ar      1 <0>        -0.0204
      7 C7          0.0229   -0.7016    1.1953 C.ar      1 <0>        -0.1428
      8 S1          0.0628   -4.5303   -0.0229 S.o2      1 <0>         2.6949
      9 O1         -0.4759   -4.9503    1.2232 O.2       1 <0>        -0.9529
     10 O2         -0.4897   -4.9367   -1.2674 O.2       1 <0>        -0.9502
     11 N1          1.6509   -4.9994   -0.0343 N.pl3     1 <0>        -1.1200
     12 C8          2.5116   -4.6990    1.1125 C.3       1 <0>         0.1150
     13 C9          3.7866   -5.5405    1.0275 C.3       1 <0>        -0.1251
     14 C10         4.6855   -5.2267    2.2252 C.3       1 <0>        -0.1493
     15 C11         5.9605   -6.0682    2.1402 C.3       1 <0>        -0.0089
     16 N2          6.8236   -5.7669    3.2901 N.4       1 <0>        -0.3796
     17 C12         7.2637   -4.3680    3.2162 C.3       1 <0>        -0.0273
     18 C13         8.0690   -4.0200    4.4724 C.3       1 <0>         0.1235
     19 N3          9.1627   -4.9941    4.6100 N.pl3     1 <0>        -0.6645
     20 C14         8.8306   -6.4251    4.5309 C.3       1 <0>         0.1229
     21 C15         7.9894   -6.6596    3.2719 C.3       1 <0>        -0.0218
     22 C16        10.4819   -4.5715    4.8109 C.ar      1 <0>         0.1113
     23 C17        10.9666   -4.3931    6.0984 C.ar      1 <0>        -0.0783
     24 C18        12.2698   -3.9761    6.2942 C.ar      1 <0>        -0.1457
     25 C19        13.0927   -3.7361    5.2094 C.ar      1 <0>        -0.0681
     26 C20        12.6164   -3.9119    3.9232 C.ar      1 <0>        -0.2019
     27 C21        11.3134   -4.3346    3.7185 C.ar      1 <0>         0.1235
     28 O3         10.8452   -4.5129    2.4540 O.3       1 <0>        -0.3191
     29 C22        11.7540   -4.2509    1.3828 C.3       1 <0>         0.0226
     30 H1          1.0042    1.8801    0.0026 H         1 <0>         0.0810
     31 H2         -0.5455    1.8639   -0.8728 H         1 <0>         0.0763
     32 H3         -0.5286    1.8543    0.9071 H         1 <0>         0.0756
     33 H4         -0.0064   -0.1436   -2.1312 H         1 <0>         0.1356
     34 H5          0.0266   -2.6057   -2.1448 H         1 <0>         0.1415
     35 H6          0.0491   -2.6289    2.1200 H         1 <0>         0.1390
     36 H7          0.0245   -0.1667    2.1335 H         1 <0>         0.1342
     37 H8          2.0112   -5.4731   -0.8002 H         1 <0>         0.4211
     38 H9          2.7734   -3.6409    1.1030 H         1 <0>         0.0689
     39 H10         1.9820   -4.9339    2.0358 H         1 <0>         0.0852
     40 H11         3.5249   -6.5986    1.0370 H         1 <0>         0.0861
     41 H12         4.3162   -5.3055    0.1043 H         1 <0>         0.0831
     42 H13         4.9473   -4.1686    2.2156 H         1 <0>         0.0907
     43 H14         4.1560   -5.4617    3.1484 H         1 <0>         0.0931
     44 H15         5.6988   -7.1263    2.1497 H         1 <0>         0.1322
     45 H16         6.4901   -5.8332    1.2169 H         1 <0>         0.1292
     46 H17         7.8887   -4.2298    2.3339 H         1 <0>         0.1327
     47 H18         6.3927   -3.7160    3.1506 H         1 <0>         0.1348
     48 H19         8.4826   -3.0161    4.3759 H         1 <0>         0.1124
     49 H20         7.4217   -4.0700    5.3480 H         1 <0>         0.0771
     50 H21         9.7477   -7.0113    4.4731 H         1 <0>         0.1131
     51 H22         8.2602   -6.7179    5.4124 H         1 <0>         0.0774
     52 H23         7.6531   -7.6961    3.2474 H         1 <0>         0.1342
     53 H24         8.5924   -6.4520    2.3880 H         1 <0>         0.1324
     54 H25        10.3257   -4.5795    6.9475 H         1 <0>         0.1317
     55 H26        12.6460   -3.8371    7.2969 H         1 <0>         0.1318
     56 H27        14.1102   -3.4101    5.3671 H         1 <0>         0.1320
     57 H28        13.2619   -3.7235    3.0780 H         1 <0>         0.1331
     58 H29        12.0817   -3.2124    1.4300 H         1 <0>         0.0594
     59 H30        12.6184   -4.9091    1.4705 H         1 <0>         0.0596
     60 H31        11.2550   -4.4315    0.4307 H         1 <0>         0.1011
     61 H32         6.3057   -5.9094    4.1442 H         1 <0>         0.4210
@<TRIPOS>BOND
     1    1    2 1
     2    1   30 1
     3    1   31 1
     4    1   32 1
     5    2    7 ar
     6    2    3 ar
     7    3    4 ar
     8    3   33 1
     9    4    5 ar
    10    4   34 1
    11    5    6 ar
    12    5    8 1
    13    6    7 ar
    14    6   35 1
    15    7   36 1
    16    8    9 2
    17    8   10 2
    18    8   11 1
    19   11   12 1
    20   11   37 1
    21   12   13 1
    22   12   38 1
    23   12   39 1
    24   13   14 1
    25   13   40 1
    26   13   41 1
    27   14   15 1
    28   14   42 1
    29   14   43 1
    30   15   16 1
    31   15   44 1
    32   15   45 1
    33   16   21 1
    34   16   17 1
    35   16   61 1
    36   17   18 1
    37   17   46 1
    38   17   47 1
    39   18   19 1
    40   18   48 1
    41   18   49 1
    42   19   20 1
    43   19   22 1
    44   20   21 1
    45   20   50 1
    46   20   51 1
    47   21   52 1
    48   21   53 1
    49   22   27 ar
    50   22   23 ar
    51   23   24 ar
    52   23   54 1
    53   24   25 ar
    54   24   55 1
    55   25   26 ar
    56   25   56 1
    57   26   27 ar
    58   26   57 1
    59   27   28 1
    60   28   29 1
    61   29   58 1
    62   29   59 1
    63   29   60 1
@<TRIPOS>MOLECULE
ZINC04364558
   60    62     0     0     0
SMALL
USER_CHARGES

@<TRIPOS>ATOM
      1 C1         -0.0184    1.5028    0.0103 C.3       1 <0>        -0.1265
      2 C2          0.0021   -0.0041    0.0020 C.ar      1 <0>        -0.0275
      3 C3          0.0057   -0.6887   -1.1989 C.ar      1 <0>        -0.1431
      4 C4          0.0245   -2.0709   -1.2065 C.ar      1 <0>        -0.0146
      5 C5          0.0400   -2.7685   -0.0132 C.ar      1 <0>        -0.6844
      6 C6          0.0373   -2.0839    1.1877 C.ar      1 <0>        -0.0172
      7 C7          0.0229   -0.7016    1.1953 C.ar      1 <0>        -0.1424
      8 S1          0.0628   -4.5303   -0.0229 S.o2      1 <0>         2.6953
      9 O1         -0.4759   -4.9503    1.2232 O.2       1 <0>        -0.9548
     10 O2         -0.4897   -4.9367   -1.2674 O.2       1 <0>        -0.9584
     11 N1          1.6509   -4.9994   -0.0343 N.pl3     1 <0>        -1.1174
     12 C8          2.5116   -4.6990    1.1125 C.3       1 <0>         0.1155
     13 C9          3.7866   -5.5405    1.0275 C.3       1 <0>        -0.1250
     14 C10         4.6855   -5.2267    2.2252 C.3       1 <0>        -0.1158
     15 C11         5.9605   -6.0682    2.1402 C.3       1 <0>         0.0568
     16 N2          6.8236   -5.7669    3.2901 N.3       1 <0>        -0.5346
     17 C12         7.3070   -4.3808    3.2366 C.3       1 <0>         0.0389
     18 C13         8.0496   -4.0518    4.5360 C.3       1 <0>         0.1536
     19 N3          9.0930   -5.0666    4.7476 N.pl3     1 <0>        -0.6688
     20 C14         8.7088   -6.4846    4.6786 C.3       1 <0>         0.1537
     21 C15         7.9402   -6.7178    3.3736 C.3       1 <0>         0.0421
     22 C16        10.4165   -4.6927    5.0080 C.ar      1 <0>         0.1391
     23 C17        10.8423   -4.5070    6.3152 C.ar      1 <0>        -0.0868
     24 C18        12.1498   -4.1382    6.5698 C.ar      1 <0>        -0.1512
     25 C19        13.0357   -3.9538    5.5245 C.ar      1 <0>        -0.0842
     26 C20        12.6183   -4.1371    4.2190 C.ar      1 <0>        -0.2069
     27 C21        11.3112   -4.5118    3.9556 C.ar      1 <0>         0.1174
     28 O3         10.9007   -4.6975    2.6723 O.3       1 <0>        -0.3056
     29 C22        11.8724   -4.4943    1.6444 C.3       1 <0>         0.0254
     30 H1          1.0042    1.8801    0.0026 H         1 <0>         0.0801
     31 H2         -0.5455    1.8639   -0.8728 H         1 <0>         0.0736
     32 H3         -0.5286    1.8543    0.9071 H         1 <0>         0.0738
     33 H4         -0.0064   -0.1436   -2.1312 H         1 <0>         0.1332
     34 H5          0.0266   -2.6057   -2.1448 H         1 <0>         0.1403
     35 H6          0.0491   -2.6289    2.1200 H         1 <0>         0.1408
     36 H7          0.0245   -0.1667    2.1335 H         1 <0>         0.1337
     37 H8          2.0112   -5.4731   -0.8002 H         1 <0>         0.4194
     38 H9          2.7734   -3.6409    1.1030 H         1 <0>         0.0651
     39 H10         1.9820   -4.9339    2.0358 H         1 <0>         0.0829
     40 H11         3.5249   -6.5986    1.0370 H         1 <0>         0.0747
     41 H12         4.3162   -5.3055    0.1043 H         1 <0>         0.0694
     42 H13         4.9473   -4.1686    2.2156 H         1 <0>         0.0657
     43 H14         4.1560   -5.4617    3.1484 H         1 <0>         0.0773
     44 H15         5.6988   -7.1263    2.1497 H         1 <0>         0.0748
     45 H16         6.4901   -5.8332    1.2169 H         1 <0>         0.0318
     46 H17         7.9847   -4.2643    2.3908 H         1 <0>         0.0381
     47 H18         6.4601   -3.7045    3.1204 H         1 <0>         0.0792
     48 H19         8.5082   -3.0662    4.4562 H         1 <0>         0.0674
     49 H20         7.3498   -4.0665    5.3715 H         1 <0>         0.0567
     50 H21         9.6032   -7.1075    4.6931 H         1 <0>         0.0681
     51 H22         8.0723   -6.7332    5.5279 H         1 <0>         0.0570
     52 H23         7.5526   -7.7364    3.3568 H         1 <0>         0.0768
     53 H24         8.6091   -6.5688    2.5260 H         1 <0>         0.0386
     54 H25        10.1522   -4.6501    7.1336 H         1 <0>         0.1291
     55 H26        12.4802   -3.9935    7.5878 H         1 <0>         0.1247
     56 H27        14.0564   -3.6653    5.7281 H         1 <0>         0.1243
     57 H28        13.3129   -3.9922    3.4048 H         1 <0>         0.1266
     58 H29        11.4153   -4.6746    0.6715 H         1 <0>         0.0968
     59 H30        12.2394   -3.4689    1.6890 H         1 <0>         0.0538
     60 H31        12.7037   -5.1843    1.7888 H         1 <0>         0.0540
@<TRIPOS>BOND
     1    1    2 1
     2    1   30 1
     3    1   31 1
     4    1   32 1
     5    2    7 ar
     6    2    3 ar
     7    3    4 ar
     8    3   33 1
     9    4    5 ar
    10    4   34 1
    11    5    6 ar
    12    5    8 1
    13    6    7 ar
    14    6   35 1
    15    7   36 1
    16    8    9 2
    17    8   10 2
    18    8   11 1
    19   11   12 1
    20   11   37 1
    21   12   13 1
    22   12   38 1
    23   12   39 1
    24   13   14 1
    25   13   40 1
    26   13   41 1
    27   14   15 1
    28   14   42 1
    29   14   43 1
    30   15   16 1
    31   15   44 1
    32   15   45 1
    33   16   21 1
    34   16   17 1
    35   17   18 1
    36   17   46 1
    37   17   47 1
    38   18   19 1
    39   18   48 1
    40   18   49 1
    41   19   20 1
    42   19   22 1
    43   20   21 1
    44   20   50 1
    45   20   51 1
    46   21   52 1
    47   21   53 1
    48   22   27 ar
    49   22   23 ar
    50   23   24 ar
    51   23   54 1
    52   24   25 ar
    53   24   55 1
    54   25   26 ar
    55   25   56 1
    56   26   27 ar
    57   26   57 1
    58   27   28 1
    59   28   29 1
    60   29   58 1
    61   29   59 1
    62   29   60 1
@<TRIPOS>MOLECULE
ZINC05845906
   47    50     0     0     0
SMALL
USER_CHARGES
N,N-diethylBLAHcarboxamide
@<TRIPOS>ATOM
      1 C1         10.1154    4.0908    0.9629 C.3       1 <0>        -0.1689
      2 C2          9.3827    2.8749    0.3922 C.3       1 <0>         0.1059
      3 N1          8.0009    2.8649    0.8788 N.am      1 <0>        -0.5994
      4 C3          7.6685    2.1724    2.1263 C.3       1 <0>         0.0952
      5 C4          7.4223    0.6903    1.8369 C.3       1 <0>        -0.1777
      6 C5          7.0353    3.4927    0.1787 C.2       1 <0>         0.5275
      7 O1          7.2960    4.0041   -0.8897 O.2       1 <0>        -0.5215
      8 C6          5.6318    3.5591    0.7234 C.3       1 <0>        -0.1037
      9 H1          5.6614    3.5800    1.8128 H         1 <0>         0.1318
     10 C7          4.9344    4.8203    0.2009 C.3       1 <0>         0.0123
     11 C8          2.7678    3.7075    0.1065 C.3       1 <0>         0.0770
     12 H2          2.4882    4.0087   -0.9030 H         1 <0>         0.1432
     13 C9          1.4649    3.5406    0.9006 C.3       1 <0>        -0.0418
     14 C10         0.7175    2.3378    0.3870 C.2       1 <0>        -0.2020
     15 C11        -0.5543    1.9528    0.3780 C.2       1 <0>         0.0975
     16 N2         -0.6768    0.7107   -0.2254 N.pl3     1 <0>        -0.5870
     17 H3         -1.5125    0.2323   -0.3424 H         1 <0>         0.4251
     18 C12         0.5420    0.2565   -0.6301 C.ar      1 <0>         0.1110
     19 C13         1.4473    1.2572   -0.2660 C.ar      1 <0>        -0.1239
     20 C14         2.8384    1.2287   -0.4974 C.ar      1 <0>        -0.0315
     21 C15         3.3141    0.1000   -1.1249 C.ar      1 <0>        -0.1002
     22 C16         2.4291   -0.9121   -1.4903 C.ar      1 <0>        -0.0995
     23 C17         1.0578   -0.8723   -1.2655 C.ar      1 <0>        -0.0957
     24 C18         3.5615    2.4339   -0.0168 C.2       1 <0>        -0.0571
     25 C19         4.8510    2.3587    0.2604 C.2       1 <0>        -0.1318
     26 H4          9.6109    5.0024    0.6427 H         1 <0>         0.0578
     27 H5         10.1140    4.0379    2.0516 H         1 <0>         0.0583
     28 H6         11.1436    4.0983    0.6009 H         1 <0>         0.0748
     29 H7          9.8872    1.9633    0.7124 H         1 <0>         0.0855
     30 H8          9.3842    2.9278   -0.6965 H         1 <0>         0.0902
     31 H9          8.4957    2.2728    2.8290 H         1 <0>         0.0904
     32 H10         6.7696    2.6126    2.5579 H         1 <0>         0.0795
     33 H11         6.6661    0.5930    1.0579 H         1 <0>         0.0576
     34 H12         8.3502    0.2263    1.5026 H         1 <0>         0.0670
     35 H13         7.0751    0.1958    2.7441 H         1 <0>         0.0761
     36 H14         5.4408    5.7053    0.5861 H         1 <0>         0.1448
     37 H15         4.9603    4.8285   -0.8888 H         1 <0>         0.1508
     38 H16         0.8482    4.4312    0.7788 H         1 <0>         0.1024
     39 H17         1.6977    3.4007    1.9562 H         1 <0>         0.0943
     40 H18        -1.3758    2.5276    0.7793 H         1 <0>         0.1766
     41 H19         4.3689   -0.0006   -1.3337 H         1 <0>         0.1277
     42 H20         2.8350   -1.7850   -1.9798 H         1 <0>         0.1319
     43 H21         0.4160   -1.6853   -1.5713 H         1 <0>         0.1379
     44 H22         5.3579    1.4112    0.1523 H         1 <0>         0.1469
     45 N3          3.5405    4.8156    0.6902 N.4       1 <0>        -0.5113
     46 H23         3.0942    5.7044    0.4349 H         1 <0>         0.4451
     47 H24         3.5459    4.7166    1.7122 H         1 <0>         0.4312
@<TRIPOS>BOND
     1    1    2 1
     2    1   26 1
     3    1   27 1
     4    1   28 1
     5    2    3 1
     6    2   29 1
     7    2   30 1
     8    3    4 1
     9    3    6 am
    10    4    5 1
    11    4   31 1
    12    4   32 1
    13    5   33 1
    14    5   34 1
    15    5   35 1
    16    6    7 2
    17    6    8 1
    18    8    9 1
    19    8   25 1
    20    8   10 1
    21   10   36 1
    22   10   37 1
    23   10   45 1
    24   11   12 1
    25   11   24 1
    26   11   13 1
    27   11   45 1
    28   13   14 1
    29   13   38 1
    30   13   39 1
    31   14   19 1
    32   14   15 2
    33   15   16 1
    34   15   40 1
    35   16   17 1
    36   16   18 1
    37   18   23 ar
    38   18   19 ar
    39   19   20 ar
    40   20   21 ar
    41   20   24 1
    42   21   22 ar
    43   21   41 1
    44   22   23 ar
    45   22   42 1
    46   23   43 1
    47   24   25 2
    48   25   44 1
    49   45   46 1
    50   45   47 1
@<TRIPOS>MOLECULE
ZINC28821767
   34    35     0     0     0
SMALL
USER_CHARGES
2-[3-(o-tolyl)phenyl]ethanamine
@<TRIPOS>ATOM
      1 C1         -0.5565    3.4272   -5.7427 C.3       1 <0>        -0.1256
      2 C2         -0.4565    4.6546   -4.8740 C.ar      1 <0>        -0.0670
      3 C3         -0.1215    5.8716   -5.4326 C.ar      1 <0>        -0.1167
      4 C4         -0.0242    6.9978   -4.6357 C.ar      1 <0>        -0.1057
      5 C5         -0.2669    6.9126   -3.2764 C.ar      1 <0>        -0.1244
      6 C6         -0.6072    5.7019   -2.7083 C.ar      1 <0>        -0.1025
      7 C7         -0.7067    4.5640   -3.5065 C.ar      1 <0>        -0.0670
      8 C8         -1.0719    3.2593   -2.9011 C.ar      1 <0>        -0.0279
      9 C9         -2.0909    2.4900   -3.4595 C.ar      1 <0>        -0.0950
     10 C10        -2.4266    1.2776   -2.8922 C.ar      1 <0>        -0.1109
     11 C11        -1.7501    0.8232   -1.7743 C.ar      1 <0>        -0.1108
     12 C12        -0.7416    1.5850   -1.2129 C.ar      1 <0>        -0.1071
     13 C13        -0.3975    2.7992   -1.7722 C.ar      1 <0>        -0.1004
     14 C14        -0.0127    1.0858    0.0080 C.3       1 <0>        -0.1024
     15 C15        -0.7288    1.5792    1.2668 C.3       1 <0>        -0.0002
     16 N1         -0.0184    1.0926    2.4569 N.4       1 <0>        -0.6876
     17 H1         -0.3258    3.6954   -6.7843 H         1 <0>         0.0707
     18 H2         -1.5769    3.0202   -5.6863 H         1 <0>         0.0751
     19 H3          0.1602    2.6702   -5.3916 H         1 <0>         0.0704
     20 H4          0.0690    5.9438   -6.4932 H         1 <0>         0.1281
     21 H5          0.2426    7.9471   -5.0762 H         1 <0>         0.1274
     22 H6         -0.1895    7.7951   -2.6587 H         1 <0>         0.1262
     23 H7         -0.7958    5.6364   -1.6469 H         1 <0>         0.1198
     24 H8         -2.6166    2.8417   -4.3349 H         1 <0>         0.1330
     25 H9         -3.2162    0.6806   -3.3241 H         1 <0>         0.1315
     26 H10        -2.0133   -0.1281   -1.3359 H         1 <0>         0.1242
     27 H11         0.3932    3.3913   -1.3356 H         1 <0>         0.1245
     28 H12         0.0022   -0.0141    0.0019 H         1 <0>         0.0950
     29 H13         1.0193    1.4665    0.0002 H         1 <0>         0.0941
     30 H14        -0.7437    2.6791    1.2729 H         1 <0>         0.1291
     31 H15        -1.7608    1.1985    1.2746 H         1 <0>         0.1298
     32 H16        -0.5333    1.4474    3.3619 H         1 <0>         0.4604
     33 H17         1.0136    1.4733    2.4491 H         1 <0>         0.4561
     34 H18        -0.0035   -0.0073    2.4509 H         1 <0>         0.4561
@<TRIPOS>BOND
     1    1    2 1
     2    1   17 1
     3    1   18 1
     4    1   19 1
     5    2    7 ar
     6    2    3 ar
     7    3    4 ar
     8    3   20 1
     9    4    5 ar
    10    4   21 1
    11    5    6 ar
    12    5   22 1
    13    6    7 ar
    14    6   23 1
    15    7    8 1
    16    8   13 ar
    17    8    9 ar
    18    9   10 ar
    19    9   24 1
    20   10   11 ar
    21   10   25 1
    22   11   12 ar
    23   11   26 1
    24   12   13 ar
    25   12   14 1
    26   13   27 1
    27   14   15 1
    28   14   28 1
    29   14   29 1
    30   15   16 1
    31   15   30 1
    32   15   31 1
    33   16   32 1
    34   16   33 1
    35   16   34 1
@<TRIPOS>MOLECULE
ZINC19688764
   39    42     0     0     0
SMALL
USER_CHARGES
(1S)-1-(3-methoxyphenyl)-2,3,4,9-tetrahydro-1H-pyrido[3,4-b]indole
@<TRIPOS>ATOM
      1 C1         -5.5870    1.2674    6.3640 C.3       1 <0>         0.0232
      2 O1         -4.8825    0.5805    5.3277 O.3       1 <0>        -0.3168
      3 C2         -4.1769    1.3427    4.4514 C.ar      1 <0>         0.1319
      4 C3         -4.1633    2.7237    4.5858 C.ar      1 <0>        -0.2061
      5 C4         -3.4457    3.4962    3.6936 C.ar      1 <0>        -0.0737
      6 C5         -2.7367    2.8941    2.6703 C.ar      1 <0>        -0.1371
      7 C6         -2.7533    1.5188    2.5308 C.ar      1 <0>        -0.0408
      8 C7         -3.4695    0.7416    3.4207 C.ar      1 <0>        -0.1509
      9 C8         -1.9845    0.8664    1.4108 C.3       1 <0>         0.1853
     10 H1         -1.7817   -0.1832    1.6702 H         1 <0>         0.1081
     11 C9         -2.7776    0.9604    0.1287 C.2       1 <0>         0.0385
     12 C10        -2.2218    1.2904   -1.0594 C.2       1 <0>        -0.1737
     13 C11        -3.2812    1.2837   -2.0433 C.ar      1 <0>        -0.1011
     14 C12        -3.3055    1.5432   -3.4172 C.ar      1 <0>        -0.0676
     15 C13        -4.5205    1.4398   -4.0478 C.ar      1 <0>        -0.1510
     16 C14        -5.6767    1.0956   -3.3667 C.ar      1 <0>        -0.1005
     17 C15        -5.6823    0.8332   -2.0078 C.ar      1 <0>        -0.1323
     18 C16        -4.4629    0.9300   -1.3410 C.ar      1 <0>         0.1111
     19 N1         -4.1186    0.7417   -0.0327 N.pl3     1 <0>        -0.5853
     20 H2         -4.7378    0.4596    0.8316 H         1 <0>         0.4401
     21 C17        -0.7552    1.5943   -1.2353 C.3       1 <0>        -0.0822
     22 C18        -0.0127    1.0858    0.0080 C.3       1 <0>         0.0452
     23 N2         -0.7008    1.5599    1.2171 N.3       1 <0>        -0.6483
     24 H3         -6.1116    0.5368    6.9972 H         1 <0>         0.1036
     25 H4         -6.3183    1.9562    5.9159 H         1 <0>         0.0570
     26 H5         -4.8734    1.8380    6.9765 H         1 <0>         0.0580
     27 H6         -4.7129    3.1941    5.3877 H         1 <0>         0.1292
     28 H7         -3.4345    4.5711    3.7980 H         1 <0>         0.1276
     29 H8         -2.1724    3.4996    1.9765 H         1 <0>         0.1237
     30 H9         -3.4783   -0.3331    3.3141 H         1 <0>         0.1314
     31 H10        -2.4098    1.8129   -3.9572 H         1 <0>         0.1272
     32 H11        -4.5769    1.6334   -5.1088 H         1 <0>         0.1176
     33 H12        -6.6050    1.0295   -3.9147 H         1 <0>         0.1203
     34 H13        -6.5905    0.5659   -1.4880 H         1 <0>         0.1260
     35 H14        -0.3808    1.0855   -2.1358 H         1 <0>         0.0783
     36 H15        -0.6161    2.6801   -1.3431 H         1 <0>         0.0731
     37 H16         0.0022   -0.0141    0.0019 H         1 <0>         0.0766
     38 H17         1.0193    1.4665    0.0001 H         1 <0>         0.0899
     39 H18        -0.8795    2.6406    1.1161 H         1 <0>         0.3446
@<TRIPOS>BOND
     1    1    2 1
     2    1   24 1
     3    1   25 1
     4    1   26 1
     5    2    3 1
     6    3    8 ar
     7    3    4 ar
     8    4    5 ar
     9    4   27 1
    10    5    6 ar
    11    5   28 1
    12    6    7 ar
    13    6   29 1
    14    7    8 ar
    15    7    9 1
    16    8   30 1
    17    9   10 1
    18    9   23 1
    19    9   11 1
    20   11   19 1
    21   11   12 2
    22   12   13 1
    23   12   21 1
    24   13   18 ar
    25   13   14 ar
    26   14   15 ar
    27   14   31 1
    28   15   16 ar
    29   15   32 1
    30   16   17 ar
    31   16   33 1
    32   17   18 ar
    33   17   34 1
    34   18   19 1
    35   19   20 1
    36   21   22 1
    37   21   35 1
    38   21   36 1
    39   22   23 1
    40   22   37 1
    41   22   38 1
    42   23   39 1
@<TRIPOS>MOLECULE
ZINC19688766
   39    42     0     0     0
SMALL
USER_CHARGES
(1R)-1-(3-methoxyphenyl)-2,3,4,9-tetrahydro-1H-pyrido[3,4-b]indole
@<TRIPOS>ATOM
      1 C1          9.5118   -2.6774    1.8670 C.3       1 <0>         0.0237
      2 O1          8.4695   -2.7434    0.8917 O.3       1 <0>        -0.3182
      3 C2          7.2153   -3.0037    1.3458 C.ar      1 <0>         0.1254
      4 C3          6.9925   -3.1918    2.7023 C.ar      1 <0>        -0.2030
      5 C4          5.7169   -3.4566    3.1613 C.ar      1 <0>        -0.0828
      6 C5          4.6625   -3.5349    2.2700 C.ar      1 <0>        -0.1149
      7 C6          4.8820   -3.3483    0.9179 C.ar      1 <0>        -0.0516
      8 C7          6.1568   -3.0878    0.4533 C.ar      1 <0>        -0.1533
      9 C8          3.7308   -3.4352   -0.0507 C.3       1 <0>         0.1900
     10 H1          4.1168   -3.6519   -1.0577 H         1 <0>         0.0669
     11 C9          2.9563   -2.1376   -0.0384 C.2       1 <0>         0.0775
     12 C10         1.6085   -2.0882   -0.0267 C.2       1 <0>        -0.1617
     13 C11         1.2225   -0.6834   -0.0136 C.ar      1 <0>        -0.0999
     14 C12         0.0021   -0.0041    0.0020 C.ar      1 <0>        -0.0706
     15 C13        -0.0164    1.3615    0.0095 C.ar      1 <0>        -0.1478
     16 C14         1.1696    2.0832    0.0021 C.ar      1 <0>        -0.1001
     17 C15         2.3849    1.4353   -0.0127 C.ar      1 <0>        -0.1305
     18 C16         2.4285    0.0452   -0.0208 C.ar      1 <0>         0.1111
     19 N1          3.4598   -0.8696   -0.0354 N.pl3     1 <0>        -0.5918
     20 H2          4.5481   -0.7100   -0.0442 H         1 <0>         0.4376
     21 C17         0.7252   -3.3096   -0.0303 C.3       1 <0>        -0.0437
     22 C18         1.5863   -4.5128   -0.4403 C.3       1 <0>         0.0486
     23 N2          2.8234   -4.5217    0.3529 N.3       1 <0>        -0.6591
     24 H3         10.4680   -2.4619    1.3677 H         1 <0>         0.1030
     25 H4          9.5822   -3.6403    2.3941 H         1 <0>         0.0573
     26 H5          9.2875   -1.8792    2.5899 H         1 <0>         0.0567
     27 H6          7.8158   -3.1315    3.3987 H         1 <0>         0.1279
     28 H7          5.5430   -3.6031    4.2171 H         1 <0>         0.1264
     29 H8          3.6659   -3.7424    2.6308 H         1 <0>         0.1351
     30 H9          6.3284   -2.9463   -0.6036 H         1 <0>         0.1286
     31 H10        -0.9252   -0.5577    0.0078 H         1 <0>         0.1199
     32 H11        -0.9615    1.8843    0.0168 H         1 <0>         0.1216
     33 H12         1.1389    3.1628    0.0077 H         1 <0>         0.1243
     34 H13         3.3021    2.0055   -0.0187 H         1 <0>         0.1180
     35 H14         0.3092   -3.4642    0.9762 H         1 <0>         0.0774
     36 H15        -0.0957   -3.1663   -0.7483 H         1 <0>         0.0741
     37 H16         1.0273   -5.4426   -0.2588 H         1 <0>         0.0865
     38 H17         1.8361   -4.4378   -1.5089 H         1 <0>         0.0376
     39 H18         3.3236   -5.4904    0.2068 H         1 <0>         0.3538
@<TRIPOS>BOND
     1    1    2 1
     2    1   24 1
     3    1   25 1
     4    1   26 1
     5    2    3 1
     6    3    8 ar
     7    3    4 ar
     8    4    5 ar
     9    4   27 1
    10    5    6 ar
    11    5   28 1
    12    6    7 ar
    13    6   29 1
    14    7    8 ar
    15    7    9 1
    16    8   30 1
    17    9   10 1
    18    9   23 1
    19    9   11 1
    20   11   19 1
    21   11   12 2
    22   12   13 1
    23   12   21 1
    24   13   18 ar
    25   13   14 ar
    26   14   15 ar
    27   14   31 1
    28   15   16 ar
    29   15   32 1
    30   16   17 ar
    31   16   33 1
    32   17   18 ar
    33   17   34 1
    34   18   19 1
    35   19   20 1
    36   21   22 1
    37   21   35 1
    38   21   36 1
    39   22   23 1
    40   22   37 1
    41   22   38 1
    42   23   39 1
@<TRIPOS>MOLECULE
ZINC71754993
   49    52     0     0     0
SMALL
USER_CHARGES

@<TRIPOS>ATOM
      1 C1          2.6170   -2.6358   -1.1889 C.3       1 <0>        -0.1671
      2 C2          2.2134   -1.1611   -1.2456 C.3       1 <0>         0.1069
      3 N1          0.7528   -1.0529   -1.2130 N.am      1 <0>        -0.6114
      4 C3          0.0461   -1.0616    0.0703 C.3       1 <0>         0.0994
      5 C4         -0.0614    0.3687    0.6029 C.3       1 <0>        -0.1765
      6 C5          0.0592   -0.9454   -2.3636 C.2       1 <0>         0.5267
      7 O1          0.6474   -0.8703   -3.4215 O.2       1 <0>        -0.5333
      8 C6         -1.4473   -0.9186   -2.3355 C.3       1 <0>        -0.0725
      9 H1         -1.8080   -1.4645   -1.4638 H         1 <0>         0.1146
     10 C7         -1.9990   -1.5624   -3.6126 C.3       1 <0>         0.0770
     11 N2         -3.4593   -1.4331   -3.6037 N.3       1 <0>        -0.5484
     12 C8         -3.9081   -0.0485   -3.6742 C.3       1 <0>         0.1385
     13 H2         -3.8294    0.2578   -4.7173 H         1 <0>         0.0457
     14 C9         -5.3934    0.0321   -3.2953 C.3       1 <0>        -0.0232
     15 C10        -5.8207    1.4760   -3.2538 C.2       1 <0>        -0.1681
     16 C11        -6.9734    2.1212   -3.3973 C.2       1 <0>         0.0572
     17 N3         -6.7828    3.4861   -3.2468 N.pl3     1 <0>        -0.5952
     18 H3         -7.4843    4.1531   -3.3095 H         1 <0>         0.4163
     19 C12        -5.4715    3.7584   -2.9981 C.ar      1 <0>         0.1107
     20 C13        -4.8308    2.5163   -3.0000 C.ar      1 <0>        -0.1310
     21 C14        -3.4506    2.3050   -2.7990 C.ar      1 <0>        -0.0034
     22 C15        -2.7031    3.4367   -2.5663 C.ar      1 <0>        -0.1283
     23 C16        -3.3241    4.6838   -2.5516 C.ar      1 <0>        -0.0962
     24 C17        -4.6837    4.8842   -2.7614 C.ar      1 <0>        -0.1216
     25 C18        -3.0445    0.8889   -2.8726 C.2       1 <0>        -0.0548
     26 C19        -1.9279    0.5065   -2.2758 C.2       1 <0>        -0.1279
     27 C20        -4.0657   -2.2382   -4.6723 C.3       1 <0>         0.0274
     28 H4          2.2786   -3.0692   -0.2477 H         1 <0>         0.0559
     29 H5          2.1583   -3.1703   -2.0208 H         1 <0>         0.0579
     30 H6          3.7017   -2.7185   -1.2577 H         1 <0>         0.0673
     31 H7          2.6359   -0.6355   -0.3892 H         1 <0>         0.0755
     32 H8          2.5902   -0.7164   -2.1667 H         1 <0>         0.0872
     33 H9         -0.9534   -1.4738   -0.0682 H         1 <0>         0.0851
     34 H10         0.5964   -1.6747    0.7839 H         1 <0>         0.0811
     35 H11        -0.5106    0.3537    1.5960 H         1 <0>         0.0701
     36 H12         0.9333    0.8106    0.6607 H         1 <0>         0.0594
     37 H13        -0.6835    0.9606   -0.0684 H         1 <0>         0.0612
     38 H14        -1.5914   -1.0526   -4.4855 H         1 <0>         0.0533
     39 H15        -1.7248   -2.6170   -3.6391 H         1 <0>         0.0845
     40 H16        -5.9874   -0.5018   -4.0371 H         1 <0>         0.0765
     41 H17        -5.5435   -0.4200   -2.3149 H         1 <0>         0.0843
     42 H18        -7.9232    1.6497   -3.6022 H         1 <0>         0.1695
     43 H19        -1.6396    3.3585   -2.3953 H         1 <0>         0.1220
     44 H20        -2.7091    5.5517   -2.3648 H         1 <0>         0.1224
     45 H21        -5.1135    5.8748   -2.7421 H         1 <0>         0.1285
     46 H22        -1.3518    1.2331   -1.7222 H         1 <0>         0.1200
     47 H23        -3.7498   -3.2763   -4.5689 H         1 <0>         0.0734
     48 H24        -5.1517   -2.1799   -4.5994 H         1 <0>         0.0744
     49 H25        -3.7455   -1.8558   -5.6415 H         1 <0>         0.0291
@<TRIPOS>BOND
     1    1    2 1
     2    1   28 1
     3    1   29 1
     4    1   30 1
     5    2    3 1
     6    2   31 1
     7    2   32 1
     8    3    4 1
     9    3    6 am
    10    4    5 1
    11    4   33 1
    12    4   34 1
    13    5   35 1
    14    5   36 1
    15    5   37 1
    16    6    7 2
    17    6    8 1
    18    8    9 1
    19    8   26 1
    20    8   10 1
    21   10   11 1
    22   10   38 1
    23   10   39 1
    24   11   12 1
    25   11   27 1
    26   12   13 1
    27   12   25 1
    28   12   14 1
    29   14   15 1
    30   14   40 1
    31   14   41 1
    32   15   20 1
    33   15   16 2
    34   16   17 1
    35   16   42 1
    36   17   18 1
    37   17   19 1
    38   19   24 ar
    39   19   20 ar
    40   20   21 ar
    41   21   22 ar
    42   21   25 1
    43   22   23 ar
    44   22   43 1
    45   23   24 ar
    46   23   44 1
    47   24   45 1
    48   25   26 2
    49   26   46 1
    50   27   47 1
    51   27   48 1
    52   27   49 1
@<TRIPOS>MOLECULE
ZINC71754993
   50    53     0     0     0
SMALL
USER_CHARGES

@<TRIPOS>ATOM
      1 C1         -4.4131    1.6542    2.7709 C.3       1 <0>        -0.1692
      2 C2         -3.1002    1.6745    1.9857 C.3       1 <0>         0.1077
      3 N1         -3.2120    0.7884    0.8243 N.am      1 <0>        -0.6044
      4 C3         -3.6997    1.3136   -0.4534 C.3       1 <0>         0.0980
      5 C4         -2.5178    1.8262   -1.2787 C.3       1 <0>        -0.1810
      6 C5         -2.8661   -0.5098    0.9314 C.2       1 <0>         0.5240
      7 O1         -2.5501   -0.9662    2.0097 O.2       1 <0>        -0.5069
      8 C6         -2.8722   -1.3943   -0.2887 C.3       1 <0>        -0.1042
      9 H1         -2.7358   -0.7873   -1.1837 H         1 <0>         0.1306
     10 C7         -4.2036   -2.1497   -0.3737 C.3       1 <0>         0.0021
     11 N2         -4.1503   -3.0574   -1.5221 N.4       1 <0>        -0.3772
     12 C8         -3.1649   -4.1132   -1.3324 C.3       1 <0>         0.0727
     13 H2         -3.6138   -4.8485   -0.6647 H         1 <0>         0.1401
     14 C9         -2.9105   -4.8224   -2.6700 C.3       1 <0>        -0.0390
     15 C10        -1.8064   -5.8325   -2.5003 C.2       1 <0>        -0.2014
     16 C11        -1.4541   -6.9552   -3.1179 C.2       1 <0>         0.0960
     17 N3         -0.3151   -7.4883   -2.5346 N.pl3     1 <0>        -0.5871
     18 H3          0.1234   -8.3046   -2.8215 H         1 <0>         0.4245
     19 C12         0.1019   -6.7038   -1.5020 C.ar      1 <0>         0.1104
     20 C13        -0.8165   -5.6518   -1.4449 C.ar      1 <0>        -0.1254
     21 C14        -0.7954   -4.5939   -0.5123 C.ar      1 <0>        -0.0281
     22 C15         0.2416   -4.6193    0.3924 C.ar      1 <0>        -0.0998
     23 C16         1.1732   -5.6542    0.3464 C.ar      1 <0>        -0.0987
     24 C17         1.1382   -6.6995   -0.5693 C.ar      1 <0>        -0.0978
     25 C18        -1.9016   -3.6317   -0.6709 C.2       1 <0>        -0.0695
     26 C19        -1.7626   -2.4072   -0.1876 C.2       1 <0>        -0.1111
     27 C20        -5.4735   -3.6664   -1.7125 C.3       1 <0>        -0.0520
     28 H4         -4.3299    2.3134    3.6350 H         1 <0>         0.0742
     29 H5         -5.2253    1.9965    2.1296 H         1 <0>         0.0570
     30 H6         -4.6195    0.6382    3.1076 H         1 <0>         0.0594
     31 H7         -2.8938    2.6904    1.6490 H         1 <0>         0.0854
     32 H8         -2.2879    1.3322    2.6269 H         1 <0>         0.0886
     33 H9         -4.2089    0.5208   -1.0014 H         1 <0>         0.0700
     34 H10        -4.3955    2.1319   -0.2680 H         1 <0>         0.0939
     35 H11        -2.8686    2.1332   -2.2639 H         1 <0>         0.0759
     36 H12        -2.0638    2.6783   -0.7728 H         1 <0>         0.0695
     37 H13        -1.7789    1.0322   -1.3872 H         1 <0>         0.0580
     38 H14        -4.3580   -2.7236    0.5400 H         1 <0>         0.1434
     39 H15        -5.0199   -1.4395   -0.5058 H         1 <0>         0.1437
     40 H16        -3.8204   -5.3293   -2.9914 H         1 <0>         0.0997
     41 H17        -2.6190   -4.0881   -3.4210 H         1 <0>         0.0934
     42 H18        -1.9802   -7.3903   -3.9547 H         1 <0>         0.1758
     43 H19         0.3329   -3.8400    1.1346 H         1 <0>         0.1302
     44 H20         1.9754   -5.6435    1.0695 H         1 <0>         0.1317
     45 H21         1.8852   -7.4794   -0.5582 H         1 <0>         0.1373
     46 H22        -0.8304   -2.1256    0.2794 H         1 <0>         0.1476
     47 H23        -6.2103   -2.8845   -1.8961 H         1 <0>         0.1309
     48 H24        -5.4422   -4.3438   -2.5658 H         1 <0>         0.1309
     49 H25        -5.7497   -4.2228   -0.8168 H         1 <0>         0.1266
     50 H26        -3.9112   -2.5291   -2.3478 H         1 <0>         0.4234
@<TRIPOS>BOND
     1    1    2 1
     2    1   28 1
     3    1   29 1
     4    1   30 1
     5    2    3 1
     6    2   31 1
     7    2   32 1
     8    3    4 1
     9    3    6 am
    10    4    5 1
    11    4   33 1
    12    4   34 1
    13    5   35 1
    14    5   36 1
    15    5   37 1
    16    6    7 2
    17    6    8 1
    18    8    9 1
    19    8   26 1
    20    8   10 1
    21   10   11 1
    22   10   38 1
    23   10   39 1
    24   11   12 1
    25   11   27 1
    26   11   50 1
    27   12   13 1
    28   12   25 1
    29   12   14 1
    30   14   15 1
    31   14   40 1
    32   14   41 1
    33   15   20 1
    34   15   16 2
    35   16   17 1
    36   16   42 1
    37   17   18 1
    38   17   19 1
    39   19   24 ar
    40   19   20 ar
    41   20   21 ar
    42   21   22 ar
    43   21   25 1
    44   22   23 ar
    45   22   43 1
    46   23   24 ar
    47   23   44 1
    48   24   45 1
    49   25   26 2
    50   26   46 1
    51   27   47 1
    52   27   48 1
    53   27   49 1
@<TRIPOS>MOLECULE
ZINC02572146
   29    30     0     0     0
SMALL
USER_CHARGES

@<TRIPOS>ATOM
      1 C1         -0.0184    1.5028    0.0103 C.3       1 <0>        -0.1071
      2 C2          0.0021   -0.0041    0.0020 C.2       1 <0>         0.1199
      3 C3          0.0074   -0.7686   -1.1014 C.2       1 <0>        -0.2092
      4 C4          0.0293   -2.1641   -0.6562 C.ar      1 <0>        -0.0803
      5 C5          0.0430   -3.3930   -1.3197 C.ar      1 <0>        -0.1146
      6 C6          0.0627   -4.5631   -0.5876 C.ar      1 <0>         0.0953
      7 C7          0.0685   -4.5202    0.8044 C.ar      1 <0>        -0.1188
      8 C8          0.0552   -3.3144    1.4689 C.ar      1 <0>        -0.1023
      9 C9          0.0357   -2.1241    0.7494 C.ar      1 <0>         0.0880
     10 N1          0.0239   -0.7953    1.1178 N.pl3     1 <0>        -0.5848
     11 H1          0.0285   -0.4701    2.0317 H         1 <0>         0.4225
     12 O1          0.0761   -5.7626   -1.2282 O.3       1 <0>        -0.4959
     13 C10        -0.0070   -0.2832   -2.5281 C.3       1 <0>        -0.0613
     14 C11         1.4305   -0.0988   -3.0185 C.3       1 <0>        -0.0084
     15 N2          1.4165    0.3744   -4.4092 N.4       1 <0>        -0.6388
     16 H2          1.0042    1.8801    0.0026 H         1 <0>         0.0837
     17 H3         -0.5455    1.8639   -0.8728 H         1 <0>         0.0866
     18 H4         -0.5286    1.8543    0.9071 H         1 <0>         0.0796
     19 H5          0.0378   -3.4277   -2.3992 H         1 <0>         0.1258
     20 H6          0.0832   -5.4414    1.3679 H         1 <0>         0.1387
     21 H7          0.0598   -3.2928    2.5486 H         1 <0>         0.1311
     22 H8          0.9632   -6.0974   -1.4178 H         1 <0>         0.3920
     23 H9         -0.5139   -1.0159   -3.1560 H         1 <0>         0.0928
     24 H10        -0.5345    0.6690   -2.5826 H         1 <0>         0.0917
     25 H11         1.9375    0.6339   -2.3905 H         1 <0>         0.1322
     26 H12         1.9580   -1.0511   -2.9640 H         1 <0>         0.1338
     27 H13         0.9472   -0.3038   -4.9905 H         1 <0>         0.4354
     28 H14         0.9282    1.2559   -4.4596 H         1 <0>         0.4345
     29 H15         2.3645    0.4960   -4.7326 H         1 <0>         0.4379
@<TRIPOS>BOND
     1    1    2 1
     2    1   16 1
     3    1   17 1
     4    1   18 1
     5    2   10 1
     6    2    3 2
     7    3    4 1
     8    3   13 1
     9    4    9 ar
    10    4    5 ar
    11    5    6 ar
    12    5   19 1
    13    6    7 ar
    14    6   12 1
    15    7    8 ar
    16    7   20 1
    17    8    9 ar
    18    8   21 1
    19    9   10 1
    20   10   11 1
    21   12   22 1
    22   13   14 1
    23   13   23 1
    24   13   24 1
    25   14   15 1
    26   14   25 1
    27   14   26 1
    28   15   27 1
    29   15   28 1
    30   15   29 1
@<TRIPOS>MOLECULE
ZINC25760037
   43    46     0     0     0
SMALL
USER_CHARGES

@<TRIPOS>ATOM
      1 C1         -0.0268    1.3474    0.0633 C.ar      1 <0>        -0.1752
      2 C2          1.1642    2.0489    0.0412 C.ar      1 <0>        -0.0527
      3 C3          2.3551    1.3200    0.0176 C.ar      1 <0>        -0.1461
      4 C4          3.7739    1.6795   -0.0097 C.2       1 <0>        -0.2577
      5 C5          4.4667    0.5300   -0.0245 C.2       1 <0>         0.1407
      6 N1          3.6053   -0.5342   -0.0088 N.pl3     1 <0>        -0.5673
      7 H1          3.8729   -1.4665   -0.0150 H         1 <0>         0.4335
      8 C6          2.3060   -0.0875    0.0170 C.ar      1 <0>         0.2913
      9 N2          1.1333   -0.7066    0.0393 N.ar      1 <0>        -0.4851
     10 C7         -0.0005   -0.0386    0.0614 C.ar      1 <0>         0.1534
     11 C8          4.3469    3.0733   -0.0199 C.3       1 <0>         0.0839
     12 N3          4.3372    3.6166    1.3449 N.4       1 <0>        -0.3806
     13 C9          2.9495    3.7595    1.8031 C.3       1 <0>        -0.0319
     14 C10         2.9400    4.2172    3.2653 C.3       1 <0>         0.1008
     15 N4          3.7450    5.4435    3.3754 N.pl3     1 <0>        -0.6426
     16 C11         5.0963    5.4403    2.7937 C.3       1 <0>         0.0994
     17 C12         5.0040    4.9248    1.3537 C.3       1 <0>        -0.0233
     18 C13         3.2403    6.5795    4.0139 C.ar      1 <0>         0.2031
     19 C14         1.9241    6.6016    4.4569 C.ar      1 <0>        -0.1758
     20 C15         1.4281    7.7254    5.0880 C.ar      1 <0>        -0.0604
     21 C16         2.2410    8.8289    5.2789 C.ar      1 <0>        -0.0751
     22 C17         3.5527    8.8096    4.8386 C.ar      1 <0>        -0.0604
     23 C18         4.0557    7.6864    4.2119 C.ar      1 <0>        -0.1748
     24 Cl1         1.6138   10.2403    6.0716 Cl        1 <0>        -0.0601
     25 H2         -0.9692    1.8744    0.0864 H         1 <0>         0.1492
     26 H3          1.1733    3.1289    0.0417 H         1 <0>         0.1347
     27 H4          5.5440    0.4554   -0.0459 H         1 <0>         0.1910
     28 H5         -0.9329   -0.5834    0.0787 H         1 <0>         0.1725
     29 H6          5.3712    3.0423   -0.3913 H         1 <0>         0.1384
     30 H7          3.7443    3.7092   -0.6684 H         1 <0>         0.1332
     31 H8          2.4378    4.4992    1.1874 H         1 <0>         0.1308
     32 H9          2.4385    2.8004    1.7191 H         1 <0>         0.1450
     33 H10         1.9162    4.4218    3.5784 H         1 <0>         0.1255
     34 H11         3.3702    3.4388    3.8955 H         1 <0>         0.0876
     35 H12         5.4980    6.4535    2.7951 H         1 <0>         0.1268
     36 H13         5.7442    4.7854    3.3763 H         1 <0>         0.0888
     37 H14         6.0068    4.8245    0.9387 H         1 <0>         0.1424
     38 H15         4.4301    5.6293    0.7516 H         1 <0>         0.1331
     39 H16         1.2890    5.7409    4.3075 H         1 <0>         0.1319
     40 H17         0.4047    7.7432    5.4327 H         1 <0>         0.1391
     41 H18         4.1850    9.6722    4.9888 H         1 <0>         0.1392
     42 H19         5.0808    7.6702    3.8724 H         1 <0>         0.1326
     43 H20         4.8287    2.9858    1.9602 H         1 <0>         0.4209
@<TRIPOS>BOND
     1    1   10 ar
     2    1    2 ar
     3    1   25 1
     4    2    3 ar
     5    2   26 1
     6    3    8 ar
     7    3    4 1
     8    4    5 2
     9    4   11 1
    10    5    6 1
    11    5   27 1
    12    6    7 1
    13    6    8 1
    14    8    9 ar
    15    9   10 ar
    16   10   28 1
    17   11   12 1
    18   11   29 1
    19   11   30 1
    20   12   17 1
    21   12   13 1
    22   12   43 1
    23   13   14 1
    24   13   31 1
    25   13   32 1
    26   14   15 1
    27   14   33 1
    28   14   34 1
    29   15   16 1
    30   15   18 1
    31   16   17 1
    32   16   35 1
    33   16   36 1
    34   17   37 1
    35   17   38 1
    36   18   23 ar
    37   18   19 ar
    38   19   20 ar
    39   19   39 1
    40   20   21 ar
    41   20   40 1
    42   21   22 ar
    43   21   24 1
    44   22   23 ar
    45   22   41 1
    46   23   42 1
@<TRIPOS>MOLECULE
ZINC25760037
   42    45     0     0     0
SMALL
USER_CHARGES

@<TRIPOS>ATOM
      1 C1         -0.0271    1.3456    0.0639 C.ar      1 <0>        -0.1986
      2 C2          1.1635    2.0478    0.0416 C.ar      1 <0>        -0.0357
      3 C3          2.3549    1.3195    0.0173 C.ar      1 <0>        -0.1433
      4 C4          3.7735    1.6798   -0.0104 C.2       1 <0>        -0.1623
      5 C5          4.4669    0.5307   -0.0259 C.2       1 <0>         0.0865
      6 N1          3.6061   -0.5339   -0.0103 N.pl3     1 <0>        -0.5808
      7 H1          3.8741   -1.4661   -0.0170 H         1 <0>         0.4217
      8 C6          2.3065   -0.0879    0.0162 C.ar      1 <0>         0.2862
      9 N2          1.1341   -0.7077    0.0386 N.ar      1 <0>        -0.4979
     10 C7         -0.0000   -0.0404    0.0614 C.ar      1 <0>         0.1384
     11 C8          4.3457    3.0739   -0.0202 C.3       1 <0>         0.1304
     12 N3          4.3361    3.6167    1.3449 N.3       1 <0>        -0.5310
     13 C9          2.9614    3.7989    1.8294 C.3       1 <0>         0.0328
     14 C10         2.9931    4.1916    3.3103 C.3       1 <0>         0.1246
     15 N4          3.8672    5.3644    3.4640 N.pl3     1 <0>        -0.6269
     16 C11         5.2167    5.3075    2.8820 C.3       1 <0>         0.1252
     17 C12         5.0975    4.8709    1.4180 C.3       1 <0>         0.0388
     18 C13         3.4269    6.5028    4.1446 C.ar      1 <0>         0.2273
     19 C14         2.1134    6.5833    4.5888 C.ar      1 <0>        -0.1910
     20 C15         1.6812    7.7093    5.2616 C.ar      1 <0>        -0.0581
     21 C16         2.5552    8.7569    5.4928 C.ar      1 <0>        -0.0958
     22 C17         3.8644    8.6794    5.0513 C.ar      1 <0>        -0.0582
     23 C18         4.3036    7.5534    4.3830 C.ar      1 <0>        -0.1905
     24 Cl1         2.0082   10.1713    6.3378 Cl        1 <0>        -0.0804
     25 H2         -0.9697    1.8721    0.0875 H         1 <0>         0.1382
     26 H3          1.1720    3.1278    0.0426 H         1 <0>         0.1304
     27 H4          5.5441    0.4568   -0.0477 H         1 <0>         0.1792
     28 H5         -0.9321   -0.5857    0.0788 H         1 <0>         0.1616
     29 H6          5.3698    3.0437   -0.3920 H         1 <0>         0.0860
     30 H7          3.7424    3.7098   -0.6682 H         1 <0>         0.0430
     31 H8          2.4745    4.5866    1.2545 H         1 <0>         0.0365
     32 H9          2.4079    2.8672    1.7119 H         1 <0>         0.0966
     33 H10         1.9857    4.4393    3.6450 H         1 <0>         0.0859
     34 H11         3.3847    3.3631    3.9005 H         1 <0>         0.0707
     35 H12         5.6796    6.2930    2.9337 H         1 <0>         0.0870
     36 H13         5.8221    4.5864    3.4311 H         1 <0>         0.0720
     37 H14         6.0932    4.7167    1.0022 H         1 <0>         0.0880
     38 H15         4.5809    5.6437    0.8489 H         1 <0>         0.0393
     39 H16         1.4306    5.7663    4.4080 H         1 <0>         0.1305
     40 H17         0.6599    7.7725    5.6073 H         1 <0>         0.1313
     41 H18         4.5445    9.4985    5.2331 H         1 <0>         0.1314
     42 H19         5.3267    7.4915    4.0426 H         1 <0>         0.1308
@<TRIPOS>BOND
     1    1   10 ar
     2    1    2 ar
     3    1   25 1
     4    2    3 ar
     5    2   26 1
     6    3    8 ar
     7    3    4 1
     8    4    5 2
     9    4   11 1
    10    5    6 1
    11    5   27 1
    12    6    7 1
    13    6    8 1
    14    8    9 ar
    15    9   10 ar
    16   10   28 1
    17   11   12 1
    18   11   29 1
    19   11   30 1
    20   12   17 1
    21   12   13 1
    22   13   14 1
    23   13   31 1
    24   13   32 1
    25   14   15 1
    26   14   33 1
    27   14   34 1
    28   15   16 1
    29   15   18 1
    30   16   17 1
    31   16   35 1
    32   16   36 1
    33   17   37 1
    34   17   38 1
    35   18   23 ar
    36   18   19 ar
    37   19   20 ar
    38   19   39 1
    39   20   21 ar
    40   20   40 1
    41   21   22 ar
    42   21   24 1
    43   22   23 ar
    44   22   41 1
    45   23   42 1
@<TRIPOS>MOLECULE
ZINC13805803
   41    42     0     0     0
SMALL
USER_CHARGES
2-(2-ethyl-5-methoxy-1H-indol-3-yl)-N,N-dimethyl-ethanamine
@<TRIPOS>ATOM
      1 C1         -0.5324   -2.0518   -2.9154 C.3       1 <0>        -0.1494
      2 C2         -1.8562   -2.3550   -2.2107 C.3       1 <0>        -0.0751
      3 C3         -1.5806   -2.8367   -0.8096 C.2       1 <0>         0.1256
      4 C4         -1.3886   -2.0415    0.2549 C.2       1 <0>        -0.2066
      5 C5         -1.1617   -2.9160    1.4080 C.ar      1 <0>        -0.0554
      6 C6         -0.9137   -2.6879    2.7635 C.ar      1 <0>        -0.1287
      7 C7         -0.7404   -3.7604    3.6150 C.ar      1 <0>         0.1168
      8 C8         -0.8120   -5.0628    3.1270 C.ar      1 <0>        -0.1757
      9 C9         -1.0559   -5.2994    1.7928 C.ar      1 <0>        -0.0790
     10 C10        -1.2334   -4.2323    0.9184 C.ar      1 <0>         0.0635
     11 N1         -1.4859   -4.1489   -0.4347 N.pl3     1 <0>        -0.5834
     12 H1         -1.5852   -4.9075   -1.0310 H         1 <0>         0.4205
     13 O1         -0.4983   -3.5443    4.9356 O.3       1 <0>        -0.3182
     14 C11        -0.3286   -4.6982    5.7613 C.3       1 <0>         0.0253
     15 C12        -1.4090   -0.5347    0.2631 C.3       1 <0>        -0.0590
     16 C13         0.0021   -0.0041    0.0020 C.3       1 <0>        -0.0102
     17 C14         1.3463    2.0098   -0.0000 C.3       1 <0>        -0.0426
     18 C15        -0.8017    1.9868   -1.1173 C.3       1 <0>        -0.0479
     19 H2          0.0737   -2.9568   -2.9550 H         1 <0>         0.0624
     20 H3         -0.7318   -1.7034   -3.9288 H         1 <0>         0.0715
     21 H4          0.0038   -1.2791   -2.3644 H         1 <0>         0.0503
     22 H5         -2.3924   -3.1277   -2.7616 H         1 <0>         0.0840
     23 H6         -2.4624   -1.4500   -2.1711 H         1 <0>         0.0915
     24 H7         -0.8583   -1.6783    3.1432 H         1 <0>         0.1270
     25 H8         -0.6746   -5.8951    3.8015 H         1 <0>         0.1373
     26 H9         -1.1090   -6.3135    1.4251 H         1 <0>         0.1291
     27 H10        -0.1423   -4.3856    6.7888 H         1 <0>         0.1042
     28 H11        -1.2320   -5.3071    5.7250 H         1 <0>         0.0580
     29 H12         0.5179   -5.2822    5.4001 H         1 <0>         0.0574
     30 H13        -1.7561   -0.1814    1.2341 H         1 <0>         0.0920
     31 H14        -2.0819   -0.1762   -0.5158 H         1 <0>         0.0894
     32 H15         0.3492   -0.3574   -0.9689 H         1 <0>         0.1307
     33 H16         0.6750   -0.3626    0.7809 H         1 <0>         0.1304
     34 H17         1.8658    1.6723   -0.8968 H         1 <0>         0.1215
     35 H18         1.3024    3.0989    0.0063 H         1 <0>         0.1222
     36 H19         1.8828    1.6627    0.8830 H         1 <0>         0.1213
     37 H20        -1.8268    1.6230   -1.0465 H         1 <0>         0.1224
     38 H21        -0.8000    3.0764   -1.0873 H         1 <0>         0.1224
     39 H22        -0.3600    1.6485   -2.0545 H         1 <0>         0.1222
     40 N2         -0.0305    1.4733    0.0344 N.4       1 <0>        -0.3989
     41 H23        -0.4856    1.7779    0.9029 H         1 <0>         0.4311
@<TRIPOS>BOND
     1    1    2 1
     2    1   19 1
     3    1   20 1
     4    1   21 1
     5    2    3 1
     6    2   22 1
     7    2   23 1
     8    3   11 1
     9    3    4 2
    10    4    5 1
    11    4   15 1
    12    5   10 ar
    13    5    6 ar
    14    6    7 ar
    15    6   24 1
    16    7    8 ar
    17    7   13 1
    18    8    9 ar
    19    8   25 1
    20    9   10 ar
    21    9   26 1
    22   10   11 1
    23   11   12 1
    24   13   14 1
    25   14   27 1
    26   14   28 1
    27   14   29 1
    28   15   16 1
    29   15   30 1
    30   15   31 1
    31   16   32 1
    32   16   33 1
    33   16   40 1
    34   17   34 1
    35   17   35 1
    36   17   36 1
    37   17   40 1
    38   18   37 1
    39   18   38 1
    40   18   39 1
    41   18   40 1
    42   40   41 1
@<TRIPOS>MOLECULE
ZINC00538314
   60    64     0     0     0
SMALL
USER_CHARGES

@<TRIPOS>ATOM
      1 C1         -0.0184    1.5028    0.0103 C.3       1 <0>        -0.1174
      2 C2          0.0021   -0.0041    0.0020 C.2       1 <0>         0.2445
      3 C3         -1.1751   -0.7216    0.0036 C.2       1 <0>        -0.3147
      4 C4         -1.1361   -2.1161   -0.0047 C.2       1 <0>         0.5359
      5 O1         -2.1756   -2.7567   -0.0037 O.2       1 <0>        -0.5241
      6 N1          0.0668   -2.7644   -0.0143 N.am      1 <0>        -0.4737
      7 C5          0.2679   -4.1238   -0.0236 C.2       1 <0>         0.0266
      8 C6          1.4978   -4.6373   -0.0325 C.2       1 <0>        -0.1636
      9 S1          2.5089   -3.1651   -0.0288 S.3       1 <0>         0.1803
     10 C7          1.1857   -1.9749   -0.0151 C.2       1 <0>         0.3350
     11 N2          1.1565   -0.6654   -0.0126 N.2       1 <0>        -0.4984
     12 C8         -2.4993   -0.0022    0.0147 C.3       1 <0>        -0.0635
     13 C9         -3.0147    0.1395   -1.4188 C.3       1 <0>        -0.0075
     14 N3         -4.3055    0.8408   -1.4080 N.4       1 <0>        -0.3819
     15 C10        -4.1121    2.2079   -0.9103 C.3       1 <0>        -0.0097
     16 C11        -5.4758    2.8853   -0.7337 C.3       1 <0>        -0.1045
     17 C12        -6.2228    2.7941   -2.0481 C.2       1 <0>        -0.1537
     18 C13        -6.8154    3.8677   -2.5843 C.2       1 <0>         0.0201
     19 C14        -7.5400    3.7487   -3.8726 C.ar      1 <0>        -0.0793
     20 C15        -6.8454    3.4297   -5.0384 C.ar      1 <0>        -0.0814
     21 C16        -7.5238    3.3196   -6.2346 C.ar      1 <0>        -0.1518
     22 C17        -8.8933    3.5256   -6.2784 C.ar      1 <0>         0.1146
     23 C18        -9.5877    3.8433   -5.1223 C.ar      1 <0>        -0.1473
     24 C19        -8.9186    3.9499   -3.9205 C.ar      1 <0>        -0.0659
     25 F1         -9.5535    3.4167   -7.4521 F         1 <0>        -0.1311
     26 C20        -6.7474    5.1762   -1.8900 C.ar      1 <0>        -0.0818
     27 C21        -7.3566    5.3406   -0.6469 C.ar      1 <0>        -0.0760
     28 C22        -7.2903    6.5596   -0.0045 C.ar      1 <0>        -0.1515
     29 C23        -6.6196    7.6197   -0.5929 C.ar      1 <0>         0.1154
     30 C24        -6.0130    7.4611   -1.8286 C.ar      1 <0>        -0.1500
     31 C25        -6.0692    6.2440   -2.4758 C.ar      1 <0>        -0.0670
     32 F2         -6.5572    8.8117    0.0399 F         1 <0>        -0.1311
     33 C26        -6.2752    1.4449   -2.7346 C.3       1 <0>        -0.1083
     34 C27        -4.8545    0.8700   -2.7688 C.3       1 <0>        -0.0019
     35 H1          1.0042    1.8801    0.0026 H         1 <0>         0.0964
     36 H2         -0.5455    1.8639   -0.8728 H         1 <0>         0.0880
     37 H3         -0.5286    1.8543    0.9071 H         1 <0>         0.0967
     38 H4         -0.5845   -4.7869   -0.0233 H         1 <0>         0.1919
     39 H5          1.8032   -5.6732   -0.0394 H         1 <0>         0.2293
     40 H6         -3.2174   -0.5721    0.6044 H         1 <0>         0.1000
     41 H7         -2.3717    0.9869    0.4545 H         1 <0>         0.0983
     42 H8         -2.2966    0.7094   -2.0085 H         1 <0>         0.1284
     43 H9         -3.1423   -0.8496   -1.8586 H         1 <0>         0.1316
     44 H10        -3.5955    2.1756    0.0490 H         1 <0>         0.1348
     45 H11        -3.5151    2.7739   -1.6255 H         1 <0>         0.1309
     46 H12        -6.0411    2.3760    0.0468 H         1 <0>         0.1010
     47 H13        -5.3343    3.9317   -0.4629 H         1 <0>         0.1205
     48 H14        -5.7779    3.2693   -5.0053 H         1 <0>         0.1324
     49 H15        -6.9865    3.0728   -7.1384 H         1 <0>         0.1419
     50 H16       -10.6551    4.0034   -5.1612 H         1 <0>         0.1431
     51 H17        -9.4614    4.1929   -3.0190 H         1 <0>         0.1358
     52 H18        -7.8799    4.5149   -0.1877 H         1 <0>         0.1352
     53 H19        -7.7622    6.6880    0.9585 H         1 <0>         0.1425
     54 H20        -5.4916    8.2902   -2.2837 H         1 <0>         0.1424
     55 H21        -5.5921    6.1199   -3.4367 H         1 <0>         0.1346
     56 H22        -6.9300    0.7743   -2.1783 H         1 <0>         0.1009
     57 H23        -6.6483    1.5640   -3.7518 H         1 <0>         0.1217
     58 H24        -4.2246    1.4954   -3.4014 H         1 <0>         0.1291
     59 H25        -4.8820   -0.1426   -3.1713 H         1 <0>         0.1328
     60 H26        -4.9458    0.3531   -0.7995 H         1 <0>         0.4242
@<TRIPOS>BOND
     1    1    2 1
     2    1   35 1
     3    1   36 1
     4    1   37 1
     5    2   11 1
     6    2    3 2
     7    3    4 1
     8    3   12 1
     9    4    5 2
    10    4    6 am
    11    6   10 1
    12    6    7 1
    13    7    8 2
    14    7   38 1
    15    8    9 1
    16    8   39 1
    17    9   10 1
    18   10   11 2
    19   12   13 1
    20   12   40 1
    21   12   41 1
    22   13   14 1
    23   13   42 1
    24   13   43 1
    25   14   34 1
    26   14   15 1
    27   14   60 1
    28   15   16 1
    29   15   44 1
    30   15   45 1
    31   16   17 1
    32   16   46 1
    33   16   47 1
    34   17   18 2
    35   17   33 1
    36   18   19 1
    37   18   26 1
    38   19   24 ar
    39   19   20 ar
    40   20   21 ar
    41   20   48 1
    42   21   22 ar
    43   21   49 1
    44   22   23 ar
    45   22   25 1
    46   23   24 ar
    47   23   50 1
    48   24   51 1
    49   26   31 ar
    50   26   27 ar
    51   27   28 ar
    52   27   52 1
    53   28   29 ar
    54   28   53 1
    55   29   30 ar
    56   29   32 1
    57   30   31 ar
    58   30   54 1
    59   31   55 1
    60   33   34 1
    61   33   56 1
    62   33   57 1
    63   34   58 1
    64   34   59 1
@<TRIPOS>MOLECULE
ZINC00643233
   56    59     0     0     0
SMALL
USER_CHARGES

@<TRIPOS>ATOM
      1 C1         -0.0167    1.3786    0.0096 C.ar      1 <0>        -0.1573
      2 C2          1.1695    2.0894    0.0021 C.ar      1 <0>        -0.0635
      3 C3          2.3774    1.4200   -0.0130 C.ar      1 <0>        -0.1784
      4 C4          2.3998    0.0311   -0.0206 C.ar      1 <0>         0.2317
      5 C5          1.2064   -0.6798   -0.0130 C.ar      1 <0>        -0.1988
      6 C6          0.0021   -0.0041    0.0020 C.ar      1 <0>        -0.0706
      7 N1          3.6196   -0.6492   -0.0363 N.pl3     1 <0>        -0.6334
      8 C7          4.9637   -0.0571   -0.0400 C.3       1 <0>         0.3326
      9 N2          5.9388   -1.1470   -0.0572 N.am      1 <0>        -0.7166
     10 C8          5.3099   -2.3344   -0.0641 C.2       1 <0>         0.5288
     11 O1          5.8532   -3.4187   -0.0778 O.2       1 <0>        -0.5133
     12 C9          3.8222   -2.1026   -0.0461 C.3       1 <0>         0.1361
     13 C10         3.1820   -2.7114   -1.2943 C.3       1 <0>        -0.1499
     14 C11         3.3480   -4.2326   -1.2552 C.3       1 <0>        -0.0132
     15 N3          2.7020   -4.7671   -0.0503 N.4       1 <0>        -0.3794
     16 C12         3.3698   -4.2457    1.1482 C.3       1 <0>        -0.0190
     17 C13         3.2050   -2.7250    1.2070 C.3       1 <0>        -0.1492
     18 C14         2.7905   -6.2335   -0.0591 C.3       1 <0>        -0.0094
     19 C15         2.0109   -6.7986    1.1299 C.3       1 <0>        -0.1425
     20 C16         2.1030   -8.3258    1.1207 C.3       1 <0>        -0.1654
     21 C17         1.3351   -8.8824    2.2919 C.2       1 <0>         0.4040
     22 O2          0.7698   -8.1316    3.0583 O.2       1 <0>        -0.4484
     23 C18         1.2712  -10.3355    2.5052 C.ar      1 <0>        -0.1962
     24 C19         1.9272  -11.2044    1.6259 C.ar      1 <0>        -0.0430
     25 C20         1.8634  -12.5650    1.8315 C.ar      1 <0>        -0.1669
     26 C21         1.1505  -13.0743    2.9070 C.ar      1 <0>         0.1434
     27 C22         0.4980  -12.2186    3.7823 C.ar      1 <0>        -0.1651
     28 C23         0.5590  -10.8557    3.5917 C.ar      1 <0>        -0.0262
     29 F1          1.0910  -14.4098    3.1025 F         1 <0>        -0.1261
     30 H1         -0.9598    1.9046    0.0260 H         1 <0>         0.1276
     31 H2          1.1513    3.1692    0.0077 H         1 <0>         0.1312
     32 H3          3.3034    1.9757   -0.0192 H         1 <0>         0.1257
     33 H4          1.2204   -1.7597   -0.0193 H         1 <0>         0.1144
     34 H5         -0.9261   -0.5561    0.0079 H         1 <0>         0.1276
     35 H6          5.0901    0.5643   -0.9265 H         1 <0>         0.0880
     36 H7          5.1025    0.5473    0.8564 H         1 <0>         0.0877
     37 H8          6.9016   -1.0295   -0.0627 H         1 <0>         0.4365
     38 H9          2.1214   -2.4613   -1.3183 H         1 <0>         0.1096
     39 H10         3.6706   -2.3147   -2.1843 H         1 <0>         0.1192
     40 H11         2.8858   -4.6710   -2.1397 H         1 <0>         0.1383
     41 H12         4.4090   -4.4817   -1.2391 H         1 <0>         0.1470
     42 H13         2.9238   -4.6937    2.0361 H         1 <0>         0.1399
     43 H14         4.4303   -4.4946    1.1101 H         1 <0>         0.1471
     44 H15         3.7099   -2.3380    2.0921 H         1 <0>         0.1189
     45 H16         2.1450   -2.4752    1.2532 H         1 <0>         0.1098
     46 H17         2.3668   -6.6175   -0.9870 H         1 <0>         0.1347
     47 H18         3.8354   -6.5348    0.0153 H         1 <0>         0.1347
     48 H19         2.4346   -6.4145    2.0578 H         1 <0>         0.0947
     49 H20         0.9660   -6.4972    1.0555 H         1 <0>         0.0950
     50 H21         1.6793   -8.7098    0.1928 H         1 <0>         0.1132
     51 H22         3.1479   -8.6271    1.1951 H         1 <0>         0.1132
     52 H23         2.4820  -10.8091    0.7879 H         1 <0>         0.1415
     53 H24         2.3692  -13.2366    1.1537 H         1 <0>         0.1468
     54 H25        -0.0554  -12.6215    4.6177 H         1 <0>         0.1475
     55 H26         0.0543  -10.1903    4.2765 H         1 <0>         0.1457
     56 H27         1.7315   -4.4913   -0.0400 H         1 <0>         0.4195
@<TRIPOS>BOND
     1    1    6 ar
     2    1    2 ar
     3    1   30 1
     4    2    3 ar
     5    2   31 1
     6    3    4 ar
     7    3   32 1
     8    4    5 ar
     9    4    7 1
    10    5    6 ar
    11    5   33 1
    12    6   34 1
    13    7   12 1
    14    7    8 1
    15    8    9 1
    16    8   35 1
    17    8   36 1
    18    9   10 am
    19    9   37 1
    20   10   11 2
    21   10   12 1
    22   12   17 1
    23   12   13 1
    24   13   14 1
    25   13   38 1
    26   13   39 1
    27   14   15 1
    28   14   40 1
    29   14   41 1
    30   15   16 1
    31   15   18 1
    32   15   56 1
    33   16   17 1
    34   16   42 1
    35   16   43 1
    36   17   44 1
    37   17   45 1
    38   18   19 1
    39   18   46 1
    40   18   47 1
    41   19   20 1
    42   19   48 1
    43   19   49 1
    44   20   21 1
    45   20   50 1
    46   20   51 1
    47   21   22 2
    48   21   23 1
    49   23   28 ar
    50   23   24 ar
    51   24   25 ar
    52   24   52 1
    53   25   26 ar
    54   25   53 1
    55   26   27 ar
    56   26   29 1
    57   27   28 ar
    58   27   54 1
    59   28   55 1
@<TRIPOS>MOLECULE
ZINC18847046
   29    31     0     0     0
SMALL
USER_CHARGES

@<TRIPOS>ATOM
      1 C1         -0.0184    1.5028    0.0103 C.3       1 <0>        -0.1424
      2 C2          0.0021   -0.0041    0.0020 C.ar      1 <0>         0.1556
      3 C3          0.0057   -0.6865   -1.2084 C.ar      1 <0>         0.1146
      4 C4          0.0254   -2.0919   -1.1857 C.ar      1 <0>         0.0189
      5 C5          0.0408   -2.7431    0.0474 C.ar      1 <0>        -0.0789
      6 C6          0.0361   -1.9836    1.1979 C.ar      1 <0>         0.0838
      7 N1          0.0219   -0.6634    1.1422 N.ar      1 <0>        -0.4304
      8 C7          0.0239   -2.5347   -2.5884 C.ar      1 <0>        -0.1673
      9 C8          0.0375   -3.7874   -3.2002 C.ar      1 <0>         0.0049
     10 C9          0.0309   -3.8808   -4.5734 C.ar      1 <0>        -0.2172
     11 C10         0.0111   -2.7283   -5.3537 C.ar      1 <0>         0.2058
     12 C11        -0.0026   -1.4801   -4.7588 C.ar      1 <0>        -0.1848
     13 C12         0.0034   -1.3698   -3.3723 C.ar      1 <0>         0.2065
     14 N2         -0.0072   -0.2742   -2.5278 N.pl3     1 <0>        -0.5835
     15 H1         -0.0219    0.6508   -2.8196 H         1 <0>         0.4355
     16 O1          0.0057   -2.8305   -6.7086 O.3       1 <0>        -0.3026
     17 C13         0.0210   -4.1488   -7.2598 C.3       1 <0>         0.0197
     18 H2          1.0042    1.8801    0.0026 H         1 <0>         0.1154
     19 H3         -0.5455    1.8639   -0.8728 H         1 <0>         0.1057
     20 H4         -0.5286    1.8543    0.9071 H         1 <0>         0.1048
     21 H5          0.0557   -3.8217    0.1000 H         1 <0>         0.1843
     22 H6          0.0478   -2.4751    2.1595 H         1 <0>         0.2108
     23 H7          0.0536   -4.6834   -2.5974 H         1 <0>         0.1456
     24 H8          0.0415   -4.8513   -5.0470 H         1 <0>         0.1504
     25 H9         -0.0176   -0.5905   -5.3710 H         1 <0>         0.1490
     26 H10         0.9199   -4.6699   -6.9305 H         1 <0>         0.0657
     27 H11        -0.8598   -4.6944   -6.9214 H         1 <0>         0.0657
     28 H12         0.0146   -4.0877   -8.3481 H         1 <0>         0.1130
     29 H13         0.0229   -0.1610    1.9720 H         1 <0>         0.4514
@<TRIPOS>BOND
     1    1    2 1
     2    1   18 1
     3    1   19 1
     4    1   20 1
     5    2    7 ar
     6    2    3 ar
     7    3   14 1
     8    3    4 ar
     9    4    5 ar
    10    4    8 1
    11    5    6 ar
    12    5   21 1
    13    6    7 ar
    14    6   22 1
    15    7   29 1
    16    8   13 ar
    17    8    9 ar
    18    9   10 ar
    19    9   23 1
    20   10   11 ar
    21   10   24 1
    22   11   12 ar
    23   11   16 1
    24   12   13 ar
    25   12   25 1
    26   13   14 1
    27   14   15 1
    28   16   17 1
    29   17   26 1
    30   17   27 1
    31   17   28 1
@<TRIPOS>MOLECULE
ZINC13531276
   49    52     0     0     0
SMALL
USER_CHARGES

@<TRIPOS>ATOM
      1 C1         -0.8422   -1.4281    2.5852 C.3       1 <0>        -0.1676
      2 C2          0.1578   -0.2702    2.5803 C.3       1 <0>         0.1087
      3 N1          0.8272   -0.2085    1.2786 N.am      1 <0>        -0.6114
      4 C3          0.1969    0.5031    0.1638 C.3       1 <0>         0.0974
      5 C4          0.5280    1.9939    0.2580 C.3       1 <0>        -0.1731
      6 C5          2.0228   -0.8063    1.1066 C.2       1 <0>         0.5270
      7 O1          2.5101   -1.4575    2.0063 O.2       1 <0>        -0.5326
      8 C6          2.7540   -0.6657   -0.2035 C.3       1 <0>        -0.0724
      9 H1          2.6436    0.3520   -0.5782 H         1 <0>         0.1166
     10 C7          4.2401   -0.9832   -0.0020 C.3       1 <0>         0.0789
     11 N2          4.9057   -0.9353   -1.3074 N.3       1 <0>        -0.5480
     12 C8          4.4367   -1.9669   -2.2235 C.3       1 <0>         0.1392
     13 H2          4.9348   -2.8939   -1.9395 H         1 <0>         0.0480
     14 C9          4.8913   -1.6340   -3.6512 C.3       1 <0>        -0.0299
     15 C10         4.3040   -2.6373   -4.6092 C.2       1 <0>        -0.1090
     16 C11         3.0719   -3.3348   -4.2609 C.ar      1 <0>        -0.1338
     17 C12         2.3503   -3.1762   -3.0588 C.ar      1 <0>         0.0057
     18 C13         1.2066   -3.9331   -2.9472 C.ar      1 <0>        -0.1269
     19 C14         0.8414   -4.7900   -3.9838 C.ar      1 <0>        -0.0861
     20 C15         1.5641   -4.9481   -5.1605 C.ar      1 <0>        -0.1209
     21 C16         2.7272   -4.1934   -5.3083 C.ar      1 <0>         0.1291
     22 N3          3.7073   -4.0334   -6.2415 N.pl3     1 <0>        -0.5792
     23 H3          3.7473   -4.5046   -7.0884 H         1 <0>         0.4202
     24 C17         4.6395   -3.1026   -5.8093 C.2       1 <0>         0.0680
     25 Br1         6.1685   -2.5703   -6.7863 Br        1 <0>         0.0100
     26 C18         2.9547   -2.2126   -2.1201 C.2       1 <0>        -0.0572
     27 C19         2.1917   -1.6384   -1.2050 C.2       1 <0>        -0.1258
     28 C20         6.3658   -0.9898   -1.1561 C.3       1 <0>         0.0266
     29 H4         -0.3148   -2.3644    2.4031 H         1 <0>         0.0586
     30 H5         -1.3402   -1.4740    3.5536 H         1 <0>         0.0668
     31 H6         -1.5841   -1.2707    1.8022 H         1 <0>         0.0553
     32 H7         -0.3696    0.6662    2.7624 H         1 <0>         0.0758
     33 H8          0.8997   -0.4275    3.3632 H         1 <0>         0.0859
     34 H9          0.5726    0.1063   -0.7793 H         1 <0>         0.0857
     35 H10        -0.8836    0.3672    0.2105 H         1 <0>         0.0802
     36 H11         0.0591    2.5233   -0.5715 H         1 <0>         0.0701
     37 H12         0.1523    2.3906    1.2011 H         1 <0>         0.0596
     38 H13         1.6085    2.1297    0.2113 H         1 <0>         0.0597
     39 H14         4.6857   -0.2442    0.6638 H         1 <0>         0.0869
     40 H15         4.3470   -1.9794    0.4273 H         1 <0>         0.0529
     41 H16         4.5499   -0.6337   -3.9177 H         1 <0>         0.0927
     42 H17         5.9792   -1.6736   -3.7050 H         1 <0>         0.0835
     43 H18         0.5947   -3.8637   -2.0600 H         1 <0>         0.1259
     44 H19        -0.0623   -5.3694   -3.8648 H         1 <0>         0.1264
     45 H20         1.2372   -5.6303   -5.9313 H         1 <0>         0.1327
     46 H21         1.1361   -1.8655   -1.1822 H         1 <0>         0.1204
     47 H22         6.6504   -1.9470   -0.7193 H         1 <0>         0.0300
     48 H23         6.8366   -0.8820   -2.1333 H         1 <0>         0.0748
     49 H24         6.6940   -0.1808   -0.5035 H         1 <0>         0.0748
@<TRIPOS>BOND
     1    1    2 1
     2    1   29 1
     3    1   30 1
     4    1   31 1
     5    2    3 1
     6    2   32 1
     7    2   33 1
     8    3    4 1
     9    3    6 am
    10    4    5 1
    11    4   34 1
    12    4   35 1
    13    5   36 1
    14    5   37 1
    15    5   38 1
    16    6    7 2
    17    6    8 1
    18    8    9 1
    19    8   27 1
    20    8   10 1
    21   10   11 1
    22   10   39 1
    23   10   40 1
    24   11   12 1
    25   11   28 1
    26   12   13 1
    27   12   26 1
    28   12   14 1
    29   14   15 1
    30   14   41 1
    31   14   42 1
    32   15   24 2
    33   15   16 1
    34   16   21 ar
    35   16   17 ar
    36   17   18 ar
    37   17   26 1
    38   18   19 ar
    39   18   43 1
    40   19   20 ar
    41   19   44 1
    42   20   21 ar
    43   20   45 1
    44   21   22 1
    45   22   23 1
    46   22   24 1
    47   24   25 1
    48   26   27 2
    49   27   46 1
    50   28   47 1
    51   28   48 1
    52   28   49 1
@<TRIPOS>MOLECULE
ZINC02516045
   33    35     0     0     0
SMALL
USER_CHARGES

@<TRIPOS>ATOM
      1 C1         -0.0164    1.3568    0.0095 C.ar      1 <0>        -0.1126
      2 C2          1.1685    2.0902    0.0021 C.ar      1 <0>        -0.1056
      3 C3          2.3785    1.4660   -0.0127 C.ar      1 <0>        -0.1107
      4 C4          2.4369    0.0637   -0.0208 C.ar      1 <0>        -0.0518
      5 C5          1.2329   -0.6830   -0.0133 C.ar      1 <0>        -0.0490
      6 C6          0.0021   -0.0041    0.0020 C.ar      1 <0>        -0.1001
      7 C7          1.2897   -2.0870   -0.0204 C.ar      1 <0>        -0.0877
      8 C8          2.4960   -2.7188   -0.0343 C.ar      1 <0>        -0.1184
      9 C9          3.6853   -1.9966   -0.0413 C.ar      1 <0>        -0.1083
     10 C10         3.6728   -0.6178   -0.0357 C.ar      1 <0>         0.1496
     11 N1          4.8691    0.0961   -0.0437 N.pl3     1 <0>        -0.6725
     12 C11         5.5338    0.4724    1.2136 C.3       1 <0>         0.1164
     13 C12         7.0032    0.0457    1.1328 C.3       1 <0>        -0.0236
     14 N2          7.6138    0.6222   -0.0717 N.4       1 <0>        -0.5026
     15 C13         6.9746    0.0667   -1.2713 C.3       1 <0>        -0.0233
     16 C14         5.5067    0.4896   -1.3097 C.3       1 <0>         0.1159
     17 H1         -0.9633    1.8759    0.0259 H         1 <0>         0.1287
     18 H2          1.1264    3.1693    0.0079 H         1 <0>         0.1252
     19 H3          3.2888    2.0471   -0.0187 H         1 <0>         0.1205
     20 H4         -0.9241   -0.5595    0.0082 H         1 <0>         0.1330
     21 H5          0.3773   -2.6647   -0.0144 H         1 <0>         0.1332
     22 H6          2.5301   -3.7982   -0.0396 H         1 <0>         0.1296
     23 H7          4.6289   -2.5219   -0.0517 H         1 <0>         0.1206
     24 H8          5.4729    1.5520    1.3511 H         1 <0>         0.0790
     25 H9          5.0507   -0.0340    2.0491 H         1 <0>         0.1164
     26 H10         7.5342    0.4020    2.0155 H         1 <0>         0.1398
     27 H11         7.0639   -1.0416    1.0862 H         1 <0>         0.1321
     28 H12         7.4939    1.6240   -0.0616 H         1 <0>         0.4274
     29 H13         7.4845    0.4385   -2.1601 H         1 <0>         0.1402
     30 H14         7.0361   -1.0212   -1.2452 H         1 <0>         0.1320
     31 H15         5.0057   -0.0055   -2.1415 H         1 <0>         0.1165
     32 H16         5.4430    1.5709   -1.4312 H         1 <0>         0.0785
     33 H17         8.5988    0.4040   -0.0854 H         1 <0>         0.4316
@<TRIPOS>BOND
     1    1    6 ar
     2    1    2 ar
     3    1   17 1
     4    2    3 ar
     5    2   18 1
     6    3    4 ar
     7    3   19 1
     8    4   10 ar
     9    4    5 ar
    10    5    6 ar
    11    5    7 ar
    12    6   20 1
    13    7    8 ar
    14    7   21 1
    15    8    9 ar
    16    8   22 1
    17    9   10 ar
    18    9   23 1
    19   10   11 1
    20   11   16 1
    21   11   12 1
    22   12   13 1
    23   12   24 1
    24   12   25 1
    25   13   14 1
    26   13   26 1
    27   13   27 1
    28   14   15 1
    29   14   28 1
    30   14   33 1
    31   15   16 1
    32   15   29 1
    33   15   30 1
    34   16   31 1
    35   16   32 1
@<TRIPOS>MOLECULE
ZINC03982174
   53    55     0     0     0
SMALL
USER_CHARGES

@<TRIPOS>ATOM
      1 C1          2.1158    1.7135    3.3059 C.3       1 <0>        -0.1544
      2 C2          2.1509    0.1993    3.5221 C.3       1 <0>        -0.1038
      3 C3          2.7723   -0.4786    2.2975 C.3       1 <0>        -0.1441
      4 C4          2.7317   -1.9966    2.4861 C.3       1 <0>        -0.0059
      5 N1          1.3399   -2.4374    2.6376 N.4       1 <0>        -0.3834
      6 C5          0.7597   -1.8475    3.8500 C.3       1 <0>        -0.0118
      7 C6          0.7244   -0.3238    3.7139 C.3       1 <0>        -0.1441
      8 C7          1.3001   -3.9023    2.7402 C.3       1 <0>        -0.0045
      9 C8         -0.1556   -4.3720    2.7727 C.3       1 <0>        -0.1908
     10 C9         -0.1990   -5.9010    2.7415 C.3       1 <0>         0.1608
     11 H1          0.3544   -6.2698    1.8778 H         1 <0>         0.0878
     12 C10         0.4129   -6.4701    4.0389 C.3       1 <0>        -0.1316
     13 C11        -0.5015   -7.6840    4.3511 C.3       1 <0>        -0.1316
     14 C12        -1.8825   -7.1619    3.8821 C.3       1 <0>         0.1163
     15 N2         -1.5940   -6.3604    2.6749 N.pl3     1 <0>        -1.0081
     16 S1         -2.6611   -6.0315    1.4520 S.o2      1 <0>         2.7082
     17 O1         -3.9563   -6.0165    2.0363 O.2       1 <0>        -0.9386
     18 O2         -2.1335   -4.9204    0.7405 O.2       1 <0>        -0.9565
     19 C13        -2.6238   -7.4020    0.3453 C.ar      1 <0>        -0.6657
     20 C14        -1.7285   -7.4147   -0.7086 C.ar      1 <0>        -0.0333
     21 C15        -1.6967   -8.4885   -1.5787 C.ar      1 <0>        -0.1193
     22 C16        -2.5601   -9.5518   -1.3975 C.ar      1 <0>        -0.0847
     23 C17        -3.4591   -9.5415   -0.3411 C.ar      1 <0>         0.0957
     24 C18        -3.4848   -8.4653    0.5344 C.ar      1 <0>        -0.0487
     25 O3         -4.3093  -10.5862   -0.1607 O.3       1 <0>        -0.4910
     26 H2          1.6670    2.1943    4.1751 H         1 <0>         0.0672
     27 H3          3.1316    2.0847    3.1695 H         1 <0>         0.0671
     28 H4          1.5240    1.9403    2.4191 H         1 <0>         0.0622
     29 H5          2.7449   -0.0289    4.4070 H         1 <0>         0.0881
     30 H6          2.2074   -0.2074    1.4056 H         1 <0>         0.0888
     31 H7          3.8066   -0.1531    2.1870 H         1 <0>         0.1123
     32 H8          3.1735   -2.4823    1.6160 H         1 <0>         0.1306
     33 H9          3.2970   -2.2667    3.3780 H         1 <0>         0.1283
     34 H10        -0.2543   -2.2232    3.9869 H         1 <0>         0.1308
     35 H11         1.3671   -2.1208    4.7129 H         1 <0>         0.1289
     36 H12         0.2950    0.1123    4.6158 H         1 <0>         0.1120
     37 H13         0.1171   -0.0494    2.8514 H         1 <0>         0.0890
     38 H14         1.8042   -4.3406    1.8789 H         1 <0>         0.1338
     39 H15         1.8037   -4.2162    3.6545 H         1 <0>         0.1320
     40 H16        -0.6327   -4.0135    3.6849 H         1 <0>         0.0958
     41 H17        -0.6847   -3.9757    1.9061 H         1 <0>         0.1165
     42 H18         1.4400   -6.7940    3.8711 H         1 <0>         0.0885
     43 H19         0.3656   -5.7350    4.8423 H         1 <0>         0.0812
     44 H20        -0.1989   -8.5592    3.7761 H         1 <0>         0.0818
     45 H21        -0.5088   -7.9034    5.4187 H         1 <0>         0.0920
     46 H22        -2.5391   -7.9958    3.6341 H         1 <0>         0.0819
     47 H23        -2.3344   -6.5386    4.6537 H         1 <0>         0.0804
     48 H24        -1.0533   -6.5842   -0.8524 H         1 <0>         0.1402
     49 H25        -0.9966   -8.4961   -2.4010 H         1 <0>         0.1414
     50 H26        -2.5354  -10.3902   -2.0779 H         1 <0>         0.1428
     51 H27        -4.1805   -8.4571    1.3604 H         1 <0>         0.1470
     52 H28        -3.9569  -11.2870    0.4047 H         1 <0>         0.3975
     53 H29         0.8058   -2.1440    1.8333 H         1 <0>         0.4248
@<TRIPOS>BOND
     1    1    2 1
     2    1   26 1
     3    1   27 1
     4    1   28 1
     5    2    7 1
     6    2    3 1
     7    2   29 1
     8    3    4 1
     9    3   30 1
    10    3   31 1
    11    4    5 1
    12    4   32 1
    13    4   33 1
    14    5    6 1
    15    5    8 1
    16    5   53 1
    17    6    7 1
    18    6   34 1
    19    6   35 1
    20    7   36 1
    21    7   37 1
    22    8    9 1
    23    8   38 1
    24    8   39 1
    25    9   10 1
    26    9   40 1
    27    9   41 1
    28   10   11 1
    29   10   15 1
    30   10   12 1
    31   12   13 1
    32   12   42 1
    33   12   43 1
    34   13   14 1
    35   13   44 1
    36   13   45 1
    37   14   15 1
    38   14   46 1
    39   14   47 1
    40   15   16 1
    41   16   17 2
    42   16   18 2
    43   16   19 1
    44   19   24 ar
    45   19   20 ar
    46   20   21 ar
    47   20   48 1
    48   21   22 ar
    49   21   49 1
    50   22   23 ar
    51   22   50 1
    52   23   24 ar
    53   23   25 1
    54   24   51 1
    55   25   52 1
@<TRIPOS>MOLECULE
ZINC13130932
   26    28     0     0     0
SMALL
USER_CHARGES

@<TRIPOS>ATOM
      1 C1         -0.0184    1.5028    0.0103 C.3       1 <0>        -0.1061
      2 C2          0.0021   -0.0041    0.0020 C.2       1 <0>         0.2317
      3 N1          0.0060   -0.6709   -1.1125 N.2       1 <0>        -0.5109
      4 C3         -0.0148   -2.1242   -1.1868 C.3       1 <0>         0.0439
      5 C4          0.7509   -2.7891   -0.0416 C.3       1 <0>        -0.0759
      6 C5          0.3756   -2.1016    1.2461 C.2       1 <0>        -0.1366
      7 C6          0.0244   -0.7727    1.2555 C.2       1 <0>         0.0283
      8 N2         -0.2646   -0.3909    2.5401 N.pl3     1 <0>        -0.5573
      9 H1         -0.5435    0.4953    2.8189 H         1 <0>         0.4208
     10 C7         -0.0935   -1.4706    3.3620 C.ar      1 <0>         0.0996
     11 C8          0.3045   -2.5684    2.5557 C.ar      1 <0>        -0.0958
     12 C9          0.5553   -3.8247    3.1289 C.ar      1 <0>        -0.0656
     13 C10         0.3833   -3.9379    4.4845 C.ar      1 <0>        -0.1463
     14 C11        -0.0194   -2.8697    5.2700 C.ar      1 <0>        -0.0943
     15 C12        -0.2523   -1.6182    4.7379 C.ar      1 <0>        -0.1286
     16 H2          1.0042    1.8801    0.0026 H         1 <0>         0.0870
     17 H3         -0.5455    1.8639   -0.8728 H         1 <0>         0.0879
     18 H4         -0.5286    1.8543    0.9071 H         1 <0>         0.0710
     19 H5         -1.0506   -2.4625   -1.1599 H         1 <0>         0.0802
     20 H6          0.4292   -2.4340   -2.1328 H         1 <0>         0.0977
     21 H7          0.4825   -3.8441    0.0146 H         1 <0>         0.0871
     22 H8          1.8230   -2.6893   -0.2112 H         1 <0>         0.0777
     23 H9          0.8696   -4.6656    2.5285 H         1 <0>         0.1302
     24 H10         0.5682   -4.8917    4.9561 H         1 <0>         0.1204
     25 H11        -0.1375   -3.0183    6.3332 H         1 <0>         0.1244
     26 H12        -0.5630   -0.7931    5.3616 H         1 <0>         0.1296
@<TRIPOS>BOND
     1    1    2 1
     2    1   16 1
     3    1   17 1
     4    1   18 1
     5    2    7 1
     6    2    3 2
     7    3    4 1
     8    4    5 1
     9    4   19 1
    10    4   20 1
    11    5    6 1
    12    5   21 1
    13    5   22 1
    14    6   11 1
    15    6    7 2
    16    7    8 1
    17    8    9 1
    18    8   10 1
    19   10   15 ar
    20   10   11 ar
    21   11   12 ar
    22   12   13 ar
    23   12   23 1
    24   13   14 ar
    25   13   24 1
    26   14   15 ar
    27   14   25 1
    28   15   26 1
@<TRIPOS>MOLECULE
ZINC52541473
   65    68     0     0     0
SMALL
USER_CHARGES

@<TRIPOS>ATOM
      1 C1          0.7296    2.3679    0.2240 C.3       1 <0>         0.0253
      2 O1          0.6046    0.9543    0.3920 O.3       1 <0>        -0.3054
      3 C2         -0.6460    0.4667    0.6114 C.ar      1 <0>         0.1182
      4 C3         -1.7290    1.3289    0.6581 C.ar      1 <0>        -0.2068
      5 C4         -2.9998    0.8318    0.8817 C.ar      1 <0>        -0.0835
      6 C5         -3.1941   -0.5255    1.0588 C.ar      1 <0>        -0.1513
      7 C6         -2.1187   -1.3927    1.0132 C.ar      1 <0>        -0.0866
      8 C7         -0.8416   -0.9018    0.7840 C.ar      1 <0>         0.1382
      9 N1          0.2482   -1.7785    0.7316 N.pl3     1 <0>        -0.6681
     10 C8          0.9991   -2.1230    1.9485 C.3       1 <0>         0.1545
     11 C9          2.4911   -1.8990    1.6796 C.3       1 <0>         0.0434
     12 N2          2.8852   -2.6421    0.4753 N.3       1 <0>        -0.5288
     13 C10         2.1777   -2.1456   -0.7126 C.3       1 <0>         0.0357
     14 C11         0.6692   -2.3844   -0.5407 C.3       1 <0>         0.1545
     15 C12         4.3403   -2.5940    0.2797 C.3       1 <0>         0.0385
     16 C13         4.7389   -3.5732   -0.8263 C.3       1 <0>         0.0970
     17 N3          6.1901   -3.5252   -1.0213 N.am      1 <0>        -0.5500
     18 C14         7.0277   -4.2929   -0.2136 C.ar      1 <0>         0.3611
     19 C15         6.4803   -5.2520    0.6312 C.ar      1 <0>        -0.2083
     20 C16         7.3231   -6.0073    1.4272 C.ar      1 <0>        -0.0478
     21 C17         8.6899   -5.7763    1.3506 C.ar      1 <0>        -0.2054
     22 C18         9.1645   -4.8073    0.4890 C.ar      1 <0>         0.1310
     23 N4          8.3370   -4.1058   -0.2619 N.ar      1 <0>        -0.4810
     24 C19         6.7153   -2.7389   -1.9817 C.2       1 <0>         0.5110
     25 O2          7.9062   -2.7723   -2.2087 O.2       1 <0>        -0.4678
     26 C20         5.8229   -1.8182   -2.7735 C.3       1 <0>        -0.1024
     27 C21         5.0577   -2.6274   -3.8226 C.3       1 <0>        -0.1152
     28 C22         4.1516   -1.6927   -4.6264 C.3       1 <0>        -0.1164
     29 C23         5.0044   -0.6309   -5.3237 C.3       1 <0>        -0.1226
     30 C24         5.7696    0.1783   -4.2746 C.3       1 <0>        -0.1187
     31 C25         6.6757   -0.7564   -3.4707 C.3       1 <0>        -0.1009
     32 H1          1.7760    2.6228    0.0568 H         1 <0>         0.0969
     33 H2          0.1367    2.6856   -0.6337 H         1 <0>         0.0541
     34 H3          0.3712    2.8734    1.1207 H         1 <0>         0.0539
     35 H4         -1.5807    2.3897    0.5201 H         1 <0>         0.1266
     36 H5         -3.8429    1.5058    0.9185 H         1 <0>         0.1242
     37 H6         -4.1884   -0.9091    1.2335 H         1 <0>         0.1246
     38 H7         -2.2731   -2.4525    1.1523 H         1 <0>         0.1290
     39 H8          0.6756   -1.4853    2.7712 H         1 <0>         0.0695
     40 H9          0.8257   -3.1688    2.2020 H         1 <0>         0.0579
     41 H10         2.6778   -0.8359    1.5284 H         1 <0>         0.0413
     42 H11         3.0714   -2.2531    2.5316 H         1 <0>         0.0777
     43 H12         2.3689   -1.0790   -0.8304 H         1 <0>         0.0431
     44 H13         2.5308   -2.6786   -1.5954 H         1 <0>         0.0770
     45 H14         0.4646   -3.4549   -0.5219 H         1 <0>         0.0581
     46 H15         0.1274   -1.9197   -1.3645 H         1 <0>         0.0695
     47 H16         4.6355   -1.5842   -0.0053 H         1 <0>         0.0388
     48 H17         4.8410   -2.8706    1.2076 H         1 <0>         0.0802
     49 H18         4.4438   -4.5830   -0.5413 H         1 <0>         0.0981
     50 H19         4.2383   -3.2966   -1.7542 H         1 <0>         0.1018
     51 H20         5.4118   -5.4051    0.6658 H         1 <0>         0.1391
     52 H21         6.9265   -6.7592    2.0934 H         1 <0>         0.1376
     53 H22         9.3749   -6.3484    1.9588 H         1 <0>         0.1354
     54 H23        10.2269   -4.6241    0.4260 H         1 <0>         0.1581
     55 H24         5.1150   -1.3323   -2.1021 H         1 <0>         0.0916
     56 H25         5.7656   -3.1134   -4.4940 H         1 <0>         0.0727
     57 H26         4.4501   -3.3839   -3.3258 H         1 <0>         0.0695
     58 H27         3.6064   -2.2692   -5.3738 H         1 <0>         0.0687
     59 H28         3.4437   -1.2068   -3.9550 H         1 <0>         0.0643
     60 H29         5.7123   -1.1168   -5.9951 H         1 <0>         0.0644
     61 H30         4.3588    0.0350   -5.8964 H         1 <0>         0.0643
     62 H31         6.3771    0.9348   -4.7713 H         1 <0>         0.0673
     63 H32         5.0617    0.6642   -3.6032 H         1 <0>         0.0612
     64 H33         7.2208   -0.1799   -2.7234 H         1 <0>         0.0662
     65 H34         7.3836   -1.2423   -4.1422 H         1 <0>         0.0754
@<TRIPOS>BOND
     1    1    2 1
     2    1   32 1
     3    1   33 1
     4    1   34 1
     5    2    3 1
     6    3    8 ar
     7    3    4 ar
     8    4    5 ar
     9    4   35 1
    10    5    6 ar
    11    5   36 1
    12    6    7 ar
    13    6   37 1
    14    7    8 ar
    15    7   38 1
    16    8    9 1
    17    9   14 1
    18    9   10 1
    19   10   11 1
    20   10   39 1
    21   10   40 1
    22   11   12 1
    23   11   41 1
    24   11   42 1
    25   12   13 1
    26   12   15 1
    27   13   14 1
    28   13   43 1
    29   13   44 1
    30   14   45 1
    31   14   46 1
    32   15   16 1
    33   15   47 1
    34   15   48 1
    35   16   17 1
    36   16   49 1
    37   16   50 1
    38   17   18 1
    39   17   24 am
    40   18   23 ar
    41   18   19 ar
    42   19   20 ar
    43   19   51 1
    44   20   21 ar
    45   20   52 1
    46   21   22 ar
    47   21   53 1
    48   22   23 ar
    49   22   54 1
    50   24   25 2
    51   24   26 1
    52   26   31 1
    53   26   27 1
    54   26   55 1
    55   27   28 1
    56   27   56 1
    57   27   57 1
    58   28   29 1
    59   28   58 1
    60   28   59 1
    61   29   30 1
    62   29   60 1
    63   29   61 1
    64   30   31 1
    65   30   62 1
    66   30   63 1
    67   31   64 1
    68   31   65 1
@<TRIPOS>MOLECULE
ZINC01760643
   30    32     0     0     0
SMALL
USER_CHARGES

@<TRIPOS>ATOM
      1 C1         -0.0184    1.5028    0.0103 C.3       1 <0>        -0.1060
      2 C2          0.0021   -0.0041    0.0020 C.2       1 <0>         0.2298
      3 N1          0.0061   -0.6710   -1.1125 N.2       1 <0>        -0.5080
      4 C3         -0.0143   -2.1242   -1.1867 C.3       1 <0>         0.0434
      5 C4          0.7521   -2.7889   -0.0418 C.3       1 <0>        -0.0752
      6 C5          0.3770   -2.1015    1.2461 C.2       1 <0>        -0.1448
      7 C6          0.0244   -0.7727    1.2555 C.2       1 <0>         0.0416
      8 N2         -0.2653   -0.3911    2.5397 N.pl3     1 <0>        -0.5564
      9 H1         -0.5452    0.4948    2.8185 H         1 <0>         0.4209
     10 C7         -0.0925   -1.4722    3.3628 C.ar      1 <0>         0.0692
     11 C8          0.3076   -2.5685    2.5556 C.ar      1 <0>        -0.0558
     12 C9          0.5610   -3.8257    3.1268 C.ar      1 <0>        -0.1079
     13 C10         0.3881   -3.9396    4.4964 C.ar      1 <0>         0.1012
     14 C11        -0.0174   -2.8642    5.2783 C.ar      1 <0>        -0.1754
     15 C12        -0.2525   -1.6168    4.7386 C.ar      1 <0>        -0.0863
     16 O1          0.6216   -5.1388    5.0936 O.3       1 <0>        -0.3207
     17 C13         0.4300   -5.2074    6.5080 C.3       1 <0>         0.0270
     18 H2          1.0042    1.8801    0.0026 H         1 <0>         0.0871
     19 H3         -0.5455    1.8639   -0.8728 H         1 <0>         0.0880
     20 H4         -0.5286    1.8543    0.9071 H         1 <0>         0.0711
     21 H5         -1.0500   -2.4629   -1.1595 H         1 <0>         0.0810
     22 H6          0.4295   -2.4339   -2.1329 H         1 <0>         0.0980
     23 H7          0.4842   -3.8439    0.0145 H         1 <0>         0.0879
     24 H8          1.8241   -2.6887   -0.2118 H         1 <0>         0.0778
     25 H9          0.8760   -4.6658    2.5257 H         1 <0>         0.1386
     26 H10        -0.1372   -3.0071    6.3420 H         1 <0>         0.1318
     27 H11        -0.5644   -0.7893    5.3585 H         1 <0>         0.1339
     28 H12         1.0979   -4.5002    6.9999 H         1 <0>         0.0544
     29 H13        -0.6037   -4.9574    6.7471 H         1 <0>         0.0543
     30 H14         0.6495   -6.2168    6.8559 H         1 <0>         0.0995
@<TRIPOS>BOND
     1    1    2 1
     2    1   18 1
     3    1   19 1
     4    1   20 1
     5    2    7 1
     6    2    3 2
     7    3    4 1
     8    4    5 1
     9    4   21 1
    10    4   22 1
    11    5    6 1
    12    5   23 1
    13    5   24 1
    14    6   11 1
    15    6    7 2
    16    7    8 1
    17    8    9 1
    18    8   10 1
    19   10   15 ar
    20   10   11 ar
    21   11   12 ar
    22   12   13 ar
    23   12   25 1
    24   13   14 ar
    25   13   16 1
    26   14   15 ar
    27   14   26 1
    28   15   27 1
    29   16   17 1
    30   17   28 1
    31   17   29 1
    32   17   30 1
@<TRIPOS>MOLECULE
ZINC01760643
   31    33     0     0     0
SMALL
USER_CHARGES

@<TRIPOS>ATOM
      1 C1         -0.0184    1.5028    0.0103 C.3       1 <0>        -0.1693
      2 C2          0.0021   -0.0041    0.0020 C.2       1 <0>         0.3913
      3 C3         -1.1934   -0.7442    0.0035 C.2       1 <0>        -0.0816
      4 C4         -1.1674   -2.1478    0.2141 C.2       1 <0>        -0.0147
      5 C5         -2.4640   -2.5780    0.1620 C.ar      1 <0>        -0.0910
      6 C6         -3.0884   -3.8373    0.2871 C.ar      1 <0>        -0.0920
      7 C7         -4.4524   -3.8611    0.1714 C.ar      1 <0>         0.1103
      8 C8         -5.2186   -2.7171   -0.0588 C.ar      1 <0>        -0.1095
      9 C9         -4.6833   -1.4688   -0.1904 C.ar      1 <0>        -0.1038
     10 C10        -3.2803   -1.3618   -0.0824 C.ar      1 <0>         0.1369
     11 N1         -2.4569   -0.3356   -0.1571 N.pl3     1 <0>        -0.4818
     12 O1         -5.0913   -5.0563    0.2859 O.3       1 <0>        -0.3125
     13 C11        -6.5147   -5.0457    0.1602 C.3       1 <0>         0.0196
     14 C12         0.1269   -2.8846    0.4445 C.3       1 <0>        -0.0871
     15 C13         1.2481   -2.1112   -0.2563 C.3       1 <0>         0.0722
     16 N2          1.1593   -0.6778   -0.0127 N.pl3     1 <0>        -0.5937
     17 H1          1.0042    1.8801    0.0026 H         1 <0>         0.1103
     18 H2         -0.5455    1.8639   -0.8728 H         1 <0>         0.1282
     19 H3         -0.5286    1.8543    0.9071 H         1 <0>         0.1274
     20 H4         -2.5187   -4.7374    0.4648 H         1 <0>         0.1553
     21 H5         -6.2903   -2.8257   -0.1372 H         1 <0>         0.1486
     22 H6         -5.3042   -0.6033   -0.3687 H         1 <0>         0.1549
     23 H7         -6.7899   -4.6593   -0.8211 H         1 <0>         0.0606
     24 H8         -6.8968   -6.0604    0.2714 H         1 <0>         0.1098
     25 H9         -6.9431   -4.4092    0.9345 H         1 <0>         0.0606
     26 H10         0.3323   -2.9421    1.5134 H         1 <0>         0.1103
     27 H11         0.0573   -3.8895    0.0281 H         1 <0>         0.1288
     28 H12         2.2097   -2.4750    0.1055 H         1 <0>         0.1305
     29 H13         1.1844   -2.2893   -1.3298 H         1 <0>         0.1116
     30 H14         1.9802   -0.1874    0.1504 H         1 <0>         0.4359
     31 H15        -2.7280    0.5837   -0.3064 H         1 <0>         0.4340
@<TRIPOS>BOND
     1    1    2 1
     2    1   17 1
     3    1   18 1
     4    1   19 1
     5    2   16 1
     6    2    3 2
     7    3   11 1
     8    3    4 1
     9    4    5 2
    10    4   14 1
    11    5   10 ar
    12    5    6 ar
    13    6    7 ar
    14    6   20 1
    15    7    8 ar
    16    7   12 1
    17    8    9 ar
    18    8   21 1
    19    9   10 ar
    20    9   22 1
    21   10   11 2
    22   11   31 1
    23   12   13 1
    24   13   23 1
    25   13   24 1
    26   13   25 1
    27   14   15 1
    28   14   26 1
    29   14   27 1
    30   15   16 1
    31   15   28 1
    32   15   29 1
    33   16   30 1
@<TRIPOS>MOLECULE
ZINC00009350
   33    35     0     0     0
SMALL
USER_CHARGES

@<TRIPOS>ATOM
      1 C1         -0.0184    1.5028    0.0103 C.3       1 <0>        -0.1021
      2 C2          0.0021   -0.0041    0.0020 C.2       1 <0>         0.1280
      3 C3          0.0075   -0.7795   -1.1127 C.2       1 <0>        -0.1836
      4 C4          0.0286   -2.1786   -0.6531 C.ar      1 <0>        -0.0759
      5 C5          0.0419   -3.4106   -1.3052 C.ar      1 <0>        -0.0731
      6 C6          0.0607   -4.5733   -0.5660 C.ar      1 <0>        -0.0481
      7 C7          0.0659   -4.5213    0.8221 C.ar      1 <0>        -0.0887
      8 C8          0.0524   -3.3110    1.4790 C.ar      1 <0>        -0.1050
      9 C9          0.0343   -2.1255    0.7507 C.ar      1 <0>         0.0979
     10 N1          0.0239   -0.7952    1.1133 N.pl3     1 <0>        -0.5814
     11 H1          0.0285   -0.4690    2.0268 H         1 <0>         0.4237
     12 Cl1         0.0774   -6.1101   -1.3732 Cl        1 <0>        -0.0609
     13 C10        -0.0058   -0.3114   -2.5125 C.2       1 <0>        -0.0025
     14 C11         1.1424   -0.0995   -3.1223 C.2       1 <0>        -0.1935
     15 C12         1.2362    0.3819   -4.5414 C.3       1 <0>         0.0374
     16 N2         -0.0341    0.1601   -5.2420 N.4       1 <0>        -0.5088
     17 C13        -1.1261    0.7510   -4.4525 C.3       1 <0>        -0.0039
     18 C14        -1.3297   -0.0991   -3.1938 C.3       1 <0>        -0.1174
     19 H2          1.0042    1.8801    0.0026 H         1 <0>         0.0864
     20 H3         -0.5455    1.8639   -0.8728 H         1 <0>         0.0842
     21 H4         -0.5286    1.8543    0.9071 H         1 <0>         0.0789
     22 H5          0.0372   -3.4535   -2.3843 H         1 <0>         0.1283
     23 H6          0.0803   -5.4388    1.3916 H         1 <0>         0.1428
     24 H7          0.0559   -3.2820    2.5586 H         1 <0>         0.1360
     25 H8          2.0571   -0.2797   -2.5771 H         1 <0>         0.1496
     26 H9          1.4694    1.4467   -4.5463 H         1 <0>         0.1397
     27 H10         2.0304   -0.1605   -5.0544 H         1 <0>         0.1418
     28 H11         0.0006    0.5975   -6.1506 H         1 <0>         0.4348
     29 H12        -0.8639    1.7710   -4.1713 H         1 <0>         0.1344
     30 H13        -2.0429    0.7554   -5.0419 H         1 <0>         0.1390
     31 H14        -1.7556   -1.0642   -3.4682 H         1 <0>         0.1076
     32 H15        -2.0086    0.4173   -2.5151 H         1 <0>         0.1229
     33 H16        -0.1923   -0.8307   -5.3486 H         1 <0>         0.4316
@<TRIPOS>BOND
     1    1    2 1
     2    1   19 1
     3    1   20 1
     4    1   21 1
     5    2   10 1
     6    2    3 2
     7    3    4 1
     8    3   13 1
     9    4    9 ar
    10    4    5 ar
    11    5    6 ar
    12    5   22 1
    13    6    7 ar
    14    6   12 1
    15    7    8 ar
    16    7   23 1
    17    8    9 ar
    18    8   24 1
    19    9   10 1
    20   10   11 1
    21   13   18 1
    22   13   14 2
    23   14   15 1
    24   14   25 1
    25   15   16 1
    26   15   26 1
    27   15   27 1
    28   16   17 1
    29   16   28 1
    30   16   33 1
    31   17   18 1
    32   17   29 1
    33   17   30 1
    34   18   31 1
    35   18   32 1
@<TRIPOS>MOLECULE
ZINC00057058
   26    27     0     0     0
SMALL
USER_CHARGES

@<TRIPOS>ATOM
      1 C1         -0.0168    1.3880    0.0097 C.ar      1 <0>        -0.1182
      2 C2          1.1587    2.1055    0.0023 C.ar      1 <0>        -0.1024
      3 C3          2.3795    1.4398   -0.0129 C.ar      1 <0>         0.0862
      4 C4          2.4019    0.0334   -0.0206 C.ar      1 <0>        -0.0842
      5 C5          1.2039   -0.6838   -0.0130 C.ar      1 <0>        -0.1143
      6 C6          0.0021   -0.0041    0.0020 C.ar      1 <0>         0.0953
      7 O1         -1.1679   -0.6972    0.0094 O.3       1 <0>        -0.4959
      8 C7          3.8159   -0.3493   -0.0361 C.2       1 <0>        -0.2101
      9 C8          4.5307    0.7870   -0.0369 C.2       1 <0>         0.0918
     10 N1          3.6908    1.8667   -0.0231 N.pl3     1 <0>        -0.5866
     11 H1          3.9751    2.7941   -0.0208 H         1 <0>         0.4248
     12 C9          4.3642   -1.7530   -0.0489 C.3       1 <0>        -0.0616
     13 C10         4.4190   -2.2661   -1.4892 C.3       1 <0>        -0.0080
     14 N2          4.9535   -3.6343   -1.5017 N.4       1 <0>        -0.6389
     15 H2         -0.9621    1.9101    0.0260 H         1 <0>         0.1389
     16 H3          1.1325    3.1852    0.0080 H         1 <0>         0.1315
     17 H4          1.2172   -1.7637   -0.0192 H         1 <0>         0.1256
     18 H5         -1.5147   -0.8930   -0.8718 H         1 <0>         0.3922
     19 H6          5.6093    0.8408   -0.0472 H         1 <0>         0.1750
     20 H7          5.3681   -1.7548    0.3759 H         1 <0>         0.0927
     21 H8          3.7180   -2.4009    0.5433 H         1 <0>         0.0925
     22 H9          3.4152   -2.2643   -1.9140 H         1 <0>         0.1329
     23 H10         5.0652   -1.6182   -2.0814 H         1 <0>         0.1331
     24 H11         5.8827   -3.6360   -1.1085 H         1 <0>         0.4347
     25 H12         4.3553   -4.2341   -0.9535 H         1 <0>         0.4353
     26 H13         4.9896   -3.9727   -2.4515 H         1 <0>         0.4379
@<TRIPOS>BOND
     1    1    6 ar
     2    1    2 ar
     3    1   15 1
     4    2    3 ar
     5    2   16 1
     6    3   10 1
     7    3    4 ar
     8    4    5 ar
     9    4    8 1
    10    5    6 ar
    11    5   17 1
    12    6    7 1
    13    7   18 1
    14    8    9 2
    15    8   12 1
    16    9   10 1
    17    9   19 1
    18   10   11 1
    19   12   13 1
    20   12   20 1
    21   12   21 1
    22   13   14 1
    23   13   22 1
    24   13   23 1
    25   14   24 1
    26   14   25 1
    27   14   26 1
@<TRIPOS>MOLECULE
ZINC19688794
   36    39     0     0     0
SMALL
USER_CHARGES
3-[(1S)-2,3,4,9-tetrahydro-1H-pyrido[3,4-b]indol-1-yl]phenol
@<TRIPOS>ATOM
      1 C1         -1.6634    7.8734   -5.2302 C.ar      1 <0>        -0.1505
      2 C2         -0.7728    6.9510   -5.7547 C.ar      1 <0>        -0.1004
      3 C3         -0.0773    6.0596   -4.9564 C.ar      1 <0>        -0.1319
      4 C4         -0.3108    6.1257   -3.5844 C.ar      1 <0>         0.0923
      5 C5         -1.2236    7.0733   -3.0521 C.ar      1 <0>        -0.1016
      6 C6         -1.9127    7.9622   -3.8831 C.ar      1 <0>        -0.0682
      7 C7         -1.2192    6.8682   -1.6210 C.2       1 <0>        -0.1748
      8 C8         -0.3541    5.8607   -1.3641 C.2       1 <0>         0.0574
      9 N1          0.1938    5.4120   -2.5349 N.pl3     1 <0>        -0.5843
     10 H1          0.9288    4.6138   -2.7154 H         1 <0>         0.4392
     11 C9         -0.0759    5.3505    0.0300 C.3       1 <0>         0.1839
     12 H2          0.8874    5.7328    0.3988 H         1 <0>         0.1047
     13 N2         -1.1437    5.8228    0.9261 N.3       1 <0>        -0.6485
     14 C10        -1.3431    7.2745    0.8037 C.3       1 <0>         0.0445
     15 C11        -1.9940    7.5929   -0.5493 C.3       1 <0>        -0.0815
     16 C12        -0.0511    3.8437    0.0222 C.ar      1 <0>        -0.0370
     17 C13        -1.2374    3.1332    0.0293 C.ar      1 <0>        -0.1449
     18 C14        -1.2180    1.7509    0.0173 C.ar      1 <0>        -0.0716
     19 C15        -0.0126    1.0758    0.0080 C.ar      1 <0>        -0.1616
     20 C16         1.1788    1.7862    0.0004 C.ar      1 <0>         0.1608
     21 C17         1.1566    3.1736    0.0076 C.ar      1 <0>        -0.2118
     22 O1          2.3657    1.1246   -0.0136 O.3       1 <0>        -0.5095
     23 H3         -2.1776    8.5443   -5.9024 H         1 <0>         0.1175
     24 H4         -0.6156    6.9268   -6.8230 H         1 <0>         0.1202
     25 H5          0.6148    5.3455   -5.3777 H         1 <0>         0.1262
     26 H6         -2.6090    8.6848   -3.4837 H         1 <0>         0.1266
     27 H7         -2.0870    5.3179    0.6704 H         1 <0>         0.3454
     28 H8         -1.9978    7.6244    1.6155 H         1 <0>         0.0901
     29 H9         -0.3711    7.7851    0.8707 H         1 <0>         0.0760
     30 H10        -1.9608    8.6755   -0.7415 H         1 <0>         0.0788
     31 H11        -3.0394    7.2509   -0.5578 H         1 <0>         0.0736
     32 H12        -2.1807    3.6590    0.0407 H         1 <0>         0.1221
     33 H13        -2.1459    1.1983    0.0191 H         1 <0>         0.1307
     34 H14         0.0021   -0.0041    0.0020 H         1 <0>         0.1288
     35 H15         2.0828    3.7290    0.0014 H         1 <0>         0.1256
     36 H16         3.3099    1.6889   -0.0196 H         1 <0>         0.4338
@<TRIPOS>BOND
     1    1    6 ar
     2    1    2 ar
     3    1   23 1
     4    2    3 ar
     5    2   24 1
     6    3    4 ar
     7    3   25 1
     8    4    9 1
     9    4    5 ar
    10    5    6 ar
    11    5    7 1
    12    6   26 1
    13    7   15 1
    14    7    8 2
    15    8    9 1
    16    8   11 1
    17    9   10 1
    18   11   12 1
    19   11   13 1
    20   11   16 1
    21   13   14 1
    22   13   27 1
    23   14   15 1
    24   14   28 1
    25   14   29 1
    26   15   30 1
    27   15   31 1
    28   16   21 ar
    29   16   17 ar
    30   17   18 ar
    31   17   32 1
    32   18   19 ar
    33   18   33 1
    34   19   20 ar
    35   19   34 1
    36   20   21 ar
    37   20   22 1
    38   21   35 1
    39   22   36 1
@<TRIPOS>MOLECULE
ZINC19688796
   36    39     0     0     0
SMALL
USER_CHARGES
3-[(1R)-2,3,4,9-tetrahydro-1H-pyrido[3,4-b]indol-1-yl]phenol
@<TRIPOS>ATOM
      1 C1         -0.0164    1.3615    0.0095 C.ar      1 <0>        -0.1474
      2 C2          1.1696    2.0832    0.0021 C.ar      1 <0>        -0.1001
      3 C3          2.3849    1.4353   -0.0127 C.ar      1 <0>        -0.1299
      4 C4          2.4285    0.0452   -0.0208 C.ar      1 <0>         0.0923
      5 C5          1.2225   -0.6834   -0.0136 C.ar      1 <0>        -0.1002
      6 C6          0.0021   -0.0041    0.0020 C.ar      1 <0>        -0.0712
      7 C7          1.6085   -2.0882   -0.0267 C.2       1 <0>        -0.1625
      8 C8          2.9563   -2.1376   -0.0384 C.2       1 <0>         0.0959
      9 N1          3.4598   -0.8696   -0.0354 N.pl3     1 <0>        -0.5910
     10 H1          4.5034   -0.5219   -0.0427 H         1 <0>         0.4371
     11 C9          3.7308   -3.4352   -0.0507 C.3       1 <0>         0.1887
     12 H2          4.1168   -3.6519   -1.0577 H         1 <0>         0.0633
     13 N2          2.8234   -4.5217    0.3529 N.3       1 <0>        -0.6591
     14 C10         1.5863   -4.5128   -0.4403 C.3       1 <0>         0.0481
     15 C11         0.7252   -3.3096   -0.0303 C.3       1 <0>        -0.0431
     16 C12         4.8820   -3.3483    0.9179 C.ar      1 <0>        -0.0480
     17 C13         4.6615   -3.5293    2.2710 C.ar      1 <0>        -0.1222
     18 C14         5.7162   -3.4549    3.1616 C.ar      1 <0>        -0.0806
     19 C15         6.9920   -3.1891    2.7026 C.ar      1 <0>        -0.1585
     20 C16         7.2149   -3.0019    1.3464 C.ar      1 <0>         0.1543
     21 C17         6.1555   -3.0823    0.4540 C.ar      1 <0>        -0.2146
     22 O1          8.4689   -2.7407    0.8924 O.3       1 <0>        -0.5105
     23 H3         -0.9615    1.8843    0.0168 H         1 <0>         0.1215
     24 H4          1.1389    3.1628    0.0077 H         1 <0>         0.1242
     25 H5          3.3021    2.0055   -0.0187 H         1 <0>         0.1180
     26 H6         -0.9252   -0.5577    0.0078 H         1 <0>         0.1193
     27 H7          3.3236   -5.4904    0.2068 H         1 <0>         0.3536
     28 H8          1.8364   -4.4380   -1.5089 H         1 <0>         0.0370
     29 H9          1.0276   -5.4428   -0.2588 H         1 <0>         0.0869
     30 H10         0.3092   -3.4642    0.9762 H         1 <0>         0.0781
     31 H11        -0.0957   -3.1663   -0.7483 H         1 <0>         0.0747
     32 H12         3.6643   -3.7331    2.6322 H         1 <0>         0.1337
     33 H13         5.5422   -3.6007    4.2175 H         1 <0>         0.1296
     34 H14         7.8150   -3.1267    3.3993 H         1 <0>         0.1275
     35 H15         6.3265   -2.9373   -0.6024 H         1 <0>         0.1228
     36 H16         8.6446   -2.5924   -0.1833 H         1 <0>         0.4323
@<TRIPOS>BOND
     1    1    6 ar
     2    1    2 ar
     3    1   23 1
     4    2    3 ar
     5    2   24 1
     6    3    4 ar
     7    3   25 1
     8    4    9 1
     9    4    5 ar
    10    5    6 ar
    11    5    7 1
    12    6   26 1
    13    7   15 1
    14    7    8 2
    15    8    9 1
    16    8   11 1
    17    9   10 1
    18   11   12 1
    19   11   13 1
    20   11   16 1
    21   13   14 1
    22   13   27 1
    23   14   15 1
    24   14   28 1
    25   14   29 1
    26   15   30 1
    27   15   31 1
    28   16   21 ar
    29   16   17 ar
    30   17   18 ar
    31   17   32 1
    32   18   19 ar
    33   18   33 1
    34   19   20 ar
    35   19   34 1
    36   20   21 ar
    37   20   22 1
    38   21   35 1
    39   22   36 1
@<TRIPOS>MOLECULE
ZINC03816551
   38    41     0     0     0
SMALL
USER_CHARGES
2-[1-[(7-chloro-2-thia-5,8-diazabicyclo[3.3.0]octa-3,6,8-trien-6-yl)sulfonyl]indol-3-yl]ethanamine
@<TRIPOS>ATOM
      1 C1          1.6866    1.9836    0.4678 C.ar      1 <0>        -0.1188
      2 C2          0.4394    1.3739    0.4793 C.ar      1 <0>        -0.0790
      3 C3          0.3237    0.0083    0.3405 C.ar      1 <0>        -0.1212
      4 C4          1.4667   -0.7699    0.1870 C.ar      1 <0>         0.0995
      5 C5          2.7280   -0.1473    0.1759 C.ar      1 <0>        -0.0815
      6 C6          2.8220    1.2386    0.3179 C.ar      1 <0>        -0.0783
      7 C7          3.7082   -1.2217    0.0008 C.2       1 <0>        -0.1516
      8 C8          3.0200   -2.3714   -0.0797 C.2       1 <0>         0.0816
      9 N1          1.6793   -2.1211    0.0296 N.pl3     1 <0>        -0.8230
     10 S1          0.4895   -3.2720   -0.0193 S.o2      1 <0>         2.7006
     11 O1         -0.4935   -2.8014   -0.9312 O.2       1 <0>        -0.9113
     12 O2          1.1419   -4.5239   -0.1815 O.2       1 <0>        -0.8948
     13 C9         -0.2712   -3.3027    1.5697 C.2       1 <0>        -0.5934
     14 C10         0.2119   -3.9072    2.6687 C.2       1 <0>         0.2204
     15 N2         -0.6504   -3.7045    3.6770 N.2       1 <0>        -0.4329
     16 C11        -1.6554   -3.0019    3.2389 C.2       1 <0>         0.2268
     17 N3         -1.4850   -2.7097    1.9116 N.pl3     1 <0>        -0.3732
     18 C12        -2.4734   -1.9664    1.3043 C.2       1 <0>         0.0014
     19 C13        -3.5400   -1.5591    1.9909 C.2       1 <0>        -0.1470
     20 S2         -3.2091   -2.2247    3.6149 S.3       1 <0>         0.2085
     21 Cl1         1.7001   -4.7956    2.7680 Cl        1 <0>         0.0448
     22 C14         5.2053   -1.0659   -0.0740 C.3       1 <0>        -0.0722
     23 C15         5.7868   -1.0419    1.3410 C.3       1 <0>        -0.0058
     24 H1          7.4981   -0.0652    0.7445 H         1 <0>         0.4375
     25 H2          7.6542   -0.8714    2.1908 H         1 <0>         0.4416
     26 H3          1.7599    3.0555    0.5779 H         1 <0>         0.1360
     27 H4         -0.4493    1.9767    0.5939 H         1 <0>         0.1403
     28 H5         -0.6510   -0.4567    0.3505 H         1 <0>         0.1227
     29 H6          3.7888    1.7199    0.3095 H         1 <0>         0.1278
     30 H7          3.4595   -3.3492   -0.2109 H         1 <0>         0.1965
     31 H8         -2.3826   -1.7110    0.2588 H         1 <0>         0.1963
     32 H9         -4.3851   -0.9776    1.6532 H         1 <0>         0.2353
     33 H10         5.6305   -1.9032   -0.6274 H         1 <0>         0.1008
     34 H11         5.4486   -0.1331   -0.5827 H         1 <0>         0.1009
     35 H12         5.3616   -0.2046    1.8944 H         1 <0>         0.1372
     36 H13         5.5435   -1.9747    1.8497 H         1 <0>         0.1346
     37 N4          7.2520   -0.9113    1.2557 N.4       1 <0>        -0.6473
     38 H14         7.6352   -1.7252    0.7607 H         1 <0>         0.4402
@<TRIPOS>BOND
     1    1    6 ar
     2    1    2 ar
     3    1   26 1
     4    2    3 ar
     5    2   27 1
     6    3    4 ar
     7    3   28 1
     8    4    9 1
     9    4    5 ar
    10    5    6 ar
    11    5    7 1
    12    6   29 1
    13    7    8 2
    14    7   22 1
    15    8    9 1
    16    8   30 1
    17    9   10 1
    18   10   11 2
    19   10   12 2
    20   10   13 1
    21   13   17 1
    22   13   14 2
    23   14   15 1
    24   14   21 1
    25   15   16 2
    26   16   20 1
    27   16   17 1
    28   17   18 1
    29   18   19 2
    30   18   31 1
    31   19   20 1
    32   19   32 1
    33   22   23 1
    34   22   33 1
    35   22   34 1
    36   23   35 1
    37   23   36 1
    38   23   37 1
    39   24   37 1
    40   25   37 1
    41   37   38 1
@<TRIPOS>MOLECULE
ZINC00898438
   46    49     0     0     0
SMALL
USER_CHARGES

@<TRIPOS>ATOM
      1 C1          0.6234    1.5165   -0.0420 C.3       1 <0>        -0.0530
      2 N1          0.4206    0.0619   -0.0133 N.4       1 <0>        -0.3823
      3 C2          0.9126   -0.5233   -1.2607 C.3       1 <0>        -0.0037
      4 C3          0.5471   -1.9959   -1.3488 C.3       1 <0>        -0.1062
      5 C4          0.6787   -2.6922   -0.0235 C.ar      1 <0>        -0.0434
      6 C5          0.5176   -4.0721    0.0109 C.ar      1 <0>        -0.1957
      7 C6          0.6516   -4.7722    1.1962 C.ar      1 <0>         0.1410
      8 C7          0.9472   -4.0895    2.3707 C.ar      1 <0>         0.0941
      9 C8          1.0883   -2.7041    2.3422 C.ar      1 <0>         0.0174
     10 C9          0.9603   -2.0058    1.1381 C.ar      1 <0>        -0.1567
     11 C10         1.1544   -0.5123    1.1241 C.3       1 <0>         0.0977
     12 H1          2.2157   -0.2864    1.0210 H         1 <0>         0.1462
     13 C11         0.6316    0.1195    2.4125 C.3       1 <0>        -0.0958
     14 C12         1.1962   -0.5798    3.6187 C.ar      1 <0>        -0.0457
     15 C13         1.4010   -1.9575    3.5840 C.ar      1 <0>        -0.0845
     16 C14         1.8960   -2.6194    4.7040 C.ar      1 <0>        -0.0818
     17 C15         2.1986   -1.9007    5.8476 C.ar      1 <0>         0.0839
     18 C16         2.0084   -0.5216    5.8728 C.ar      1 <0>         0.1260
     19 C17         1.5076    0.1340    4.7580 C.ar      1 <0>        -0.1896
     20 O1          2.3147    0.1846    6.9937 O.3       1 <0>        -0.2988
     21 C18         2.0953    1.5960    6.9515 C.3       1 <0>         0.0213
     22 O2          2.6810   -2.5412    6.9460 O.3       1 <0>        -0.4803
     23 O3          1.0970   -4.7691    3.5386 O.3       1 <0>        -0.4707
     24 O4          0.4945   -6.1230    1.2128 O.3       1 <0>        -0.2965
     25 C19         0.1915   -6.7562   -0.0319 C.3       1 <0>         0.0201
     26 H2          1.6864    1.7332   -0.1484 H         1 <0>         0.1254
     27 H3          0.0796    1.9426   -0.8851 H         1 <0>         0.1291
     28 H4          0.2548    1.9532    0.8862 H         1 <0>         0.1270
     29 H5          0.4704    0.0069   -2.1042 H         1 <0>         0.1401
     30 H6          1.9969   -0.4200   -1.3020 H         1 <0>         0.1315
     31 H7         -0.4828   -2.0850   -1.6946 H         1 <0>         0.1069
     32 H8          1.2043   -2.4812   -2.0704 H         1 <0>         0.1248
     33 H9          0.2844   -4.6045   -0.8994 H         1 <0>         0.1453
     34 H10         0.9203    1.1702    2.4394 H         1 <0>         0.1059
     35 H11        -0.4557    0.0466    2.4320 H         1 <0>         0.1020
     36 H12         2.0429   -3.6891    4.6809 H         1 <0>         0.1755
     37 H13         1.3612    1.2038    4.7814 H         1 <0>         0.1411
     38 H14         2.3797    2.0367    7.9070 H         1 <0>         0.1093
     39 H15         2.6979    2.0338    6.1557 H         1 <0>         0.0583
     40 H16         1.0407    1.7942    6.7596 H         1 <0>         0.0592
     41 H17         3.6454   -2.6076    6.9707 H         1 <0>         0.3951
     42 H18         0.2662   -4.9431    4.0017 H         1 <0>         0.3983
     43 H19         0.0922   -7.8308    0.1217 H         1 <0>         0.1126
     44 H20        -0.7440   -6.3573   -0.4242 H         1 <0>         0.0614
     45 H21         0.9951   -6.5635   -0.7427 H         1 <0>         0.0624
     46 H22        -0.5633   -0.1382    0.0862 H         1 <0>         0.4260
@<TRIPOS>BOND
     1    1    2 1
     2    1   26 1
     3    1   27 1
     4    1   28 1
     5    2   11 1
     6    2    3 1
     7    2   46 1
     8    3    4 1
     9    3   29 1
    10    3   30 1
    11    4    5 1
    12    4   31 1
    13    4   32 1
    14    5   10 ar
    15    5    6 ar
    16    6    7 ar
    17    6   33 1
    18    7    8 ar
    19    7   24 1
    20    8    9 ar
    21    8   23 1
    22    9   15 1
    23    9   10 ar
    24   10   11 1
    25   11   12 1
    26   11   13 1
    27   13   14 1
    28   13   34 1
    29   13   35 1
    30   14   19 ar
    31   14   15 ar
    32   15   16 ar
    33   16   17 ar
    34   16   36 1
    35   17   18 ar
    36   17   22 1
    37   18   19 ar
    38   18   20 1
    39   19   37 1
    40   20   21 1
    41   21   38 1
    42   21   39 1
    43   21   40 1
    44   22   41 1
    45   23   42 1
    46   24   25 1
    47   25   43 1
    48   25   44 1
    49   25   45 1
@<TRIPOS>MOLECULE
ZINC00898438
   45    48     0     0     0
SMALL
USER_CHARGES

@<TRIPOS>ATOM
      1 C1          0.6245    1.4933   -0.0555 C.3       1 <0>         0.0194
      2 N1          0.4224    0.0386   -0.0268 N.3       1 <0>        -0.5350
      3 C2          0.8238   -0.5720   -1.2953 C.3       1 <0>         0.0552
      4 C3          0.3846   -2.0252   -1.3580 C.3       1 <0>        -0.0784
      5 C4          0.5250   -2.7233   -0.0348 C.ar      1 <0>        -0.0267
      6 C5          0.3018   -4.0952    0.0054 C.ar      1 <0>        -0.2010
      7 C6          0.4368   -4.8017    1.1865 C.ar      1 <0>         0.1113
      8 C7          0.7954   -4.1348    2.3525 C.ar      1 <0>         0.0805
      9 C8          1.0001   -2.7574    2.3189 C.ar      1 <0>        -0.0118
     10 C9          0.8735   -2.0533    1.1177 C.ar      1 <0>        -0.0885
     11 C10         1.1445   -0.5716    1.0995 C.3       1 <0>         0.1370
     12 H1          2.2142   -0.4011    0.9781 H         1 <0>         0.0568
     13 C11         0.6782    0.0849    2.3970 C.3       1 <0>        -0.0747
     14 C12         1.2376   -0.6403    3.5908 C.ar      1 <0>        -0.0328
     15 C13         1.3775   -2.0260    3.5518 C.ar      1 <0>        -0.0736
     16 C14         1.8691   -2.7104    4.6597 C.ar      1 <0>        -0.0875
     17 C15         2.2319   -2.0069    5.7951 C.ar      1 <0>         0.0662
     18 C16         2.1049   -0.6206    5.8246 C.ar      1 <0>         0.1143
     19 C17         1.6084    0.0580    4.7217 C.ar      1 <0>        -0.1964
     20 O1          2.4690    0.0700    6.9380 O.3       1 <0>        -0.3058
     21 C18         2.3128    1.4899    6.9007 C.3       1 <0>         0.0236
     22 O2          2.7116   -2.6693    6.8816 O.3       1 <0>        -0.4838
     23 O3          0.9448   -4.8215    3.5163 O.3       1 <0>        -0.4758
     24 O4          0.2190   -6.1440    1.2075 O.3       1 <0>        -0.3069
     25 C19        -0.1468   -6.7613   -0.0283 C.3       1 <0>         0.0250
     26 H2          1.6872    1.7105   -0.1628 H         1 <0>         0.0287
     27 H3          0.0797    1.9193   -0.8980 H         1 <0>         0.0733
     28 H4          0.2565    1.9297    0.8731 H         1 <0>         0.0747
     29 H5          0.3659   -0.0231   -2.1182 H         1 <0>         0.0848
     30 H6          1.9084   -0.5207   -1.3906 H         1 <0>         0.0369
     31 H7         -0.6592   -2.0654   -1.6694 H         1 <0>         0.0858
     32 H8          0.9922   -2.5460   -2.0981 H         1 <0>         0.0827
     33 H9          0.0190   -4.6158   -0.8976 H         1 <0>         0.1335
     34 H10         1.0152    1.1213    2.4163 H         1 <0>         0.0823
     35 H11        -0.4106    0.0612    2.4403 H         1 <0>         0.0948
     36 H12         1.9668   -3.7857    4.6335 H         1 <0>         0.1710
     37 H13         1.5120    1.1334    4.7479 H         1 <0>         0.1357
     38 H14         1.2641    1.7358    6.7334 H         1 <0>         0.0570
     39 H15         2.6391    1.9163    7.8493 H         1 <0>         0.1026
     40 H16         2.9159    1.9007    6.0910 H         1 <0>         0.0560
     41 H17         3.6723   -2.7793    6.8827 H         1 <0>         0.3865
     42 H18         0.1195   -4.9568    4.0018 H         1 <0>         0.3877
     43 H19        -0.2905   -7.8304    0.1282 H         1 <0>         0.1026
     44 H20        -1.0737   -6.3199   -0.3945 H         1 <0>         0.0564
     45 H21         0.6447   -6.6044   -0.7611 H         1 <0>         0.0565
@<TRIPOS>BOND
     1    1    2 1
     2    1   26 1
     3    1   27 1
     4    1   28 1
     5    2   11 1
     6    2    3 1
     7    3    4 1
     8    3   29 1
     9    3   30 1
    10    4    5 1
    11    4   31 1
    12    4   32 1
    13    5   10 ar
    14    5    6 ar
    15    6    7 ar
    16    6   33 1
    17    7    8 ar
    18    7   24 1
    19    8    9 ar
    20    8   23 1
    21    9   15 1
    22    9   10 ar
    23   10   11 1
    24   11   12 1
    25   11   13 1
    26   13   14 1
    27   13   34 1
    28   13   35 1
    29   14   19 ar
    30   14   15 ar
    31   15   16 ar
    32   16   17 ar
    33   16   36 1
    34   17   18 ar
    35   17   22 1
    36   18   19 ar
    37   18   20 1
    38   19   37 1
    39   20   21 1
    40   21   38 1
    41   21   39 1
    42   21   40 1
    43   22   41 1
    44   23   42 1
    45   24   25 1
    46   25   43 1
    47   25   44 1
    48   25   45 1
@<TRIPOS>MOLECULE
ZINC19796155
   42    45     0     0     0
SMALL
USER_CHARGES

@<TRIPOS>ATOM
      1 C1         -0.0670    1.4396   -0.3852 C.3       1 <0>         0.0243
      2 N1         -0.0229   -0.0169   -0.1987 N.3       1 <0>        -0.5428
      3 C2          0.3808   -0.6943   -1.4380 C.3       1 <0>         0.0399
      4 C3          0.2401   -2.2095   -1.2572 C.3       1 <0>         0.1263
      5 N2          0.9912   -2.6085   -0.0572 N.pl3     1 <0>        -0.5953
      6 C4          0.7394   -1.8803    1.1955 C.3       1 <0>         0.1122
      7 C5          0.8604   -0.3781    0.9181 C.3       1 <0>         0.0393
      8 C6          1.9051   -3.6365   -0.1053 C.2       1 <0>         0.5098
      9 N3          2.1670   -4.1290   -1.2643 N.2       1 <0>        -0.6041
     10 C7          3.0130   -5.1503   -1.5719 C.ar      1 <0>         0.1655
     11 C8          2.6280   -6.0848   -2.5372 C.ar      1 <0>        -0.1058
     12 C9          3.4872   -7.1047   -2.8991 C.ar      1 <0>        -0.0230
     13 C10         4.7348   -7.2069   -2.3106 C.ar      1 <0>        -0.1209
     14 C11         5.1212   -6.2977   -1.3402 C.ar      1 <0>        -0.1017
     15 C12         4.2618   -5.2835   -0.9546 C.ar      1 <0>         0.1117
     16 N4          4.6314   -4.4326    0.1003 N.pl3     1 <0>        -0.7261
     17 C13         3.8434   -4.4184    1.2519 C.ar      1 <0>         0.2140
     18 C14         2.4943   -4.0640    1.1729 C.ar      1 <0>        -0.1453
     19 C15         1.7072   -4.1133    2.3240 C.ar      1 <0>        -0.0723
     20 C16         2.2727   -4.4729    3.5311 C.ar      1 <0>        -0.1389
     21 C17         3.6189   -4.7825    3.6069 C.ar      1 <0>        -0.0765
     22 C18         4.3974   -4.7629    2.4751 C.ar      1 <0>        -0.1433
     23 Cl1         2.9987   -8.2627   -4.0966 Cl        1 <0>        -0.0679
     24 H1          0.9359    1.8090   -0.5992 H         1 <0>         0.0255
     25 H2         -0.7279    1.6794   -1.2181 H         1 <0>         0.0711
     26 H3         -0.4416    1.9111    0.5233 H         1 <0>         0.0709
     27 H4         -0.2581   -0.3649   -2.2574 H         1 <0>         0.0878
     28 H5          1.4186   -0.4499   -1.6647 H         1 <0>         0.0378
     29 H6         -0.8117   -2.4673   -1.1334 H         1 <0>         0.0720
     30 H7          0.6453   -2.7216   -2.1299 H         1 <0>         0.1060
     31 H8         -0.2645   -2.1065    1.5551 H         1 <0>         0.0792
     32 H9          1.4746   -2.1748    1.9444 H         1 <0>         0.0984
     33 H10         1.8915   -0.1381    0.6586 H         1 <0>         0.0379
     34 H11         0.5693    0.1807    1.8075 H         1 <0>         0.0892
     35 H12         1.6558   -6.0097   -3.0016 H         1 <0>         0.1375
     36 H13         5.4083   -7.9971   -2.6081 H         1 <0>         0.1357
     37 H14         6.0961   -6.3802   -0.8829 H         1 <0>         0.1326
     38 H15         5.4169   -3.8679    0.0299 H         1 <0>         0.4097
     39 H16         0.6563   -3.8699    2.2709 H         1 <0>         0.1344
     40 H17         1.6613   -4.5124    4.4205 H         1 <0>         0.1323
     41 H18         4.0571   -5.0467    4.5580 H         1 <0>         0.1317
     42 H19         5.4473   -5.0071    2.5424 H         1 <0>         0.1313
@<TRIPOS>BOND
     1    1    2 1
     2    1   24 1
     3    1   25 1
     4    1   26 1
     5    2    7 1
     6    2    3 1
     7    3    4 1
     8    3   27 1
     9    3   28 1
    10    4    5 1
    11    4   29 1
    12    4   30 1
    13    5    6 1
    14    5    8 1
    15    6    7 1
    16    6   31 1
    17    6   32 1
    18    7   33 1
    19    7   34 1
    20    8   18 1
    21    8    9 2
    22    9   10 1
    23   10   15 ar
    24   10   11 ar
    25   11   12 ar
    26   11   35 1
    27   12   13 ar
    28   12   23 1
    29   13   14 ar
    30   13   36 1
    31   14   15 ar
    32   14   37 1
    33   15   16 1
    34   16   17 1
    35   16   38 1
    36   17   22 ar
    37   17   18 ar
    38   18   19 ar
    39   19   20 ar
    40   19   39 1
    41   20   21 ar
    42   20   40 1
    43   21   22 ar
    44   21   41 1
    45   22   42 1
@<TRIPOS>MOLECULE
ZINC19796155
   44    47     0     0     0
SMALL
USER_CHARGES

@<TRIPOS>ATOM
      1 C1         -1.5703   -0.0018   -1.9302 C.3       1 <0>        -0.0497
      2 N1         -0.7527   -0.7171   -0.9414 N.4       1 <0>        -0.3854
      3 C2         -1.0498   -2.1535   -1.0104 C.3       1 <0>        -0.0252
      4 C3         -0.2839   -2.8861    0.0962 C.3       1 <0>         0.1048
      5 N2          1.1441   -2.5548   -0.0269 N.pl3     1 <0>        -0.7052
      6 C4          1.5202   -1.1363   -0.1296 C.3       1 <0>         0.1049
      7 C5          0.6692   -0.4862   -1.2256 C.3       1 <0>        -0.0251
      8 C6          2.0831   -3.5253   -0.0448 C.2       1 <0>         0.6309
      9 C7          2.6112   -3.9094    1.2074 C.ar      1 <0>        -0.2438
     10 C8          2.0495   -3.1929    2.2728 C.ar      1 <0>         0.0055
     11 C9          2.4602   -3.4528    3.5483 C.ar      1 <0>        -0.1817
     12 C10         3.4265   -4.4148    3.8208 C.ar      1 <0>         0.0489
     13 C11         4.0101   -5.1439    2.8276 C.ar      1 <0>        -0.2233
     14 C12         3.6302   -4.9235    1.4921 C.ar      1 <0>         0.3343
     15 N3          4.2865   -5.7106    0.6358 N.pl3     1 <0>        -0.6131
     16 C13         4.1767   -5.7728   -0.7271 C.ar      1 <0>         0.1589
     17 C14         5.0408   -6.7320   -1.2562 C.ar      1 <0>        -0.1157
     18 C15         5.0795   -6.9478   -2.6222 C.ar      1 <0>        -0.0495
     19 C16         4.2642   -6.2154   -3.4643 C.ar      1 <0>        -0.0338
     20 C17         3.4016   -5.2585   -2.9468 C.ar      1 <0>        -0.0846
     21 C18         3.3520   -5.0321   -1.5848 C.ar      1 <0>         0.0769
     22 N4          2.4115   -4.0290   -1.2719 N.pl3     1 <0>        -0.5773
     23 Cl1         4.3195   -6.4929   -5.1771 Cl        1 <0>        -0.0159
     24 H1         -1.3348   -0.3678   -2.9295 H         1 <0>         0.1246
     25 H2         -2.6262   -0.1724   -1.7203 H         1 <0>         0.1321
     26 H3         -1.3566    1.0656   -1.8745 H         1 <0>         0.1321
     27 H4         -2.1201   -2.3101   -0.8766 H         1 <0>         0.1569
     28 H5         -0.7442   -2.5415   -1.9820 H         1 <0>         0.1344
     29 H6         -0.6518   -2.5648    1.0707 H         1 <0>         0.1155
     30 H7         -0.4211   -3.9618   -0.0138 H         1 <0>         0.1302
     31 H8          1.3345   -0.6383    0.8220 H         1 <0>         0.1155
     32 H9          2.5758   -1.0551   -0.3891 H         1 <0>         0.1302
     33 H10         0.9228   -0.9247   -2.1907 H         1 <0>         0.1344
     34 H11         0.8655    0.5856   -1.2504 H         1 <0>         0.1569
     35 H12         1.2975   -2.4405    2.0860 H         1 <0>         0.1502
     36 H13         2.0243   -2.8976    4.3657 H         1 <0>         0.1496
     37 H14         3.7223   -4.5886    4.8448 H         1 <0>         0.1558
     38 H15         4.7590   -5.8851    3.0650 H         1 <0>         0.1623
     39 H16         5.6790   -7.3052   -0.6001 H         1 <0>         0.1677
     40 H17         5.7487   -7.6901   -3.0316 H         1 <0>         0.1653
     41 H18         2.7675   -4.6896   -3.6107 H         1 <0>         0.1565
     42 H19         1.9393   -3.6432   -2.0263 H         1 <0>         0.4255
     43 H20         4.9278   -6.3202    1.0333 H         1 <0>         0.4372
     44 H21        -0.9695   -0.3754   -0.0171 H         1 <0>         0.4310
@<TRIPOS>BOND
     1    1    2 1
     2    1   24 1
     3    1   25 1
     4    1   26 1
     5    2    7 1
     6    2    3 1
     7    2   44 1
     8    3    4 1
     9    3   27 1
    10    3   28 1
    11    4    5 1
    12    4   29 1
    13    4   30 1
    14    5    6 1
    15    5    8 1
    16    6    7 1
    17    6   31 1
    18    6   32 1
    19    7   33 1
    20    7   34 1
    21    8   22 1
    22    8    9 2
    23    9   14 ar
    24    9   10 ar
    25   10   11 ar
    26   10   35 1
    27   11   12 ar
    28   11   36 1
    29   12   13 ar
    30   12   37 1
    31   13   14 ar
    32   13   38 1
    33   14   15 2
    34   15   16 1
    35   15   43 1
    36   16   21 ar
    37   16   17 ar
    38   17   18 ar
    39   17   39 1
    40   18   19 ar
    41   18   40 1
    42   19   20 ar
    43   19   23 1
    44   20   21 ar
    45   20   41 1
    46   21   22 1
    47   22   42 1
@<TRIPOS>MOLECULE
ZINC19796155
   43    46     0     0     0
SMALL
USER_CHARGES

@<TRIPOS>ATOM
      1 C1         -0.0523    1.4387   -0.3863 C.3       1 <0>        -0.0469
      2 N1         -0.0147   -0.0168   -0.1908 N.4       1 <0>        -0.3852
      3 C2          0.4863   -0.6601   -1.4120 C.3       1 <0>        -0.0213
      4 C3          0.4181   -2.1823   -1.2510 C.3       1 <0>         0.1002
      5 N2          1.1441   -2.5548   -0.0269 N.pl3     1 <0>        -0.6180
      6 C4          0.8178   -1.8405    1.2170 C.3       1 <0>         0.0860
      7 C5          0.8671   -0.3344    0.9395 C.3       1 <0>        -0.0221
      8 C6          2.1017   -3.5432   -0.0451 C.2       1 <0>         0.5019
      9 N3          2.4234   -4.0210   -1.1951 N.2       1 <0>        -0.5760
     10 C7          3.3217   -5.0050   -1.4750 C.ar      1 <0>         0.1390
     11 C8          3.0096   -5.9522   -2.4541 C.ar      1 <0>        -0.0932
     12 C9          3.9229   -6.9340   -2.7877 C.ar      1 <0>        -0.0267
     13 C10         5.1529   -6.9852   -2.1572 C.ar      1 <0>        -0.1032
     14 C11         5.4673   -6.0631   -1.1730 C.ar      1 <0>        -0.1031
     15 C12         4.5533   -5.0871   -0.8155 C.ar      1 <0>         0.1235
     16 N4          4.8505   -4.2243    0.2524 N.pl3     1 <0>        -0.7273
     17 C13         4.0239   -4.2464    1.3765 C.ar      1 <0>         0.2173
     18 C14         2.6645   -3.9489    1.2520 C.ar      1 <0>        -0.1537
     19 C15         1.8414   -4.0345    2.3754 C.ar      1 <0>        -0.0841
     20 C16         2.3802   -4.3733    3.6007 C.ar      1 <0>        -0.1334
     21 C17         3.7349   -4.6261    3.7220 C.ar      1 <0>        -0.0692
     22 C18         4.5500   -4.5705    2.6174 C.ar      1 <0>        -0.1369
     23 Cl1         3.5248   -8.1083   -4.0027 Cl        1 <0>        -0.0551
     24 H1          0.9534    1.8033   -0.5956 H         1 <0>         0.1211
     25 H2         -0.7066    1.6758   -1.2253 H         1 <0>         0.1256
     26 H3         -0.4316    1.9169    0.5167 H         1 <0>         0.1252
     27 H4         -0.1269   -0.3565   -2.2605 H         1 <0>         0.1425
     28 H5          1.5196   -0.3587   -1.5839 H         1 <0>         0.1315
     29 H6         -0.6226   -2.4957   -1.1694 H         1 <0>         0.0898
     30 H7          0.8819   -2.6629   -2.1125 H         1 <0>         0.1431
     31 H8         -0.1827   -2.1194    1.5479 H         1 <0>         0.0960
     32 H9          1.5457   -2.0950    1.9873 H         1 <0>         0.1385
     33 H10         1.8889   -0.0428    0.6965 H         1 <0>         0.1320
     34 H11         0.5345    0.2092    1.8238 H         1 <0>         0.1439
     35 H12         2.0515   -5.9169   -2.9512 H         1 <0>         0.1396
     36 H13         5.8689   -7.7454   -2.4325 H         1 <0>         0.1422
     37 H14         6.4287   -6.1057   -0.6827 H         1 <0>         0.1382
     38 H15         5.6134   -3.6267    0.2096 H         1 <0>         0.4129
     39 H16         0.7836   -3.8354    2.2868 H         1 <0>         0.1314
     40 H17         1.7411   -4.4409    4.4686 H         1 <0>         0.1357
     41 H18         4.1512   -4.8742    4.6872 H         1 <0>         0.1370
     42 H19         5.6063   -4.7705    2.7202 H         1 <0>         0.1363
     43 H20        -0.9456   -0.3526    0.0057 H         1 <0>         0.4250
@<TRIPOS>BOND
     1    1    2 1
     2    1   24 1
     3    1   25 1
     4    1   26 1
     5    2    7 1
     6    2    3 1
     7    2   43 1
     8    3    4 1
     9    3   27 1
    10    3   28 1
    11    4    5 1
    12    4   29 1
    13    4   30 1
    14    5    6 1
    15    5    8 1
    16    6    7 1
    17    6   31 1
    18    6   32 1
    19    7   33 1
    20    7   34 1
    21    8   18 1
    22    8    9 2
    23    9   10 1
    24   10   15 ar
    25   10   11 ar
    26   11   12 ar
    27   11   35 1
    28   12   13 ar
    29   12   23 1
    30   13   14 ar
    31   13   36 1
    32   14   15 ar
    33   14   37 1
    34   15   16 1
    35   16   17 1
    36   16   38 1
    37   17   22 ar
    38   17   18 ar
    39   18   19 ar
    40   19   20 ar
    41   19   39 1
    42   20   21 ar
    43   20   40 1
    44   21   22 ar
    45   21   41 1
    46   22   42 1
